@<TRIPOS>MOLECULE
tmp/4anpA00.pdb
 172 170 0 0 0
SMALL
GASTEIGER

@<TRIPOS>ATOM
      1  N         -8.1040   15.5810    7.1130 N.3   131  GLY131     -0.1210
      2  CA        -8.2840   16.2750    5.8660 C.3   131  GLY131      0.1956
      3  C         -8.5670   17.7340    6.1690 C.2   131  GLY131      0.2612
      4  O         -8.1120   18.2690    7.1880 O.2   131  GLY131     -0.2717
      5  N         -9.3270   18.3780    5.2910 N.am  132  LEU132     -0.1965
      6  CA        -9.4960   19.8140    5.3590 C.3   132  LEU132      0.1728
      7  C        -10.6130   20.1670    6.3290 C.2   132  LEU132      0.2616
      8  O        -11.7470   19.7320    6.1610 O.2   132  LEU132     -0.2715
      9  CB        -9.7940   20.3560    3.9620 C.3   132  LEU132      0.0311
     10  CG       -10.1350   21.8330    3.7900 C.3   132  LEU132      0.0022
     11  CD1       -8.8430   22.6360    3.8200 C.3   132  LEU132      0.0001
     12  CD2      -10.9010   22.0230    2.4760 C.3   132  LEU132      0.0001
     13  N        -10.2670   20.9260    7.3590 N.am  133  LEU133     -0.1963
     14  CA       -11.2360   21.4550    8.3050 C.3   133  LEU133      0.1728
     15  C        -11.6390   22.8630    7.8530 C.2   133  LEU133      0.2617
     16  O        -10.8850   23.5310    7.1310 O.2   133  LEU133     -0.2715
     17  CB       -10.6300   21.5350    9.7090 C.3   133  LEU133      0.0311
     18  CG       -10.4580   20.2760   10.5660 C.3   133  LEU133      0.0022
     19  CD1       -9.5480   20.6010   11.7340 C.3   133  LEU133      0.0001
     20  CD2      -11.8050   19.7240   11.0430 C.3   133  LEU133      0.0001
     21  N        -12.8140   23.3120    8.2660 N.am  134  SER134     -0.1936
     22  CA       -13.1980   24.7040    8.0330 C.3   134  SER134      0.2055
     23  C        -12.1350   25.6360    8.6370 C.2   134  SER134      0.2643
     24  O        -11.4180   25.2490    9.5620 O.2   134  SER134     -0.2714
     25  CB       -14.5570   24.9930    8.6570 C.3   134  SER134      0.2130
     26  OG       -14.4900   24.9030   10.0670 O.3   134  SER134     -0.2179
     27  N        -12.0220   26.8480    8.0960 N.am  135  SER135     -0.1949
     28  CA       -11.0980   27.8450    8.6470 C.3   135  SER135      0.1924
     29  C        -11.4660   28.1020   10.0990 C.2   135  SER135      0.2314
     30  O        -10.5950   28.1540   10.9510 O.2   135  SER135     -0.2863
     31  CB       -11.1370   29.1620    7.8550 C.3   135  SER135      0.2116
     32  OG       -10.6010   29.0040    6.5600 O.3   135  SER135     -0.2180
     33  N        -10.1170   25.0990   12.1480 N.3   138  PHE138     -0.1227
     34  CA        -8.6430   25.1110   12.1420 C.3   138  PHE138      0.1736
     35  C         -8.0350   26.2750   12.9440 C.2   138  PHE138      0.2595
     36  O         -7.1170   26.0740   13.7700 O.2   138  PHE138     -0.2718
     37  CB        -8.0780   25.1160   10.7080 C.3   138  PHE138      0.0547
     38  CG        -6.5770   25.1020   10.6730 C.ar  138  PHE138     -0.0202
     39  CD1       -5.8510   26.2980   10.7230 C.ar  138  PHE138     -0.0042
     40  CD2       -5.8820   23.9030   10.6640 C.ar  138  PHE138     -0.0042
     41  CE1       -4.4570   26.2950   10.7270 C.ar  138  PHE138     -0.0003
     42  CE2       -4.4920   23.8960   10.6640 C.ar  138  PHE138     -0.0003
     43  CZ        -3.7870   25.0880   10.7120 C.ar  138  PHE138     -0.0000
     44  N         -8.5070   27.4810   12.6760 N.am  139  LEU139     -0.1980
     45  CA        -7.9960   28.6770   13.3620 C.3   139  LEU139      0.1596
     46  C         -8.3000   28.6810   14.8690 C.2   139  LEU139      0.2287
     47  O         -7.4730   29.1360   15.6500 O.2   139  LEU139     -0.2864
     48  CB        -8.5160   29.9660   12.6980 C.3   139  LEU139      0.0297
     49  CG        -8.0690   30.2440   11.2510 C.3   139  LEU139      0.0022
     50  CD1       -8.7210   31.5240   10.6960 C.3   139  LEU139      0.0001
     51  CD2       -6.5440   30.3260   11.0870 C.3   139  LEU139      0.0001
     52  N         -2.0090   22.7910   16.7880 N.3   147  PHE147     -0.1241
     53  CA        -1.9140   22.8020   15.3260 C.3   147  PHE147      0.1605
     54  C         -2.4150   21.4680   14.7810 C.2   147  PHE147      0.2264
     55  O         -1.8460   20.3920   15.0870 O.2   147  PHE147     -0.2867
     56  CB        -0.4680   23.1360   14.8830 C.3   147  PHE147      0.0534
     57  CG        -0.2250   23.0110   13.4120 C.ar  147  PHE147     -0.0203
     58  CD1       -0.7550   23.9430   12.5100 C.ar  147  PHE147     -0.0042
     59  CD2        0.5580   21.9790   12.9170 C.ar  147  PHE147     -0.0042
     60  CE1       -0.5320   23.8110   11.1410 C.ar  147  PHE147     -0.0003
     61  CE2        0.7990   21.8570   11.5480 C.ar  147  PHE147     -0.0003
     62  CZ         0.2410   22.7640   10.6630 C.ar  147  PHE147     -0.0000
     63  N          3.0010   19.1600   -4.1650 N.3   162  THR162     -0.1204
     64  CA         1.7690   18.7980   -3.4900 C.3   162  THR162      0.1979
     65  C          0.7110   19.9420   -3.5860 C.2   162  THR162      0.2460
     66  O          1.0330   21.1190   -3.3780 O.2   162  THR162     -0.2732
     67  CB         2.0540   18.3330   -2.0470 C.3   162  THR162      0.1783
     68  OG1        0.8520   17.8750   -1.4350 O.3   162  THR162     -0.2211
     69  CG2        2.6800   19.4660   -1.2180 C.3   162  THR162      0.0376
     70  N         -0.5490   19.5910   -3.9330 N.am  163  PRO163     -0.2717
     71  CA        -1.6080   20.6010   -3.8630 C.3   163  PRO163      0.1535
     72  C         -2.1360   20.7430   -2.4370 C.2   163  PRO163      0.2598
     73  O         -2.8990   21.6590   -2.1420 O.2   163  PRO163     -0.2715
     74  CB        -2.6990   20.0200   -4.7640 C.3   163  PRO163      0.0310
     75  CG        -2.5000   18.5290   -4.7260 C.3   163  PRO163      0.0237
     76  CD        -1.0530   18.2720   -4.3930 C.3   163  PRO163      0.0939
     77  N         -1.7240   19.8370   -1.5610 N.am  164  GLU164     -0.1964
     78  CA        -2.3450   19.7080   -0.2550 C.3   164  GLU164      0.1718
     79  C         -1.2730   19.8820    0.7800 C.2   164  GLU164      0.2458
     80  O         -0.0960   19.7230    0.4770 O.2   164  GLU164     -0.2730
     81  CB        -2.9360   18.3050   -0.0400 C.3   164  GLU164      0.0428
     82  CG        -2.9810   17.4000   -1.2470 C.3   164  GLU164      0.1163
     83  CD        -3.4110   15.9990   -0.8770 C.2   164  GLU164      0.3649
     84  OE1       -4.4200   15.8490   -0.1470 O.co2 164  GLU164     -0.2457
     85  OE2       -2.7420   15.0500   -1.3220 O.co2 164  GLU164     -0.2457
     86  N         -1.6760   20.1780    2.0170 N.am  165  PRO165     -0.2727
     87  CA        -0.6840   19.9380    3.0470 C.3   165  PRO165      0.1402
     88  C         -0.3530   18.4380    3.0660 C.2   165  PRO165      0.2269
     89  O         -1.2160   17.5870    2.7510 O.2   165  PRO165     -0.2865
     90  CB        -1.3790   20.3640    4.3430 C.3   165  PRO165      0.0296
     91  CG        -2.8390   20.5120    4.0360 C.3   165  PRO165      0.0237
     92  CD        -3.0110   20.5500    2.5370 C.3   165  PRO165      0.0939
     93  N          5.2790   19.3190    4.4060 N.3   169  HIS169     -0.1226
     94  CA         4.9060   20.7210    4.5850 C.3   169  HIS169      0.1752
     95  C          4.7170   21.0480    6.0530 C.2   169  HIS169      0.2595
     96  O          5.1370   22.1040    6.5260 O.2   169  HIS169     -0.2718
     97  CB         3.6430   20.9900    3.7710 C.3   169  HIS169      0.0759
     98  CG         2.9080   22.2570    4.1510 C.ar  169  HIS169      0.0818
     99  ND1        3.2650   23.4670    3.6880 N.ar  169  HIS169     -0.2268
    100  CD2        1.7770   22.4550    4.9260 C.ar  169  HIS169      0.1154
    101  CE1        2.4340   24.3920    4.1840 C.ar  169  HIS169      0.1986
    102  NE2        1.5220   23.7730    4.9280 N.ar  169  HIS169     -0.2212
    103  N          4.0860   20.1440    6.8040 N.am  170  GLU170     -0.1979
    104  CA         3.8870   20.4190    8.2260 C.3   170  GLU170      0.1602
    105  C          5.2150   20.4750    8.9980 C.2   170  GLU170      0.2287
    106  O          5.4380   21.3970    9.7940 O.2   170  GLU170     -0.2864
    107  CB         2.9460   19.4030    8.8990 C.3   170  GLU170      0.0415
    108  CG         1.7350   18.9620    8.0960 C.3   170  GLU170      0.1163
    109  CD         0.6400   20.0000    8.0280 C.2   170  GLU170      0.3649
    110  OE1        0.9640   21.1940    7.9060 O.co2 170  GLU170     -0.2457
    111  OE2       -0.5490   19.6100    8.0780 O.co2 170  GLU170     -0.2457
    112  N          5.8400   24.2500    8.8110 N.3   174  HIS174     -0.1241
    113  CA         5.2490   24.8590   10.0250 C.3   174  HIS174      0.1621
    114  C          6.0400   24.6890   11.3010 C.2   174  HIS174      0.2264
    115  O          6.2880   25.6630   12.0200 O.2   174  HIS174     -0.2867
    116  CB         3.8240   24.3560   10.3050 C.3   174  HIS174      0.0745
    117  CG         2.7890   24.8490    9.3260 C.ar  174  HIS174      0.0817
    118  ND1        2.2390   26.0900    9.4010 N.ar  174  HIS174     -0.2268
    119  CD2        2.2160   24.2230    8.2250 C.ar  174  HIS174      0.1154
    120  CE1        1.3590   26.2360    8.4040 C.ar  174  HIS174      0.1986
    121  NE2        1.3430   25.0770    7.6870 N.ar  174  HIS174     -0.2212
    122  N         -8.5520   34.0790    7.7240 N.3   206  ALA206     -0.1245
    123  CA        -7.9250   33.0070    6.9570 C.3   206  ALA206      0.1562
    124  C         -6.9570   33.6300    5.9440 C.2   206  ALA206      0.2260
    125  O         -5.8970   33.0730    5.6680 O.2   206  ALA206     -0.2867
    126  CB        -8.9750   32.1490    6.2490 C.3   206  ALA206      0.0290
    127  N         -3.9330   34.8170    7.8310 N.3   209  TYR209     -0.1227
    128  CA        -3.1750   33.5740    8.0330 C.3   209  TYR209      0.1736
    129  C         -2.3420   33.2040    6.7910 C.2   209  TYR209      0.2595
    130  O         -1.1430   32.9530    6.8870 O.2   209  TYR209     -0.2718
    131  CB        -4.1500   32.4570    8.3690 C.3   209  TYR209      0.0548
    132  CG        -3.4960   31.1130    8.5730 C.ar  209  TYR209     -0.0200
    133  CD1       -3.0080   30.7360    9.8330 C.ar  209  TYR209     -0.0009
    134  CD2       -3.3880   30.2040    7.5230 C.ar  209  TYR209     -0.0009
    135  CE1       -2.4290   29.4770   10.0340 C.ar  209  TYR209      0.0417
    136  CE2       -2.7890   28.9470    7.7150 C.ar  209  TYR209      0.0417
    137  CZ        -2.2980   28.6060    8.9700 C.ar  209  TYR209      0.1957
    138  OH        -1.7250   27.3560    9.1640 O.3   209  TYR209     -0.2866
    139  N         -2.9850   33.2170    5.6210 N.am  210  TRP210     -0.1976
    140  CA        -2.3040   32.8440    4.3760 C.3   210  TRP210      0.1640
    141  C         -1.1420   33.7420    4.0370 C.2   210  TRP210      0.2290
    142  O         -0.1090   33.2660    3.5210 O.2   210  TRP210     -0.2864
    143  CB        -3.2980   32.7290    3.2140 C.3   210  TRP210      0.0576
    144  CG        -3.9850   31.3740    3.1490 C.ar  210  TRP210      0.0006
    145  CD1       -5.2640   31.0450    3.5960 C.ar  210  TRP210      0.0946
    146  CD2       -3.4450   30.1170    2.6040 C.ar  210  TRP210      0.0152
    147  NE1       -5.5420   29.7290    3.3660 N.ar  210  TRP210     -0.2442
    148  CE2       -4.4940   29.1090    2.7830 C.ar  210  TRP210      0.0810
    149  CE3       -2.2510   29.7450    2.0110 C.ar  210  TRP210      0.0012
    150  CZ2       -4.3310   27.7940    2.3740 C.ar  210  TRP210      0.0191
    151  CZ3       -2.0940   28.4100    1.6070 C.ar  210  TRP210      0.0001
    152  CH2       -3.1100   27.4610    1.7890 C.ar  210  TRP210      0.0015
    153  N          1.4620   31.1310    6.2590 N.3   214  GLU214     -0.1245
    154  CA         1.7590   30.3450    5.0360 C.3   214  GLU214      0.1567
    155  C          2.7680   30.9600    4.0430 C.2   214  GLU214      0.2260
    156  O          3.6240   30.2450    3.5110 O.2   214  GLU214     -0.2867
    157  CB         0.4710   29.9740    4.2630 C.3   214  GLU214      0.0388
    158  CG        -0.4270   28.9610    4.9650 C.3   214  GLU214      0.1160
    159  CD         0.1780   27.5810    5.0770 C.2   214  GLU214      0.3649
    160  OE1        0.8670   27.1310    4.1340 O.co2 214  GLU214     -0.2457
    161  OE2       -0.0780   26.9140    6.1020 O.co2 214  GLU214     -0.2457
    162  N          4.3040   27.7550    3.6500 N.3   230  GLY230     -0.1225
    163  CA         4.1490   27.4810    2.2100 C.3   230  GLY230      0.1811
    164  C          5.3990   27.8170    1.4300 C.2   230  GLY230      0.2280
    165  O          5.7270   27.1690    0.4510 O.2   230  GLY230     -0.2866
    166  N         -3.8610   29.5630   -5.0730 N.3   263  VAL263     -0.1245
    167  CA        -2.9630   28.5550   -4.5080 C.3   263  VAL263      0.1561
    168  C         -2.0710   27.8590   -5.5530 C.2   263  VAL263      0.2260
    169  O         -1.1390   27.1270   -5.1940 O.2   263  VAL263     -0.2867
    170  CB        -3.7520   27.4730   -3.7360 C.3   263  VAL263      0.0252
    171  CG1       -4.5520   28.0960   -2.5980 C.3   263  VAL263      0.0019
    172  CG2       -4.6700   26.6980   -4.6770 C.3   263  VAL263      0.0019
@<TRIPOS>BOND
     1   168   169    2
     2   168   167    1
     3   166   167    1
     4    74    75    1
     5    74    71    1
     6    75    76    1
     7   172   170    1
     8   167   170    1
     9    76    70    1
    10    63    64    1
    11    70    71    1
    12    70    65   am
    13    71    72    1
    14   170   171    1
    15    65    64    1
    16    65    66    2
    17    64    67    1
    18    72    73    2
    19    72    77   am
    20    67    68    1
    21    67    69    1
    22    77    78    1
    23    85    83   ar
    24    82    83    1
    25    82    81    1
    26    83    84   ar
    27    78    81    1
    28    78    79    1
    29   165   164    2
    30    80    79    2
    31    79    86   am
    32   164   163    1
    33   151   152   ar
    34   151   149   ar
    35   152   150   ar
    36   149   146   ar
    37    86    92    1
    38    86    87    1
    39   163   162    1
    40   150   148   ar
    41    12    10    1
    42    92    91    1
    43   146   148   ar
    44   146   144   ar
    45    89    88    2
    46   148   147   ar
    47    87    88    1
    48    87    90    1
    49   144   143    1
    50   144   145   ar
    51   143   140    1
    52   147   145   ar
    53   156   155    2
    54   142   141    2
    55    99    98   ar
    56    99   101   ar
    57    97    98    1
    58    97    94    1
    59    10    11    1
    60    10     9    1
    61     9     6    1
    62    91    90    1
    63   141   140    1
    64   155   154    1
    65   160   159   ar
    66    98   100   ar
    67   101   102   ar
    68   157   158    1
    69   157   154    1
    70   140   139    1
    71    93    94    1
    72    94    95    1
    73   100   102   ar
    74   158   159    1
    75   154   153    1
    76   159   161   ar
    77     5     6    1
    78     5     3   am
    79     6     7    1
    80   139   129   am
    81   125   124    2
    82     2     3    1
    83     2     1    1
    84   124   123    1
    85    95    96    2
    86    95   103   am
    87     8     7    2
    88     3     4    2
    89   126   123    1
    90     7    13   am
    91    32    31    1
    92   129   130    2
    93   129   128    1
    94   103   104    1
    95   123   122    1
    96    16    15    2
    97    13    14    1
    98   134   136   ar
    99   134   132   ar
   100   121   119   ar
   101   121   120   ar
   102   136   137   ar
   103   127   128    1
   104    15    21   am
   105    15    14    1
   106    31    28    1
   107   110   109   ar
   108   109   111   ar
   109   109   108    1
   110   128   131    1
   111    22    21    1
   112    22    23    1
   113    22    25    1
   114    27    23   am
   115    27    28    1
   116   108   107    1
   117   119   117   ar
   118   104   107    1
   119   104   105    1
   120    14    17    1
   121   131   132    1
   122   120   118   ar
   123   132   133   ar
   124    23    24    2
   125    28    29    1
   126    25    26    1
   127   112   113    1
   128   137   138    1
   129   137   135   ar
   130   105   106    2
   131   117   118   ar
   132   117   116    1
   133    17    18    1
   134   133   135   ar
   135   113   116    1
   136   113   114    1
   137    29    30    2
   138    18    20    1
   139    18    19    1
   140    62    60   ar
   141    62    61   ar
   142    42    40   ar
   143    42    43   ar
   144    40    38   ar
   145    38    37    1
   146    38    39   ar
   147    50    49    1
   148    37    34    1
   149    43    41   ar
   150    39    41   ar
   151    51    49    1
   152    60    58   ar
   153    49    48    1
   154   114   115    2
   155    61    59   ar
   156    34    33    1
   157    34    35    1
   158    58    57   ar
   159    44    35   am
   160    44    45    1
   161    48    45    1
   162    59    57   ar
   163    35    36    2
   164    45    46    1
   165    57    56    1
   166    54    55    2
   167    54    53    1
   168    46    47    2
   169    56    53    1
   170    53    52    1
