@<TRIPOS>MOLECULE
tmp/4ansA00.pdb
 147 137 0 0 0
SMALL
GASTEIGER

@<TRIPOS>ATOM
      1  N         21.9460   44.3010   -0.5730 N.3    28  ARG28      -0.1245
      2  CA        22.7720   45.3570   -1.1450 C.3    28  ARG28       0.1563
      3  C         24.2080   45.2270   -0.6630 C.2    28  ARG28       0.2260
      4  O         24.4620   44.7220    0.4350 O.2    28  ARG28      -0.2867
      5  CB        22.2330   46.7310   -0.7400 C.3    28  ARG28       0.0307
      6  CG        22.2230   46.9630    0.7610 C.3    28  ARG28       0.0489
      7  CD        22.0300   48.4340    1.1030 C.3    28  ARG28       0.2205
      8  NE        20.8980   49.0230    0.3940 N.pl3  28  ARG28      -0.0865
      9  CZ        19.6300   48.9050    0.7750 C.cat  28  ARG28       0.5346
     10  NH1       19.3210   48.2160    1.8660 N.pl3  28  ARG28       0.1354
     11  NH2       18.6690   49.4810    0.0660 N.pl3  28  ARG28       0.1354
     12  N         27.7100   46.6860    0.8570 N.3    30  LEU30      -0.1231
     13  CA        27.9920   47.6550    1.9090 C.3    30  LEU30       0.1693
     14  C         29.3880   48.2360    1.7210 C.2    30  LEU30       0.2592
     15  O         30.0030   48.7250    2.6680 O.2    30  LEU30      -0.2718
     16  CB        27.8860   46.9900    3.2850 C.3    30  LEU30       0.0284
     17  CG        26.4940   46.4900    3.6800 C.3    30  LEU30       0.0019
     18  CD1       26.5620   45.7500    5.0060 C.3    30  LEU30       0.0001
     19  CD2       25.5390   47.6700    3.7740 C.3    30  LEU30       0.0001
     20  N         29.8820   48.1740    0.4890 N.am   31  GLY31      -0.1957
     21  CA        31.2150   48.6660    0.2000 C.3    31  GLY31       0.1869
     22  C         32.2580   47.5690    0.2860 C.2    31  GLY31       0.2309
     23  O         32.3520   46.8680    1.2940 O.2    31  GLY31      -0.2863
     24  N         31.2430   42.6530    1.4280 N.3    36  VAL36      -0.1245
     25  CA        30.2840   42.6420    2.5230 C.3    36  VAL36       0.1561
     26  C         28.9260   43.0760    1.9900 C.2    36  VAL36       0.2260
     27  O         28.8290   44.0320    1.2130 O.2    36  VAL36      -0.2867
     28  CB        30.6980   43.6120    3.6470 C.3    36  VAL36       0.0252
     29  CG1       29.7070   43.5250    4.7960 C.3    36  VAL36       0.0019
     30  CG2       32.1050   43.2880    4.1230 C.3    36  VAL36       0.0019
     31  N         24.6430   41.0770    8.2700 N.3    46  ALA46      -0.1245
     32  CA        25.7120   41.4490    7.3560 C.3    46  ALA46       0.1562
     33  C         26.3810   40.1620    6.8850 C.2    46  ALA46       0.2260
     34  O         26.6230   39.2540    7.6820 O.2    46  ALA46      -0.2867
     35  CB        26.7230   42.3300    8.0620 C.3    46  ALA46       0.0290
     36  N         29.6600   38.5000    5.1400 N.3    48  LYS48      -0.1245
     37  CA        31.0350   38.6050    4.6780 C.3    48  LYS48       0.1561
     38  C         31.3320   37.4160    3.7760 C.2    48  LYS48       0.2260
     39  O         31.0800   36.2630    4.1420 O.2    48  LYS48      -0.2867
     40  CB        31.9990   38.6240    5.8700 C.3    48  LYS48       0.0271
     41  CG        33.4570   38.8280    5.4770 C.3    48  LYS48       0.0035
     42  CD        34.3460   38.9870    6.7020 C.3    48  LYS48       0.0206
     43  CE        35.7730   39.3640    6.3110 C.3    48  LYS48       0.1093
     44  NZ        35.8580   40.7450    5.7510 N.3    48  LYS48      -0.1314
     45  N         26.9850   37.9750   10.1020 N.3    94  MET94      -0.1230
     46  CA        27.1970   38.7660   11.3080 C.3    94  MET94       0.1702
     47  C         25.9870   39.6150   11.6660 C.2    94  MET94       0.2592
     48  O         25.1700   39.9490   10.8070 O.2    94  MET94      -0.2718
     49  CB        28.4090   39.6840   11.1300 C.3    94  MET94       0.0401
     50  CG        29.6730   38.9700   10.6950 C.3    94  MET94       0.0596
     51  SD        31.0120   40.1380   10.3980 S.3    94  MET94      -0.1393
     52  CE        31.0450   41.0190   11.9550 C.3    94  MET94       0.0692
     53  N         25.8900   39.9610   12.9450 N.am   95  GLU95      -0.1966
     54  CA        24.9950   41.0130   13.4130 C.3    95  GLU95       0.1733
     55  C         25.1320   42.2420   12.5050 C.2    95  GLU95       0.2616
     56  O         26.2420   42.7120   12.2500 O.2    95  GLU95      -0.2715
     57  CB        25.3750   41.3690   14.8570 C.3    95  GLU95       0.0429
     58  CG        24.6280   42.5360   15.4790 C.3    95  GLU95       0.1163
     59  CD        25.1000   42.8190   16.9020 C.2    95  GLU95       0.3649
     60  OE1       26.1060   42.2110   17.3290 O.co2  95  GLU95      -0.2457
     61  OE2       24.4680   43.6440   17.5960 O.co2  95  GLU95      -0.2457
     62  N         24.0100   42.7550   12.0080 N.am   96  LEU96      -0.1963
     63  CA        24.0490   43.9180   11.1250 C.3    96  LEU96       0.1728
     64  C         24.2000   45.2030   11.9370 C.2    96  LEU96       0.2616
     65  O         23.3360   45.5420   12.7390 O.2    96  LEU96      -0.2715
     66  CB        22.7710   43.9880   10.2790 C.3    96  LEU96       0.0311
     67  CG        22.6680   45.1750    9.3140 C.3    96  LEU96       0.0022
     68  CD1       23.8590   45.1570    8.3770 C.3    96  LEU96       0.0001
     69  CD2       21.3640   45.1010    8.5260 C.3    96  LEU96       0.0001
     70  N         25.3050   45.9110   11.7230 N.am   97  MET97      -0.1963
     71  CA        25.6020   47.1230   12.4800 C.3    97  MET97       0.1736
     72  C         25.3720   48.3460   11.5940 C.2    97  MET97       0.2616
     73  O         26.2780   48.8060   10.8960 O.2    97  MET97      -0.2715
     74  CB        27.0570   47.0900   12.9700 C.3    97  MET97       0.0427
     75  CG        27.3860   45.8750   13.8330 C.3    97  MET97       0.0599
     76  SD        26.5620   45.9190   15.4420 S.3    97  MET97      -0.1393
     77  CE        27.6430   47.0970   16.3310 C.3    97  MET97       0.0692
     78  N         24.1530   48.8710   11.6370 N.am   98  ALA98      -0.1963
     79  CA        23.7080   49.8590   10.6600 C.3    98  ALA98       0.1728
     80  C         24.4680   51.1710   10.7790 C.2    98  ALA98       0.2617
     81  O         24.4550   51.9900    9.8580 O.2    98  ALA98      -0.2715
     82  CB        22.2120   50.1050   10.8160 C.3    98  ALA98       0.0334
     83  N         25.1330   51.3690   11.9120 N.am   99  GLY99      -0.1940
     84  CA        25.9240   52.5710   12.0950 C.3    99  GLY99       0.2014
     85  C         27.2220   52.5600   11.3070 C.2    99  GLY99       0.2639
     86  O         27.8460   53.6060   11.1180 O.2    99  GLY99      -0.2714
     87  N         27.6340   51.3820   10.8450 N.am  100  GLY100     -0.1939
     88  CA        28.8800   51.2800   10.1070 C.3   100  GLY100      0.2014
     89  C         30.0910   51.3480   11.0200 C.2   100  GLY100      0.2638
     90  O         29.9530   51.2680   12.2390 O.2   100  GLY100     -0.2714
     91  N         31.2790   51.4960   10.4400 N.am  101  ASP101     -0.1971
     92  CA        32.5010   51.5210   11.2430 C.3   101  ASP101      0.1709
     93  C         32.6750   52.8650   11.9480 C.2   101  ASP101      0.2293
     94  O         32.1840   53.8990   11.4910 O.2   101  ASP101     -0.2864
     95  CB        33.7290   51.2160   10.3720 C.3   101  ASP101      0.1436
     96  CG        34.1790   52.4080    9.5480 C.2   101  ASP101      0.3671
     97  OD1       33.6400   52.6040    8.4380 O.co2 101  ASP101     -0.2456
     98  OD2       35.0760   53.1480   10.0080 O.co2 101  ASP101     -0.2456
     99  N         31.8730   61.4790    9.3460 N.3   108  GLU108     -0.1245
    100  CA        30.6580   61.9160    8.6710 C.3   108  GLU108      0.1567
    101  C         29.6410   62.5250    9.6350 C.2   108  GLU108      0.2260
    102  O         28.6510   63.1220    9.2110 O.2   108  GLU108     -0.2867
    103  CB        30.0250   60.7480    7.8990 C.3   108  GLU108      0.0388
    104  CG        29.4460   59.6420    8.7620 C.3   108  GLU108      0.1160
    105  CD        28.9630   58.4510    7.9410 C.2   108  GLU108      0.3649
    106  OE1       29.1820   58.4490    6.7090 O.co2 108  GLU108     -0.2457
    107  OE2       28.3680   57.5200    8.5300 O.co2 108  GLU108     -0.2457
    108  N         38.7040   51.8360   12.9280 N.3   151  ARG151     -0.1231
    109  CA        38.3100   51.1760   11.6820 C.3   151  ARG151      0.1694
    110  C         37.7820   49.7630   11.9400 C.2   151  ARG151      0.2592
    111  O         37.0870   49.1870   11.0970 O.2   151  ARG151     -0.2718
    112  CB        39.5060   51.0940   10.7230 C.3   151  ARG151      0.0321
    113  CG        40.5790   50.1180   11.1960 C.3   151  ARG151      0.0489
    114  CD        41.7920   50.0630   10.2670 C.3   151  ARG151      0.2205
    115  NE        42.9570   49.5200   10.9680 N.pl3 151  ARG151     -0.0865
    116  CZ        43.7850   50.2580   11.7040 C.cat 151  ARG151      0.5346
    117  NH1       43.5730   51.5590   11.8220 N.pl3 151  ARG151      0.1354
    118  NH2       44.8060   49.7000   12.3440 N.pl3 151  ARG151      0.1354
    119  N         38.1180   49.2100   13.1030 N.am  152  ASN152     -0.1974
    120  CA        37.7510   47.8390   13.4410 C.3   152  ASN152      0.1688
    121  C         36.5870   47.7550   14.4280 C.2   152  ASN152      0.2292
    122  O         36.2790   46.6810   14.9460 O.2   152  ASN152     -0.2864
    123  CB        38.9700   47.1040   14.0030 C.3   152  ASN152      0.1181
    124  CG        40.0480   46.8950   12.9550 C.2   152  ASN152      0.2629
    125  OD1       39.7480   46.7080   11.7730 O.2   152  ASN152     -0.2716
    126  ND2       41.3070   46.9320   13.3790 N.am  152  ASN152     -0.0877
    127  N         32.3790   48.7580   15.1130 N.3   154  LEU154     -0.1245
    128  CA        31.1140   49.0420   14.4340 C.3   154  LEU154      0.1561
    129  C         30.0810   49.6380   15.3860 C.2   154  LEU154      0.2260
    130  O         30.1700   49.4610   16.6010 O.2   154  LEU154     -0.2867
    131  CB        30.5430   47.7580   13.8280 C.3   154  LEU154      0.0270
    132  CG        31.3220   47.1320   12.6720 C.3   154  LEU154      0.0019
    133  CD1       30.6850   45.7940   12.3100 C.3   154  LEU154      0.0001
    134  CD2       31.3190   48.0730   11.4740 C.3   154  LEU154      0.0001
    135  N         34.7210   44.5280   16.2110 N.3   167  ALA167     -0.1231
    136  CA        34.1230   43.7890   15.1030 C.3   167  ALA167      0.1694
    137  C         35.1040   42.9890   14.2440 C.2   167  ALA167      0.2592
    138  O         34.8070   41.8570   13.8560 O.2   167  ALA167     -0.2718
    139  CB        33.3310   44.7470   14.2280 C.3   167  ALA167      0.0304
    140  N         36.2610   43.5680   13.9450 N.am  168  ASP168     -0.1974
    141  CA        37.2340   42.9390   13.0470 C.3   168  ASP168      0.1709
    142  C         38.3180   42.2270   13.8600 C.2   168  ASP168      0.2293
    143  O         39.0130   42.8520   14.6590 O.2   168  ASP168     -0.2864
    144  CB        37.8710   44.0150   12.1550 C.3   168  ASP168      0.1436
    145  CG        38.8200   43.4390   11.1040 C.2   168  ASP168      0.3671
    146  OD1       39.5470   42.4650   11.3960 O.co2 168  ASP168     -0.2456
    147  OD2       38.8460   43.9810    9.9770 O.co2 168  ASP168     -0.2456
@<TRIPOS>BOND
     1     2     5    1
     2     2     3    1
     3     2     1    1
     4     5     6    1
     5     3     4    2
     6    11     9    1
     7    21    22    1
     8    21    20    1
     9    22    23    2
    10     8     9    2
    11     8     7    1
    12    20    14   am
    13     6     7    1
    14     9    10    1
    15    12    13    1
    16    27    26    2
    17    24    25    1
    18    14    13    1
    19    14    15    2
    20    13    16    1
    21    26    25    1
    22    25    28    1
    23    16    17    1
    24    28    30    1
    25    28    29    1
    26    17    19    1
    27    17    18    1
    28    38    39    2
    29    38    37    1
    30    37    36    1
    31    37    40    1
    32    41    40    1
    33    41    42    1
    34    44    43    1
    35    43    42    1
    36   106   105   ar
    37    33    32    1
    38    33    34    2
    39    32    35    1
    40    32    31    1
    41   103   100    1
    42   103   104    1
    43   105   107   ar
    44   105   104    1
    45    68    67    1
    46    97    96   ar
    47    69    67    1
    48   100    99    1
    49   100   101    1
    50   102   101    2
    51    67    66    1
    52    96    98   ar
    53    96    95    1
    54    81    80    2
    55   147   145   ar
    56    45    46    1
    57    88    87    1
    58    88    89    1
    59   114   115    1
    60   114   113    1
    61    66    63    1
    62    95    92    1
    63    51    50    1
    64    51    52    1
    65    91    89   am
    66    91    92    1
    67    79    80    1
    68    79    82    1
    69    79    78    1
    70    50    49    1
    71   112   113    1
    72   112   109    1
    73    80    83   am
    74    48    47    2
    75    87    85   am
    76    73    72    2
    77   115   116    2
    78    89    90    2
    79   111   110    2
    80   145   146   ar
    81   145   144    1
    82    86    85    2
    83    63    64    1
    84    63    62    1
    85    49    46    1
    86    92    93    1
    87    85    84    1
    88    46    47    1
    89   134   132    1
    90    94    93    2
    91    72    78   am
    92    72    71    1
    93    47    53   am
    94   109   110    1
    95   109   108    1
    96   116   117    1
    97   116   118    1
    98    70    64   am
    99    70    71    1
   100   125   124    2
   101    83    84    1
   102    64    65    2
   103   110   119   am
   104    62    55   am
   105   144   141    1
   106    56    55    2
   107   133   132    1
   108    71    74    1
   109    55    54    1
   110   132   131    1
   111    53    54    1
   112   124   126   am
   113   124   123    1
   114    74    75    1
   115   141   142    1
   116   141   140    1
   117   119   120    1
   118    54    57    1
   119   120   123    1
   120   120   121    1
   121   131   128    1
   122    75    76    1
   123   138   137    2
   124   142   143    2
   125   140   137   am
   126   139   136    1
   127   137   136    1
   128   121   122    2
   129   128   127    1
   130   128   129    1
   131    57    58    1
   132   136   135    1
   133   129   130    2
   134    76    77    1
   135    58    59    1
   136    59    60   ar
   137    59    61   ar
