@<TRIPOS>MOLECULE
tmp/4anuA00.pdb
 184 173 0 0 0
SMALL
GASTEIGER

@<TRIPOS>ATOM
      1  N         47.3920   14.7950   40.4260 N.3   562  MET562     -0.1245
      2  CA        47.0740   15.6070   39.2620 C.3   562  MET562      0.1570
      3  C         46.1590   16.7600   39.6210 C.2   562  MET562      0.2261
      4  O         44.9350   16.6120   39.6680 O.2   562  MET562     -0.2867
      5  CB        46.3870   14.7590   38.1860 C.3   562  MET562      0.0387
      6  CG        47.2900   14.1690   37.1230 C.3   562  MET562      0.0595
      7  SD        46.2730   13.2840   35.9270 S.3   562  MET562     -0.1393
      8  CE        45.4990   14.6070   34.9620 C.3   562  MET562      0.0692
      9  N         43.6000   18.6000   40.1270 N.3   564  SER564     -0.1217
     10  CA        42.1720   18.6310   39.7660 C.3   564  SER564      0.1889
     11  C         41.2350   18.2230   40.8930 C.2   564  SER564      0.2288
     12  O         41.6060   17.4440   41.7810 O.2   564  SER564     -0.2866
     13  CB        41.8400   17.6980   38.6080 C.3   564  SER564      0.2089
     14  OG        40.4330   17.4350   38.6250 O.3   564  SER564     -0.2183
     15  N         39.1550   16.0340   41.3630 N.3   566  LYS566     -0.1245
     16  CA        39.0860   14.6140   41.7560 C.3   566  LYS566      0.1561
     17  C         40.3940   14.1030   42.3810 C.2   566  LYS566      0.2260
     18  O         40.4130   13.0230   42.9930 O.2   566  LYS566     -0.2867
     19  CB        38.6810   13.7250   40.5730 C.3   566  LYS566      0.0271
     20  CG        37.1580   13.5820   40.3580 C.3   566  LYS566      0.0035
     21  CD        36.5600   14.7250   39.4960 C.3   566  LYS566      0.0206
     22  CE        35.1840   14.3550   38.9140 C.3   566  LYS566      0.1093
     23  NZ        34.6410   15.3800   37.9650 N.3   566  LYS566     -0.1314
     24  N         43.2100   12.7660   41.0060 N.3   568  PRO568     -0.2116
     25  CA        43.6180   11.4480   40.5930 C.3   568  PRO568      0.1372
     26  C         45.1090   11.3180   40.7890 C.2   568  PRO568      0.2244
     27  O         45.7960   12.3450   40.8610 O.2   568  PRO568     -0.2868
     28  CB        43.2470   11.4170   39.1110 C.3   568  PRO568      0.0268
     29  CG        43.2840   12.7800   38.6650 C.3   568  PRO568      0.0207
     30  CD        43.0200   13.6640   39.8560 C.3   568  PRO568      0.0892
     31  N         48.9710   10.1730   39.6150 N.3   570  TRP570     -0.1241
     32  CA        49.7610   10.0400   38.4150 C.3   570  TRP570      0.1605
     33  C         50.9020    9.1780   38.8330 C.2   570  TRP570      0.2264
     34  O         51.9550    9.6700   39.1670 O.2   570  TRP570     -0.2867
     35  CB        50.2820   11.3940   37.9610 C.3   570  TRP570      0.0550
     36  CG        51.2490   11.3850   36.7980 C.ar  570  TRP570      0.0003
     37  CD1       52.5220   10.8920   36.7710 C.ar  570  TRP570      0.0946
     38  CD2       51.0220   11.9580   35.5230 C.ar  570  TRP570      0.0152
     39  NE1       53.0860   11.1020   35.5510 N.ar  570  TRP570     -0.2442
     40  CE2       52.1810   11.7520   34.7590 C.ar  570  TRP570      0.0810
     41  CE3       49.9290   12.5970   34.9330 C.ar  570  TRP570      0.0012
     42  CZ2       52.2870   12.1760   33.4400 C.ar  570  TRP570      0.0191
     43  CZ3       50.0320   13.0290   33.6230 C.ar  570  TRP570      0.0001
     44  CH2       51.2020   12.8180   32.8910 C.ar  570  TRP570      0.0015
     45  N         47.2710    6.1650   35.7680 N.3   589  ILE589     -0.1245
     46  CA        46.4900    7.1690   36.4840 C.3   589  ILE589      0.1561
     47  C         45.3480    6.4680   37.1800 C.2   589  ILE589      0.2260
     48  O         44.3670    6.1220   36.5300 O.2   589  ILE589     -0.2867
     49  CB        45.7970    8.1540   35.5170 C.3   589  ILE589      0.0252
     50  CG1       46.7330    9.2760   35.0720 C.3   589  ILE589      0.0019
     51  CG2       44.5470    8.7580   36.1480 C.3   589  ILE589      0.0019
     52  CD1       46.2600    9.9740   33.7710 C.3   589  ILE589      0.0001
     53  N         42.1070    6.7560   39.7060 N.3   591  LYS591     -0.1245
     54  CA        41.1800    7.8650   39.8890 C.3   591  LYS591      0.1561
     55  C         39.8440    7.4000   40.4420 C.2   591  LYS591      0.2260
     56  O         39.3690    6.3400   40.0930 O.2   591  LYS591     -0.2867
     57  CB        40.9950    8.5650   38.5540 C.3   591  LYS591      0.0271
     58  CG        39.8320    9.5500   38.4160 C.3   591  LYS591      0.0035
     59  CD        39.8820   10.1060   36.9700 C.3   591  LYS591      0.0206
     60  CE        38.5440   10.5580   36.3840 C.3   591  LYS591      0.1093
     61  NZ        38.6240   10.7390   34.8930 N.3   591  LYS591     -0.1314
     62  N         33.7480    5.7370   29.7080 N.3   599  ASP599     -0.1239
     63  CA        34.9640    5.8900   28.9200 C.3   599  ASP599      0.1674
     64  C         35.1840    4.6260   28.0930 C.2   599  ASP599      0.2266
     65  O         35.1470    4.6900   26.8630 O.2   599  ASP599     -0.2867
     66  CB        36.1740    6.1740   29.8140 C.3   599  ASP599      0.1410
     67  CG        36.1470    7.5800   30.4270 C.2   599  ASP599      0.3668
     68  OD1       35.0430    8.1420   30.5950 O.co2 599  ASP599     -0.2456
     69  OD2       37.2390    8.1180   30.7470 O.co2 599  ASP599     -0.2456
     70  N         43.3100    5.2880   24.4190 N.3   625  TYR625     -0.1241
     71  CA        44.2120    4.8900   25.5140 C.3   625  TYR625      0.1605
     72  C         43.6030    3.8680   26.4590 C.2   625  TYR625      0.2264
     73  O         42.4020    3.8140   26.6520 O.2   625  TYR625     -0.2867
     74  CB        44.6560    6.1310   26.3350 C.3   625  TYR625      0.0534
     75  CG        43.4930    6.9850   26.7870 C.ar  625  TYR625     -0.0201
     76  CD1       42.9530    7.9470   25.9490 C.ar  625  TYR625     -0.0009
     77  CD2       42.9030    6.7950   28.0220 C.ar  625  TYR625     -0.0009
     78  CE1       41.8670    8.6900   26.3160 C.ar  625  TYR625      0.0417
     79  CE2       41.8260    7.5600   28.4160 C.ar  625  TYR625      0.0417
     80  CZ        41.3180    8.5060   27.5480 C.ar  625  TYR625      0.1957
     81  OH        40.2450    9.2670   27.8930 O.3   625  TYR625     -0.2866
     82  N         43.7600    4.6150   34.1240 N.3   637  ILE637     -0.1231
     83  CA        43.8770    5.1520   32.7610 C.3   637  ILE637      0.1692
     84  C         45.3100    5.2330   32.3040 C.2   637  ILE637      0.2592
     85  O         46.1040    5.9170   32.9240 O.2   637  ILE637     -0.2718
     86  CB        43.3810    6.5950   32.6800 C.3   637  ILE637      0.0266
     87  CG1       41.8740    6.6590   32.8090 C.3   637  ILE637      0.0019
     88  CG2       43.8140    7.2540   31.3800 C.3   637  ILE637      0.0020
     89  CD1       41.4380    6.7700   34.2310 C.3   637  ILE637      0.0001
     90  N         45.6380    4.6110   31.1810 N.am  638  GLU638     -0.1966
     91  CA        47.0040    4.6840   30.6340 C.3   638  GLU638      0.1733
     92  C         47.4540    6.1250   30.4060 C.2   638  GLU638      0.2616
     93  O         46.6610    6.9570   29.9630 O.2   638  GLU638     -0.2715
     94  CB        47.0420    3.9480   29.3050 C.3   638  GLU638      0.0429
     95  CG        48.3990    3.7900   28.6390 C.3   638  GLU638      0.1163
     96  CD        48.2370    3.3060   27.2100 C.2   638  GLU638      0.3649
     97  OE1       47.0950    3.3350   26.7000 O.co2 638  GLU638     -0.2457
     98  OE2       49.2350    2.8860   26.5910 O.co2 638  GLU638     -0.2457
     99  N         48.7230    6.4110   30.6930 N.am  639  ILE639     -0.1963
    100  CA        49.2850    7.7360   30.4410 C.3   639  ILE639      0.1727
    101  C         49.9420    7.7620   29.0720 C.2   639  ILE639      0.2616
    102  O         50.9840    7.1320   28.8730 O.2   639  ILE639     -0.2715
    103  CB        50.3760    8.1690   31.4530 C.3   639  ILE639      0.0290
    104  CG1       49.8380    8.3010   32.8800 C.3   639  ILE639      0.0022
    105  CG2       50.8930    9.5180   31.0480 C.3   639  ILE639      0.0023
    106  CD1       50.9130    8.2530   33.9270 C.3   639  ILE639      0.0001
    107  N         49.3580    8.4980   28.1280 N.am  640  VAL640     -0.1977
    108  CA        50.0430    8.6580   26.8700 C.3   640  VAL640      0.1596
    109  C         51.3090    9.4310   27.1120 C.2   640  VAL640      0.2287
    110  O         51.2890   10.4990   27.6910 O.2   640  VAL640     -0.2864
    111  CB        49.2380    9.3540   25.7870 C.3   640  VAL640      0.0276
    112  CG1       50.0930    9.4420   24.5140 C.3   640  VAL640      0.0022
    113  CG2       47.9550    8.5800   25.4980 C.3   640  VAL640      0.0022
    114  N         52.9920   14.0300   26.2100 N.3   643  ALA643     -0.1231
    115  CA        51.6570   14.5300   25.9330 C.3   643  ALA643      0.1694
    116  C         51.3600   15.7730   26.7500 C.2   643  ALA643      0.2593
    117  O         51.7990   15.8820   27.8850 O.2   643  ALA643     -0.2718
    118  CB        50.6490   13.4470   26.2480 C.3   643  ALA643      0.0304
    119  N         50.6130   16.7140   26.1790 N.am  644  THR644     -0.1939
    120  CA        50.2260   17.9260   26.9070 C.3   644  THR644      0.2028
    121  C         48.8560   18.4000   26.5140 C.2   644  THR644      0.2642
    122  O         48.4820   18.3650   25.3360 O.2   644  THR644     -0.2714
    123  CB        51.1660   19.1250   26.6620 C.3   644  THR644      0.1808
    124  OG1       52.5110   18.6720   26.5190 O.3   644  THR644     -0.2208
    125  CG2       51.0890   20.0760   27.8220 C.3   644  THR644      0.0379
    126  N         48.1280   18.8690   27.5200 N.am  645  THR645     -0.1950
    127  CA        46.8250   19.4680   27.3300 C.3   645  THR645      0.1897
    128  C         46.9450   20.7030   26.4820 C.2   645  THR645      0.2313
    129  O         47.9430   21.4020   26.5550 O.2   645  THR645     -0.2863
    130  CB        46.2310   19.8610   28.6780 C.3   645  THR645      0.1794
    131  OG1       45.4730   18.7610   29.1840 O.3   645  THR645     -0.2208
    132  CG2       45.3380   21.0510   28.5460 C.3   645  THR645      0.0378
    133  N         46.9900   23.7050   28.8610 N.3   648  LYS648     -0.1245
    134  CA        48.3490   23.9240   29.3960 C.3   648  LYS648      0.1561
    135  C         49.2490   24.6380   28.3800 C.2   648  LYS648      0.2260
    136  O         49.9960   25.5350   28.7550 O.2   648  LYS648     -0.2867
    137  CB        49.0080   22.6010   29.8470 C.3   648  LYS648      0.0271
    138  CG        49.1530   22.4140   31.3770 C.3   648  LYS648      0.0035
    139  CD        47.8230   22.5220   32.1530 C.3   648  LYS648      0.0206
    140  CE        48.0450   22.6300   33.6800 C.3   648  LYS648      0.1093
    141  NZ        48.6240   23.9500   34.1170 N.3   648  LYS648     -0.1314
    142  N         40.2740   19.0960   28.2030 N.3   709  ASN709     -0.1240
    143  CA        39.9310   17.7360   27.8810 C.3   709  ASN709      0.1653
    144  C         40.5320   17.2870   26.5620 C.2   709  ASN709      0.2266
    145  O         40.2000   16.1980   26.1120 O.2   709  ASN709     -0.2867
    146  CB        38.4110   17.5790   27.8170 C.3   709  ASN709      0.1155
    147  CG        37.7460   17.6610   29.1840 C.2   709  ASN709      0.2627
    148  OD1       36.6400   18.2040   29.3010 O.2   709  ASN709     -0.2716
    149  ND2       38.3960   17.1060   30.2200 N.am  709  ASN709     -0.0877
    150  N         44.2000   16.8950   24.2420 N.3   711  MET711     -0.1245
    151  CA        45.6490   16.9050   24.2990 C.3   711  MET711      0.1570
    152  C         46.2620   16.6680   22.9190 C.2   711  MET711      0.2261
    153  O         45.5720   16.3430   21.9630 O.2   711  MET711     -0.2867
    154  CB        46.1440   15.8320   25.2680 C.3   711  MET711      0.0387
    155  CG        45.5780   15.9400   26.6710 C.3   711  MET711      0.0595
    156  SD        46.2210   14.6290   27.7220 S.3   711  MET711     -0.1393
    157  CE        47.9470   15.0020   27.8930 C.3   711  MET711      0.0692
    158  N         44.3310   14.2100   20.5500 N.3   719  PHE719     -0.1241
    159  CA        43.3450   13.2440   21.0390 C.3   719  PHE719      0.1605
    160  C         42.5420   13.6860   22.2710 C.2   719  PHE719      0.2264
    161  O         43.0780   14.2970   23.2110 O.2   719  PHE719     -0.2867
    162  CB        44.0250   11.9050   21.3410 C.3   719  PHE719      0.0534
    163  CG        44.9660   11.9620   22.4810 C.ar  719  PHE719     -0.0203
    164  CD1       46.2340   12.4580   22.3180 C.ar  719  PHE719     -0.0042
    165  CD2       44.5800   11.5320   23.7330 C.ar  719  PHE719     -0.0042
    166  CE1       47.1190   12.5220   23.4060 C.ar  719  PHE719     -0.0003
    167  CE2       45.4570   11.5950   24.8120 C.ar  719  PHE719     -0.0003
    168  CZ        46.7150   12.0920   24.6460 C.ar  719  PHE719     -0.0000
    169  N         40.2240   13.1460   25.7480 N.3   721  ILE721     -0.1231
    170  CA        40.3550   12.3740   26.9540 C.3   721  ILE721      0.1692
    171  C         39.1490   12.6130   27.8350 C.2   721  ILE721      0.2592
    172  O         38.2990   13.3920   27.4890 O.2   721  ILE721     -0.2718
    173  CB        41.6220   12.7350   27.7250 C.3   721  ILE721      0.0266
    174  CG1       41.5940   14.2090   28.1860 C.3   721  ILE721      0.0019
    175  CG2       42.8140   12.4250   26.9000 C.3   721  ILE721      0.0020
    176  CD1       42.4460   14.4840   29.4880 C.3   721  ILE721      0.0001
    177  N         39.1030   11.9230   28.9680 N.am  722  ASP722     -0.1974
    178  CA        38.0420   12.0520   29.9590 C.3   722  ASP722      0.1709
    179  C         36.6370   12.1820   29.4020 C.2   722  ASP722      0.2293
    180  O         36.0050   13.2150   29.5520 O.2   722  ASP722     -0.2864
    181  CB        38.3260   13.2380   30.8830 C.3   722  ASP722      0.1436
    182  CG        37.5030   13.1870   32.1510 C.2   722  ASP722      0.3671
    183  OD1       36.7530   12.2070   32.2910 O.co2 722  ASP722     -0.2456
    184  OD2       37.6070   14.0950   33.0090 O.co2 722  ASP722     -0.2456
@<TRIPOS>BOND
     1   158   159    1
     2   159   162    1
     3   159   160    1
     4   162   163    1
     5   153   152    2
     6   160   161    2
     7   164   163   ar
     8   164   166   ar
     9   163   165   ar
    10   152   151    1
    11   166   168   ar
    12   165   167   ar
    13   150   151    1
    14   151   154    1
    15    70    71    1
    16   112   111    1
    17   168   167   ar
    18   154   155    1
    19   122   121    2
    20   113   111    1
    21    71    74    1
    22    71    72    1
    23   169   170    1
    24   111   108    1
    25   115   114    1
    26   115   118    1
    27   115   116    1
    28    76    78   ar
    29    76    75   ar
    30   145   144    2
    31   119   116   am
    32   119   120    1
    33    78    80   ar
    34    74    75    1
    35    72    73    2
    36   128   129    2
    37   128   127    1
    38   121   120    1
    39   121   126   am
    40   124   123    1
    41   144   143    1
    42    98    96   ar
    43   123   120    1
    44   123   125    1
    45   155   156    1
    46    97    96   ar
    47   116   117    2
    48    75    77   ar
    49    65    64    2
    50   108   109    1
    51   108   107    1
    52   175   173    1
    53   170   173    1
    54   170   171    1
    55   109   110    2
    56    96    95    1
    57   127   126    1
    58   127   130    1
    59   172   171    2
    60    80    81    1
    61    80    79   ar
    62   156   157    1
    63   173   174    1
    64   146   143    1
    65   146   147    1
    66   171   177   am
    67   143   142    1
    68    77    79   ar
    69    64    63    1
    70   107   101   am
    71   174   176    1
    72   135   136    2
    73   135   134    1
    74   132   130    1
    75    95    94    1
    76   130   131    1
    77   133   134    1
    78   102   101    2
    79    63    62    1
    80    63    66    1
    81   177   178    1
    82   101   100    1
    83   147   148    2
    84   147   149   am
    85    94    91    1
    86   134   137    1
    87   179   180    2
    88   179   178    1
    89    66    67    1
    90   137   138    1
    91   178   181    1
    92    93    92    2
    93    92    91    1
    94    92    99   am
    95    67    68   ar
    96    67    69   ar
    97   100    99    1
    98   100   103    1
    99    91    90    1
   100   181   182    1
   101   105   103    1
   102    90    84   am
   103   138   139    1
   104    88    86    1
   105   103   104    1
   106   182   183   ar
   107   182   184   ar
   108   139   140    1
   109    84    83    1
   110    84    85    2
   111    86    83    1
   112    86    87    1
   113    83    82    1
   114    87    89    1
   115   104   106    1
   116    44    42   ar
   117    44    43   ar
   118    42    40   ar
   119    43    41   ar
   120   140   141    1
   121    52    50    1
   122    40    38   ar
   123    40    39   ar
   124    61    60    1
   125    41    38   ar
   126     8     7    1
   127    50    49    1
   128    49    51    1
   129    49    46    1
   130    38    36   ar
   131    39    37   ar
   132    45    46    1
   133     7     6    1
   134    60    59    1
   135    46    47    1
   136    48    47    2
   137    37    36   ar
   138    36    35    1
   139    59    58    1
   140     6     5    1
   141    35    32    1
   142    23    22    1
   143     5     2    1
   144    32    33    1
   145    32    31    1
   146    58    57    1
   147    57    54    1
   148    13    14    1
   149    13    10    1
   150    29    28    1
   151    29    30    1
   152    33    34    2
   153    22    21    1
   154    28    25    1
   155     2     3    1
   156     2     1    1
   157    21    20    1
   158     3     4    2
   159    53    54    1
   160    10     9    1
   161    10    11    1
   162    30    24    1
   163    54    55    1
   164    56    55    2
   165    20    19    1
   166    19    16    1
   167    25    26    1
   168    25    24    1
   169    26    27    2
   170    11    12    2
   171    15    16    1
   172    16    17    1
   173    17    18    2
