@<TRIPOS>MOLECULE
tmp/4anvA00.pdb
 202 192 0 0 0
SMALL
GASTEIGER

@<TRIPOS>ATOM
      1  N         53.0560   12.2560   41.2220 N.3   572  LYS572     -0.1245
      2  CA        52.4410   13.4630   41.7720 C.3   572  LYS572      0.1561
      3  C         50.9600   13.2120   42.1080 C.2   572  LYS572      0.2260
      4  O         50.4930   12.0870   42.0430 O.2   572  LYS572     -0.2867
      5  CB        52.6250   14.6610   40.8110 C.3   572  LYS572      0.0271
      6  CG        51.9270   14.5750   39.4310 C.3   572  LYS572      0.0035
      7  CD        52.2020   15.8150   38.5440 C.3   572  LYS572      0.0206
      8  CE        51.3470   15.8760   37.2410 C.3   572  LYS572      0.1093
      9  NZ        50.1460   16.7950   37.3140 N.3   572  LYS572     -0.1314
     10  N         47.4620   15.0770   40.7900 N.3   574  MET574     -0.1230
     11  CA        47.1500   16.0110   39.7340 C.3   574  MET574      0.1702
     12  C         46.2750   17.1060   40.3090 C.2   574  MET574      0.2592
     13  O         45.4720   16.8570   41.2250 O.2   574  MET574     -0.2718
     14  CB        46.5000   15.2920   38.5570 C.3   574  MET574      0.0401
     15  CG        47.4130   14.1990   37.9930 C.3   574  MET574      0.0596
     16  SD        46.7920   13.4220   36.4920 S.3   574  MET574     -0.1393
     17  CE        46.5620   14.8520   35.4010 C.3   574  MET574      0.0692
     18  N         46.4960   18.3220   39.8010 N.am  575  ALA575     -0.1966
     19  CA        45.7670   19.5140   40.2000 C.3   575  ALA575      0.1728
     20  C         44.3970   19.4380   39.5420 C.2   575  ALA575      0.2616
     21  O         44.1990   19.8990   38.4120 O.2   575  ALA575     -0.2715
     22  CB        46.5190   20.7560   39.7730 C.3   575  ALA575      0.0334
     23  N         43.4700   18.8100   40.2520 N.am  576  SER576     -0.1950
     24  CA        42.1580   18.5060   39.7220 C.3   576  SER576      0.1924
     25  C         41.1420   18.2300   40.8700 C.2   576  SER576      0.2314
     26  O         41.4730   17.6650   41.9080 O.2   576  SER576     -0.2863
     27  CB        42.2680   17.3050   38.7480 C.3   576  SER576      0.2116
     28  OG        41.0310   16.5980   38.5890 O.3   576  SER576     -0.2180
     29  N         43.4200   13.0010   41.0170 N.3   580  PRO580     -0.2116
     30  CA        43.9700   11.7900   40.4500 C.3   580  PRO580      0.1372
     31  C         45.4320   11.5930   40.7940 C.2   580  PRO580      0.2244
     32  O         46.1820   12.5590   40.7960 O.2   580  PRO580     -0.2868
     33  CB        43.8350   12.0000   38.9270 C.3   580  PRO580      0.0268
     34  CG        42.9440   13.0950   38.7320 C.3   580  PRO580      0.0207
     35  CD        42.9690   13.9350   39.9740 C.3   580  PRO580      0.0892
     36  N         48.7590   10.7000   39.3860 N.3   582  TRP582     -0.1241
     37  CA        49.8630   10.4190   38.4300 C.3   582  TRP582      0.1605
     38  C         50.9900    9.5380   38.9730 C.2   582  TRP582      0.2264
     39  O         51.9010   10.0560   39.5990 O.2   582  TRP582     -0.2867
     40  CB        50.5070   11.7590   38.0710 C.3   582  TRP582      0.0550
     41  CG        51.5460   11.7650   36.9580 C.ar  582  TRP582      0.0003
     42  CD1       52.8660   11.4150   37.0510 C.ar  582  TRP582      0.0946
     43  CD2       51.3520   12.2150   35.6280 C.ar  582  TRP582      0.0152
     44  NE1       53.4930   11.5880   35.8520 N.ar  582  TRP582     -0.2442
     45  CE2       52.5860   12.0720   34.9520 C.ar  582  TRP582      0.0810
     46  CE3       50.2430   12.6820   34.9180 C.ar  582  TRP582      0.0012
     47  CZ2       52.7490   12.4280   33.6100 C.ar  582  TRP582      0.0191
     48  CZ3       50.3890   13.0120   33.6060 C.ar  582  TRP582      0.0001
     49  CH2       51.6330   12.8890   32.9490 C.ar  582  TRP582      0.0015
     50  N         47.6910    6.6330   35.5080 N.3   601  ILE601     -0.1245
     51  CA        46.8700    7.4840   36.3410 C.3   601  ILE601      0.1561
     52  C         45.8010    6.6510   37.0420 C.2   601  ILE601      0.2260
     53  O         45.0480    5.9170   36.4070 O.2   601  ILE601     -0.2867
     54  CB        46.1650    8.5790   35.5280 C.3   601  ILE601      0.0252
     55  CG1       47.1620    9.6570   35.0720 C.3   601  ILE601      0.0019
     56  CG2       45.0850    9.1660   36.3320 C.3   601  ILE601      0.0019
     57  CD1       46.6130   10.6270   34.1020 C.3   601  ILE601      0.0001
     58  N         42.3910    7.0730   39.3810 N.3   603  LYS603     -0.1245
     59  CA        41.4140    8.0360   39.9390 C.3   603  LYS603      0.1561
     60  C         40.1660    7.4280   40.6160 C.2   603  LYS603      0.2260
     61  O         39.4790    6.5720   40.0400 O.2   603  LYS603     -0.2867
     62  CB        41.0730    9.1980   38.9490 C.3   603  LYS603      0.0271
     63  CG        40.0230    8.9730   37.8940 C.3   603  LYS603      0.0035
     64  CD        39.2690   10.2600   37.5980 C.3   603  LYS603      0.0206
     65  CE        38.0950   10.0860   36.6100 C.3   603  LYS603      0.1093
     66  NZ        38.4040   10.1750   35.1260 N.3   603  LYS603     -0.1314
     67  N         33.6970    6.1870   29.7300 N.3   611  ASP611     -0.1239
     68  CA        34.9360    6.3400   29.0340 C.3   611  ASP611      0.1674
     69  C         35.3570    5.1080   28.2610 C.2   611  ASP611      0.2266
     70  O         35.7840    5.1960   27.0910 O.2   611  ASP611     -0.2867
     71  CB        36.0600    6.5970   30.0320 C.3   611  ASP611      0.1410
     72  CG        36.3030    8.0820   30.3100 C.2   611  ASP611      0.3668
     73  OD1       35.6010    8.6330   31.1780 O.co2 611  ASP611     -0.2456
     74  OD2       37.2730    8.6510   29.7450 O.co2 611  ASP611     -0.2456
     75  N         43.4030    6.0750   24.3590 N.3   637  TYR637     -0.1241
     76  CA        44.3320    5.7410   25.4470 C.3   637  TYR637      0.1605
     77  C         43.7080    4.6570   26.2790 C.2   637  TYR637      0.2264
     78  O         42.5320    4.5840   26.3280 O.2   637  TYR637     -0.2867
     79  CB        44.6430    6.9960   26.3200 C.3   637  TYR637      0.0534
     80  CG        43.4200    7.7230   26.8590 C.ar  637  TYR637     -0.0201
     81  CD1       42.7590    7.2980   28.0250 C.ar  637  TYR637     -0.0009
     82  CD2       42.9550    8.8460   26.2200 C.ar  637  TYR637     -0.0009
     83  CE1       41.6220    7.9670   28.4760 C.ar  637  TYR637      0.0417
     84  CE2       41.8750    9.5010   26.6420 C.ar  637  TYR637      0.0417
     85  CZ        41.2000    9.0900   27.7640 C.ar  637  TYR637      0.1957
     86  OH        40.1070    9.8230   28.1470 O.3   637  TYR637     -0.2866
     87  N         44.3550    4.5830   33.8390 N.3   649  ILE649     -0.1231
     88  CA        44.3560    5.2940   32.5820 C.3   649  ILE649      0.1692
     89  C         45.8020    5.3700   32.1080 C.2   649  ILE649      0.2592
     90  O         46.7250    5.5330   32.9020 O.2   649  ILE649     -0.2718
     91  CB        43.7640    6.6860   32.7910 C.3   649  ILE649      0.0266
     92  CG1       42.2690    6.5640   33.1680 C.3   649  ILE649      0.0019
     93  CG2       43.9440    7.5140   31.5860 C.3   649  ILE649      0.0020
     94  CD1       41.5320    7.8370   33.7360 C.3   649  ILE649      0.0001
     95  N         46.0200    5.2260   30.8050 N.am  650  GLU650     -0.1966
     96  CA        47.3520    5.2650   30.2700 C.3   650  GLU650      0.1733
     97  C         47.8370    6.7030   30.2180 C.2   650  GLU650      0.2616
     98  O         47.1390    7.5350   29.6860 O.2   650  GLU650     -0.2715
     99  CB        47.3170    4.6930   28.8670 C.3   650  GLU650      0.0429
    100  CG        48.6400    4.4460   28.2110 C.3   650  GLU650      0.1163
    101  CD        48.4910    4.1010   26.7430 C.2   650  GLU650      0.3649
    102  OE1       47.3670    3.8930   26.2420 O.co2 650  GLU650     -0.2457
    103  OE2       49.5110    4.0880   26.0590 O.co2 650  GLU650     -0.2457
    104  N         49.0260    6.9800   30.7770 N.am  651  ILE651     -0.1963
    105  CA        49.7660    8.2430   30.4840 C.3   651  ILE651      0.1727
    106  C         50.3730    8.0890   29.0820 C.2   651  ILE651      0.2616
    107  O         51.1890    7.1960   28.8560 O.2   651  ILE651     -0.2715
    108  CB        50.8820    8.5830   31.5780 C.3   651  ILE651      0.0290
    109  CG1       50.2390    8.8150   32.9600 C.3   651  ILE651      0.0022
    110  CG2       51.7950    9.8290   31.1770 C.3   651  ILE651      0.0023
    111  CD1       51.2030    8.7300   34.0620 C.3   651  ILE651      0.0001
    112  N         49.8900    8.8970   28.1430 N.am  652  VAL652     -0.1977
    113  CA        50.5170    9.1210   26.8540 C.3   652  VAL652      0.1596
    114  C         51.7900   10.0170   27.0510 C.2   652  VAL652      0.2287
    115  O         51.7060   11.0910   27.6340 O.2   652  VAL652     -0.2864
    116  CB        49.5500    9.8670   25.9110 C.3   652  VAL652      0.0276
    117  CG1       50.2270   10.1750   24.5690 C.3   652  VAL652      0.0022
    118  CG2       48.2090    9.1040   25.7150 C.3   652  VAL652      0.0022
    119  N         53.0490   14.5750   26.3320 N.3   655  ALA655     -0.1231
    120  CA        51.7080   15.0820   26.0480 C.3   655  ALA655      0.1694
    121  C         51.2860   16.0910   27.1000 C.2   655  ALA655      0.2593
    122  O         51.4460   15.8300   28.3020 O.2   655  ALA655     -0.2718
    123  CB        50.7320   13.9700   26.0360 C.3   655  ALA655      0.0304
    124  N         50.7770   17.2480   26.6880 N.am  656  THR656     -0.1939
    125  CA        50.1530   18.2010   27.5960 C.3   656  THR656      0.2028
    126  C         48.8330   18.6520   27.0870 C.2   656  THR656      0.2642
    127  O         48.5400   18.4880   25.9520 O.2   656  THR656     -0.2714
    128  CB        50.9470   19.4930   27.8280 C.3   656  THR656      0.1808
    129  OG1       51.8850   19.7090   26.7930 O.3   656  THR656     -0.2208
    130  CG2       51.6090   19.5000   29.1810 C.3   656  THR656      0.0379
    131  N         48.0550   19.2770   27.9440 N.am  657  THR657     -0.1950
    132  CA        46.7910   19.7780   27.5140 C.3   657  THR657      0.1897
    133  C         46.9430   21.0650   26.8070 C.2   657  THR657      0.2313
    134  O         47.9510   21.6840   26.8670 O.2   657  THR657     -0.2863
    135  CB        45.7910   19.9580   28.6210 C.3   657  THR657      0.1794
    136  OG1       45.9790   21.2210   29.2120 O.3   657  THR657     -0.2208
    137  CG2       45.9020   18.9420   29.6070 C.3   657  THR657      0.0378
    138  N         45.0650   23.7070   27.1240 N.3   659  ALA659     -0.1231
    139  CA        44.9890   24.7150   28.1840 C.3   659  ALA659      0.1694
    140  C         46.3410   25.1220   28.7830 C.2   659  ALA659      0.2591
    141  O         46.5850   26.2950   28.9600 O.2   659  ALA659     -0.2718
    142  CB        44.0390   24.2500   29.2870 C.3   659  ALA659      0.0304
    143  N         47.2120   24.1550   29.0710 N.am  660  LYS660     -0.1980
    144  CA        48.5140   24.4170   29.6600 C.3   660  LYS660      0.1596
    145  C         49.3980   25.1620   28.6800 C.2   660  LYS660      0.2287
    146  O         50.2050   26.0020   29.0770 O.2   660  LYS660     -0.2864
    147  CB        49.2030   23.1070   30.0270 C.3   660  LYS660      0.0298
    148  CG        49.6940   22.9700   31.4850 C.3   660  LYS660      0.0038
    149  CD        49.6940   21.4560   31.9290 C.3   660  LYS660      0.0206
    150  CE        48.4340   21.0790   32.6680 C.3   660  LYS660      0.1093
    151  NZ        47.2820   21.9110   32.1750 N.3   660  LYS660     -0.1314
    152  N         40.9610   22.2370   28.4040 N.3   720  ASP720     -0.1225
    153  CA        41.6590   21.5470   29.4840 C.3   720  ASP720      0.1805
    154  C         41.5180   20.0030   29.3080 C.2   720  ASP720      0.2597
    155  O         42.2450   19.2030   29.9290 O.2   720  ASP720     -0.2718
    156  CB        41.1870   22.0440   30.8840 C.3   720  ASP720      0.1424
    157  CG        39.6580   21.9540   31.0960 C.2   720  ASP720      0.3668
    158  OD1       38.9020   21.7780   30.1030 O.co2 720  ASP720     -0.2456
    159  OD2       39.1990   22.0850   32.2690 O.co2 720  ASP720     -0.2456
    160  N         40.5530   19.6220   28.4670 N.am  721  ASN721     -0.1974
    161  CA        40.2350   18.2400   28.1390 C.3   721  ASN721      0.1688
    162  C         40.6700   17.8030   26.7430 C.2   721  ASN721      0.2292
    163  O         40.1850   16.7980   26.2460 O.2   721  ASN721     -0.2864
    164  CB        38.7320   18.0740   28.2080 C.3   721  ASN721      0.1181
    165  CG        38.2030   18.0750   29.6460 C.2   721  ASN721      0.2629
    166  OD1       37.1120   18.5710   29.8920 O.2   721  ASN721     -0.2716
    167  ND2       38.9610   17.4910   30.5750 N.am  721  ASN721     -0.0877
    168  N         44.3110   17.3100   24.5640 N.3   723  MET723     -0.1245
    169  CA        45.7200   17.1950   24.6720 C.3   723  MET723      0.1570
    170  C         46.3780   17.1270   23.2700 C.2   723  MET723      0.2261
    171  O         45.6920   17.0000   22.2450 O.2   723  MET723     -0.2867
    172  CB        46.0270   15.9340   25.4810 C.3   723  MET723      0.0387
    173  CG        45.3430   15.8450   26.8800 C.3   723  MET723      0.0595
    174  SD        46.3140   14.9110   28.0820 S.3   723  MET723     -0.1393
    175  CE        47.8210   15.7800   28.1480 C.3   723  MET723      0.0692
    176  N         44.6260   14.7230   20.8920 N.3   731  PHE731     -0.1241
    177  CA        43.5710   13.8880   21.4400 C.3   731  PHE731      0.1605
    178  C         42.6940   14.4380   22.5610 C.2   731  PHE731      0.2264
    179  O         43.1700   15.0970   23.4760 O.2   731  PHE731     -0.2867
    180  CB        44.1270   12.5380   21.8460 C.3   731  PHE731      0.0534
    181  CG        45.1860   12.5810   22.8980 C.ar  731  PHE731     -0.0203
    182  CD1       46.4460   13.0740   22.6280 C.ar  731  PHE731     -0.0042
    183  CD2       44.9350   12.0860   24.1620 C.ar  731  PHE731     -0.0042
    184  CE1       47.4090   13.0980   23.6110 C.ar  731  PHE731     -0.0003
    185  CE2       45.8980   12.0660   25.1220 C.ar  731  PHE731     -0.0003
    186  CZ        47.1190   12.5840   24.8730 C.ar  731  PHE731     -0.0000
    187  N         40.3540   13.8100   25.9070 N.3   733  ILE733     -0.1231
    188  CA        40.4210   12.9970   27.1070 C.3   733  ILE733      0.1692
    189  C         39.1420   13.1860   27.9170 C.2   733  ILE733      0.2592
    190  O         38.4140   14.1080   27.7130 O.2   733  ILE733     -0.2718
    191  CB        41.6300   13.2930   27.9950 C.3   733  ILE733      0.0266
    192  CG1       41.6890   14.7410   28.4780 C.3   733  ILE733      0.0019
    193  CG2       42.8890   12.9190   27.3310 C.3   733  ILE733      0.0020
    194  CD1       42.5980   14.9190   29.6410 C.3   733  ILE733      0.0001
    195  N         38.8640   12.2510   28.8020 N.am  734  ASP734     -0.1974
    196  CA        37.8600   12.4080   29.8780 C.3   734  ASP734      0.1709
    197  C         36.4110   12.5420   29.4410 C.2   734  ASP734      0.2293
    198  O         35.7520   13.5390   29.7100 O.2   734  ASP734     -0.2864
    199  CB        38.2580   13.5780   30.7620 C.3   734  ASP734      0.1436
    200  CG        37.4350   13.6580   32.0200 C.2   734  ASP734      0.3671
    201  OD1       36.8490   12.6070   32.4180 O.co2 734  ASP734     -0.2456
    202  OD2       37.4110   14.7730   32.6290 O.co2 734  ASP734     -0.2456
@<TRIPOS>BOND
     1   176   177    1
     2   177   180    1
     3   177   178    1
     4   180   181    1
     5   171   170    2
     6   178   179    2
     7   182   181   ar
     8   182   184   ar
     9   181   183   ar
    10   170   169    1
    11   184   186   ar
    12   183   185   ar
    13    75    76    1
    14   168   169    1
    15   117   116    1
    16   169   172    1
    17   186   185   ar
    18    76    77    1
    19    76    79    1
    20   172   173    1
    21   118   116    1
    22   187   188    1
    23   116   113    1
    24   127   126    2
    25   123   120    1
    26   120   119    1
    27   120   121    1
    28   103   101   ar
    29    82    84   ar
    30    82    80   ar
    31   102   101   ar
    32   163   162    2
    33    77    78    2
    34    79    80    1
    35    84    85   ar
    36   124   121   am
    37   124   125    1
    38   101   100    1
    39   162   161    1
    40   129   128    1
    41   133   134    2
    42   133   132    1
    43   113   114    1
    44   113   112    1
    45    80    81   ar
    46   173   174    1
    47   114   115    2
    48   126   125    1
    49   126   131   am
    50    70    69    2
    51   121   122    2
    52   188   189    1
    53   188   191    1
    54   138   139    1
    55   193   191    1
    56   132   131    1
    57   132   135    1
    58   125   128    1
    59   190   189    2
    60    85    86    1
    61    85    83   ar
    62   128   130    1
    63   189   195   am
    64   191   192    1
    65    81    83   ar
    66   174   175    1
    67   161   164    1
    68   161   160    1
    69   112   106   am
    70   139   140    1
    71   139   142    1
    72   164   165    1
    73   100    99    1
    74    69    68    1
    75   152   153    1
    76   160   154   am
    77   192   194    1
    78   135   136    1
    79   135   137    1
    80   145   146    2
    81   145   144    1
    82   140   141    2
    83   140   143   am
    84   195   196    1
    85   107   106    2
    86    99    96    1
    87    68    67    1
    88    68    71    1
    89   143   144    1
    90   106   105    1
    91   154   153    1
    92   154   155    2
    93   197   198    2
    94   197   196    1
    95   153   156    1
    96   165   166    2
    97   165   167   am
    98   144   147    1
    99    98    97    2
   100    74    72   ar
   101   196   199    1
   102   147   148    1
   103    71    72    1
   104   158   157   ar
   105    97    96    1
   106    97   104   am
   107    96    95    1
   108    72    73   ar
   109   105   104    1
   110   105   108    1
   111   199   200    1
   112    95    89   am
   113   156   157    1
   114   157   159   ar
   115   110   108    1
   116   148   149    1
   117   108   109    1
   118    93    91    1
   119   149   150    1
   120   200   201   ar
   121   200   202   ar
   122    89    88    1
   123    89    90    2
   124   151   150    1
   125    88    91    1
   126    88    87    1
   127    91    92    1
   128    49    48   ar
   129    49    47   ar
   130   109   111    1
   131    92    94    1
   132    48    46   ar
   133    47    45   ar
   134    57    55    1
   135    46    43   ar
   136    45    43   ar
   137    45    44   ar
   138    55    54    1
   139    66    65    1
   140    17    16    1
   141    50    51    1
   142    54    56    1
   143    54    51    1
   144    43    41   ar
   145    44    42   ar
   146    51    52    1
   147    53    52    2
   148    16    15    1
   149    65    64    1
   150    41    42   ar
   151    41    40    1
   152     8     9    1
   153     8     7    1
   154    64    63    1
   155    63    62    1
   156    15    14    1
   157    40    37    1
   158    21    20    2
   159    37    38    1
   160    37    36    1
   161     7     6    1
   162    14    11    1
   163    28    27    1
   164    34    33    1
   165    34    35    1
   166    27    24    1
   167    33    30    1
   168    62    59    1
   169    38    39    2
   170    58    59    1
   171     6     5    1
   172    20    19    1
   173    20    23   am
   174    24    23    1
   175    24    25    1
   176    11    12    1
   177    11    10    1
   178    22    19    1
   179    18    19    1
   180    18    12   am
   181    59    60    1
   182    35    29    1
   183    61    60    2
   184    12    13    2
   185    30    31    1
   186    30    29    1
   187    31    32    2
   188     5     2    1
   189    25    26    2
   190     1     2    1
   191     2     3    1
   192     4     3    2
