@<TRIPOS>MOLECULE
tmp/4anwA00.pdb
 197 187 0 0 0
SMALL
GASTEIGER

@<TRIPOS>ATOM
      1  N         52.6040   12.9340   41.4970 N.3   560  LYS560     -0.1245
      2  CA        51.9390   14.1370   42.0250 C.3   560  LYS560      0.1561
      3  C         50.4030   14.1560   41.9770 C.2   560  LYS560      0.2260
      4  O         49.7900   13.3650   41.3460 O.2   560  LYS560     -0.2867
      5  CB        52.4620   15.4070   41.3170 C.3   560  LYS560      0.0271
      6  CG        52.6600   15.2870   39.8070 C.3   560  LYS560      0.0035
      7  CD        51.9040   16.3520   39.0300 C.3   560  LYS560      0.0206
      8  CE        52.3540   16.3270   37.5600 C.3   560  LYS560      0.1093
      9  NZ        51.3840   16.9940   36.6110 N.3   560  LYS560     -0.1314
     10  N         47.0150   16.3700   41.0070 N.3   562  MET562     -0.1230
     11  CA        46.8990   17.0600   39.7450 C.3   562  MET562      0.1702
     12  C         46.0570   18.3040   39.9500 C.2   562  MET562      0.2592
     13  O         45.0890   18.2780   40.6890 O.2   562  MET562     -0.2718
     14  CB        46.3160   16.1340   38.6430 C.3   562  MET562      0.0401
     15  CG        47.2540   14.9570   38.2320 C.3   562  MET562      0.0596
     16  SD        46.8110   13.9530   36.7420 S.3   562  MET562     -0.1393
     17  CE        46.8520   15.1880   35.4350 C.3   562  MET562      0.0692
     18  N         46.4910   19.3800   39.2980 N.am  563  ALA563     -0.1966
     19  CA        45.8040   20.6720   39.1800 C.3   563  ALA563      0.1728
     20  C         44.3540   20.6070   38.7500 C.2   563  ALA563      0.2616
     21  O         43.9740   21.2930   37.7990 O.2   563  ALA563     -0.2715
     22  CB        46.5490   21.5120   38.1690 C.3   563  ALA563      0.0334
     23  N         43.5470   19.8240   39.4740 N.am  564  SER564     -0.1950
     24  CA        42.1560   19.5770   39.1160 C.3   564  SER564      0.1924
     25  C         41.2730   19.4780   40.3400 C.2   564  SER564      0.2314
     26  O         41.6250   18.8100   41.2870 O.2   564  SER564     -0.2863
     27  CB        42.0250   18.2490   38.3370 C.3   564  SER564      0.2116
     28  OG        40.6440   17.9210   38.1160 O.3   564  SER564     -0.2180
     29  N         43.2540   14.0570   40.9110 N.3   568  PRO568     -0.2116
     30  CA        43.7020   12.7660   40.4800 C.3   568  PRO568      0.1372
     31  C         45.1330   12.5770   40.8900 C.2   568  PRO568      0.2244
     32  O         45.8080   13.5630   41.0410 O.2   568  PRO568     -0.2868
     33  CB        43.5930   12.8380   38.9390 C.3   568  PRO568      0.0268
     34  CG        42.7680   14.0110   38.6340 C.3   568  PRO568      0.0207
     35  CD        43.0200   14.9500   39.7580 C.3   568  PRO568      0.0892
     36  N         48.8440   11.3150   39.6560 N.3   570  TRP570     -0.1241
     37  CA        49.6780   11.1400   38.4800 C.3   570  TRP570      0.1605
     38  C         50.8220   10.3150   38.9720 C.2   570  TRP570      0.2264
     39  O         51.7430   10.8390   39.5680 O.2   570  TRP570     -0.2867
     40  CB        50.1820   12.4970   38.0010 C.3   570  TRP570      0.0550
     41  CG        51.2820   12.5520   36.9240 C.ar  570  TRP570      0.0003
     42  CD1       52.5810   12.1320   37.0350 C.ar  570  TRP570      0.0946
     43  CD2       51.1660   13.1290   35.6240 C.ar  570  TRP570      0.0152
     44  NE1       53.2540   12.3820   35.8790 N.ar  570  TRP570     -0.2442
     45  CE2       52.4090   12.9990   34.9960 C.ar  570  TRP570      0.0810
     46  CE3       50.1190   13.7420   34.9210 C.ar  570  TRP570      0.0012
     47  CZ2       52.6380   13.4510   33.7000 C.ar  570  TRP570      0.0191
     48  CZ3       50.3530   14.1950   33.6230 C.ar  570  TRP570      0.0001
     49  CH2       51.5870   14.0360   33.0280 C.ar  570  TRP570      0.0015
     50  N         47.2930    7.7050   35.7100 N.3   589  ILE589     -0.1245
     51  CA        46.4350    8.6320   36.4400 C.3   589  ILE589      0.1561
     52  C         45.3090    7.8810   37.1250 C.2   589  ILE589      0.2260
     53  O         44.4060    7.4410   36.4560 O.2   589  ILE589     -0.2867
     54  CB        45.7290    9.6710   35.4720 C.3   589  ILE589      0.0252
     55  CG1       46.7180   10.6370   34.8490 C.3   589  ILE589      0.0019
     56  CG2       44.5710   10.4540   36.1610 C.3   589  ILE589      0.0019
     57  CD1       46.0450   11.7870   34.1170 C.3   589  ILE589      0.0001
     58  N         41.9280    8.2970   39.3810 N.3   591  LYS591     -0.1245
     59  CA        40.9780    9.3430   39.6850 C.3   591  LYS591      0.1561
     60  C         39.6070    8.8940   40.2460 C.2   591  LYS591      0.2260
     61  O         38.9580    8.0030   39.6810 O.2   591  LYS591     -0.2867
     62  CB        40.8050   10.2180   38.4570 C.3   591  LYS591      0.0271
     63  CG        39.8460   11.3160   38.6420 C.3   591  LYS591      0.0035
     64  CD        39.6800   12.1200   37.3960 C.3   591  LYS591      0.0206
     65  CE        38.9880   11.3110   36.2500 C.3   591  LYS591      0.1093
     66  NZ        38.9840   12.0610   34.9560 N.3   591  LYS591     -0.1314
     67  N         33.6850    7.2700   29.6340 N.3   599  ASP599     -0.1239
     68  CA        34.9310    7.3670   28.9420 C.3   599  ASP599      0.1674
     69  C         35.2540    6.0670   28.2060 C.2   599  ASP599      0.2266
     70  O         35.5210    6.0970   27.0480 O.2   599  ASP599     -0.2867
     71  CB        36.0970    7.6070   29.8770 C.3   599  ASP599      0.1410
     72  CG        36.2400    9.0850   30.3650 C.2   599  ASP599      0.3668
     73  OD1       35.3120    9.5560   31.0450 O.co2 599  ASP599     -0.2456
     74  OD2       37.3380    9.6830   30.1220 O.co2 599  ASP599     -0.2456
     75  N         43.2770    6.6940   24.4450 N.3   625  TYR625     -0.1241
     76  CA        44.0920    6.3080   25.6060 C.3   625  TYR625      0.1605
     77  C         43.3900    5.2600   26.4480 C.2   625  TYR625      0.2264
     78  O         42.1950    5.2500   26.5090 O.2   625  TYR625     -0.2867
     79  CB        44.4180    7.5740   26.4740 C.3   625  TYR625      0.0534
     80  CG        43.2080    8.4050   26.7950 C.ar  625  TYR625     -0.0201
     81  CD1       42.7540    9.4260   25.9470 C.ar  625  TYR625     -0.0009
     82  CD2       42.5220    8.2000   27.9350 C.ar  625  TYR625     -0.0009
     83  CE1       41.5990   10.1800   26.2500 C.ar  625  TYR625      0.0417
     84  CE2       41.4020    8.9050   28.2240 C.ar  625  TYR625      0.0417
     85  CZ        40.9400    9.9030   27.4080 C.ar  625  TYR625      0.1957
     86  OH        39.7860   10.5880   27.8550 O.3   625  TYR625     -0.2866
     87  N         43.5810    5.8340   34.2370 N.3   637  ILE637     -0.1231
     88  CA        43.7370    6.4720   32.9410 C.3   637  ILE637      0.1692
     89  C         45.2050    6.4570   32.5530 C.2   637  ILE637      0.2592
     90  O         46.1110    6.6560   33.3740 O.2   637  ILE637     -0.2718
     91  CB        43.2060    7.9370   32.9590 C.3   637  ILE637      0.0266
     92  CG1       41.6860    7.9390   33.1980 C.3   637  ILE637      0.0019
     93  CG2       43.5570    8.6490   31.6740 C.3   637  ILE637      0.0020
     94  CD1       41.1960    9.1190   33.9480 C.3   637  ILE637      0.0001
     95  N         45.4420    6.1820   31.2750 N.am  638  GLU638     -0.1966
     96  CA        46.7900    6.1750   30.7200 C.3   638  GLU638      0.1733
     97  C         47.3020    7.5910   30.5630 C.2   638  GLU638      0.2616
     98  O         46.6060    8.4530   30.0090 O.2   638  GLU638     -0.2715
     99  CB        46.7820    5.4790   29.3570 C.3   638  GLU638      0.0429
    100  CG        47.8390    5.8960   28.3880 C.3   638  GLU638      0.1163
    101  CD        47.8910    5.0240   27.1420 C.2   638  GLU638      0.3649
    102  OE1       46.8650    4.7210   26.4770 O.co2 638  GLU638     -0.2457
    103  OE2       48.9880    4.6840   26.7990 O.co2 638  GLU638     -0.2457
    104  N         48.5330    7.7860   31.0420 N.am  639  ILE639     -0.1963
    105  CA        49.3170    8.9970   30.7770 C.3   639  ILE639      0.1727
    106  C         49.9550    8.9870   29.3740 C.2   639  ILE639      0.2616
    107  O         50.9230    8.3100   29.1030 O.2   639  ILE639     -0.2715
    108  CB        50.4500    9.2710   31.8630 C.3   639  ILE639      0.0290
    109  CG1       49.8270    9.6610   33.2250 C.3   639  ILE639      0.0022
    110  CG2       51.4130   10.3510   31.3350 C.3   639  ILE639      0.0023
    111  CD1       50.8380    9.7950   34.3660 C.3   639  ILE639      0.0001
    112  N         49.4120    9.7920   28.4950 N.am  640  VAL640     -0.1977
    113  CA        50.0690   10.0540   27.2410 C.3   640  VAL640      0.1596
    114  C         51.3110   10.9070   27.4710 C.2   640  VAL640      0.2287
    115  O         51.2360   12.0200   28.0560 O.2   640  VAL640     -0.2864
    116  CB        49.1640   10.7880   26.2350 C.3   640  VAL640      0.0276
    117  CG1       49.9730   11.0560   24.9560 C.3   640  VAL640      0.0022
    118  CG2       47.9000    9.9770   25.9940 C.3   640  VAL640      0.0022
    119  N         52.7510   15.2990   26.3950 N.3   643  ALA643     -0.1231
    120  CA        51.4380   15.8220   26.0350 C.3   643  ALA643      0.1694
    121  C         51.0540   16.9390   26.9760 C.2   643  ALA643      0.2593
    122  O         51.3120   16.9180   28.1880 O.2   643  ALA643     -0.2718
    123  CB        50.3720   14.7280   26.0910 C.3   643  ALA643      0.0304
    124  N         50.4080   17.9360   26.4150 N.am  644  THR644     -0.1939
    125  CA        50.0100   19.0390   27.2080 C.3   644  THR644      0.2028
    126  C         48.6420   19.4570   26.7050 C.2   644  THR644      0.2642
    127  O         48.3360   19.3970   25.5170 O.2   644  THR644     -0.2714
    128  CB        51.0920   20.2340   27.2040 C.3   644  THR644      0.1808
    129  OG1       50.6620   21.3180   26.3670 O.3   644  THR644     -0.2208
    130  CG2       52.4990   19.7400   26.7730 C.3   644  THR644      0.0379
    131  N         47.8250   19.8570   27.6640 N.am  645  THR645     -0.1950
    132  CA        46.5100   20.4130   27.4240 C.3   645  THR645      0.1897
    133  C         46.6480   21.6680   26.6220 C.2   645  THR645      0.2313
    134  O         47.7050   22.2480   26.5780 O.2   645  THR645     -0.2863
    135  CB        45.7840   20.6570   28.7660 C.3   645  THR645      0.1794
    136  OG1       44.6150   19.8190   28.8320 O.3   645  THR645     -0.2208
    137  CG2       45.3960   22.1300   28.9530 C.3   645  THR645      0.0378
    138  N         46.6000   25.0580   29.0790 N.3   648  LYS648     -0.1245
    139  CA        47.9880   25.2330   29.5780 C.3   648  LYS648      0.1561
    140  C         48.9400   25.9020   28.5580 C.2   648  LYS648      0.2260
    141  O         49.7910   26.7130   28.9320 O.2   648  LYS648     -0.2867
    142  CB        48.5700   23.8820   29.9980 C.3   648  LYS648      0.0271
    143  CG        49.4300   23.8940   31.2880 C.3   648  LYS648      0.0035
    144  CD        48.6000   23.7440   32.6120 C.3   648  LYS648      0.0206
    145  CE        47.7670   22.3970   32.7380 C.3   648  LYS648      0.1093
    146  NZ        48.2600   21.3520   33.7280 N.3   648  LYS648     -0.1314
    147  N         40.6660   22.9530   27.9940 N.3   708  ASP708     -0.1225
    148  CA        41.4010   22.2620   29.0540 C.3   708  ASP708      0.1805
    149  C         41.1400   20.7330   28.9570 C.2   708  ASP708      0.2597
    150  O         41.8270   19.9010   29.5750 O.2   708  ASP708     -0.2718
    151  CB        41.0670   22.8340   30.4500 C.3   708  ASP708      0.1424
    152  CG        39.5440   22.9710   30.7240 C.2   708  ASP708      0.3668
    153  OD1       38.7230   22.7710   29.7870 O.co2 708  ASP708     -0.2456
    154  OD2       39.1690   23.2890   31.9000 O.co2 708  ASP708     -0.2456
    155  N         40.1280   20.4000   28.1580 N.am  709  ASN709     -0.1974
    156  CA        39.7740   19.0250   27.8020 C.3   709  ASN709      0.1688
    157  C         40.3000   18.5700   26.4230 C.2   709  ASN709      0.2292
    158  O         39.9080   17.5220   25.9190 O.2   709  ASN709     -0.2864
    159  CB        38.2510   18.9170   27.8750 C.3   709  ASN709      0.1181
    160  CG        37.7510   18.8090   29.3020 C.2   709  ASN709      0.2629
    161  OD1       38.4130   18.2190   30.1400 O.2   709  ASN709     -0.2716
    162  ND2       36.5810   19.3650   29.5740 N.am  709  ASN709     -0.0877
    163  N         43.9230   17.9190   24.4130 N.3   711  MET711     -0.1245
    164  CA        45.3660   17.8810   24.4740 C.3   711  MET711      0.1570
    165  C         46.0570   17.8610   23.0850 C.2   711  MET711      0.2261
    166  O         45.3980   17.9450   22.0670 O.2   711  MET711     -0.2867
    167  CB        45.8160   16.7640   25.4250 C.3   711  MET711      0.0387
    168  CG        45.1600   16.8770   26.8330 C.3   711  MET711      0.0595
    169  SD        45.9210   15.7660   27.9880 S.3   711  MET711     -0.1393
    170  CE        47.5910   16.3390   28.0920 C.3   711  MET711      0.0692
    171  N         44.1880   15.3320   20.7410 N.3   719  PHE719     -0.1241
    172  CA        43.2660   14.3620   21.3320 C.3   719  PHE719      0.1605
    173  C         42.4300   14.9380   22.4720 C.2   719  PHE719      0.2264
    174  O         42.9580   15.5230   23.3860 O.2   719  PHE719     -0.2867
    175  CB        43.9630   13.0850   21.7950 C.3   719  PHE719      0.0534
    176  CG        44.9920   13.2510   22.9040 C.ar  719  PHE719     -0.0203
    177  CD1       46.2400   13.7940   22.6520 C.ar  719  PHE719     -0.0042
    178  CD2       44.7630   12.7040   24.1620 C.ar  719  PHE719     -0.0042
    179  CE1       47.1910   13.8880   23.6320 C.ar  719  PHE719     -0.0003
    180  CE2       45.7040   12.7950   25.1540 C.ar  719  PHE719     -0.0003
    181  CZ        46.9300   13.3790   24.8970 C.ar  719  PHE719     -0.0000
    182  N         40.0600   14.6070   25.8110 N.3   721  ILE721     -0.1231
    183  CA        40.1440   13.8440   27.0510 C.3   721  ILE721      0.1692
    184  C         38.9160   14.0760   27.8620 C.2   721  ILE721      0.2592
    185  O         38.0970   14.8160   27.4640 O.2   721  ILE721     -0.2718
    186  CB        41.4200   14.1200   27.8630 C.3   721  ILE721      0.0266
    187  CG1       41.4930   15.5890   28.3520 C.3   721  ILE721      0.0019
    188  CG2       42.6500   13.6170   27.1110 C.3   721  ILE721      0.0020
    189  CD1       42.1390   15.7050   29.6780 C.3   721  ILE721      0.0001
    190  N         38.7730   13.3640   28.9610 N.am  722  ASP722     -0.1974
    191  CA        37.6750   13.5430   29.9410 C.3   722  ASP722      0.1709
    192  C         36.2350   13.4990   29.4280 C.2   722  ASP722      0.2293
    193  O         35.5290   14.4630   29.5300 O.2   722  ASP722     -0.2864
    194  CB        37.9120   14.8270   30.7610 C.3   722  ASP722      0.1436
    195  CG        37.2310   14.7900   32.1270 C.2   722  ASP722      0.3671
    196  OD1       36.9140   13.6730   32.6080 O.co2 722  ASP722     -0.2456
    197  OD2       37.0000   15.8780   32.7140 O.co2 722  ASP722     -0.2456
@<TRIPOS>BOND
     1   171   172    1
     2   172   175    1
     3   172   173    1
     4   175   176    1
     5   166   165    2
     6   173   174    2
     7   177   176   ar
     8   177   179   ar
     9   176   178   ar
    10   165   164    1
    11   179   181   ar
    12   178   180   ar
    13   163   164    1
    14    75    76    1
    15   164   167    1
    16   181   180   ar
    17   117   116    1
    18   167   168    1
    19   127   126    2
    20    76    77    1
    21    76    79    1
    22   182   183    1
    23   158   157    2
    24    81    83   ar
    25    81    80   ar
    26   118   116    1
    27   120   123    1
    28   120   119    1
    29   120   121    1
    30   116   113    1
    31    83    85   ar
    32   129   128    1
    33   124   121   am
    34   124   125    1
    35   157   156    1
    36    77    78    2
    37    79    80    1
    38   102   101   ar
    39   134   133    2
    40   133   132    1
    41   126   125    1
    42   126   131   am
    43   130   128    1
    44    80    82   ar
    45   103   101   ar
    46   168   169    1
    47   121   122    2
    48    70    69    2
    49   183   184    1
    50   183   186    1
    51   188   186    1
    52   101   100    1
    53   128   125    1
    54   113   114    1
    55   113   112    1
    56    85    86    1
    57    85    84   ar
    58   132   131    1
    59   132   135    1
    60   185   184    2
    61   114   115    2
    62   156   159    1
    63   156   155    1
    64   184   190   am
    65   186   187    1
    66   159   160    1
    67    82    84   ar
    68   169   170    1
    69   147   148    1
    70   155   149   am
    71    69    68    1
    72   187   189    1
    73   100    99    1
    74   112   106   am
    75   140   141    2
    76   140   139    1
    77   135   136    1
    78   135   137    1
    79    68    67    1
    80    68    71    1
    81   149   148    1
    82   149   150    2
    83   190   191    1
    84   148   151    1
    85   138   139    1
    86   107   106    2
    87   160   162   am
    88   160   161    2
    89    99    96    1
    90   106   105    1
    91   192   193    2
    92   192   191    1
    93   139   142    1
    94   153   152   ar
    95    71    72    1
    96   191   194    1
    97   142   143    1
    98    98    97    2
    99    74    72   ar
   100    72    73   ar
   101   151   152    1
   102    97    96    1
   103    97   104   am
   104    96    95    1
   105   152   154   ar
   106   194   195    1
   107   105   104    1
   108   105   108    1
   109    95    89   am
   110   143   144    1
   111   110   108    1
   112    93    91    1
   113   108   109    1
   114   195   196   ar
   115   195   197   ar
   116    89    88    1
   117    89    90    2
   118   144   145    1
   119   145   146    1
   120    88    91    1
   121    88    87    1
   122    91    92    1
   123    49    48   ar
   124    49    47   ar
   125    92    94    1
   126   109   111    1
   127    48    46   ar
   128    47    45   ar
   129    57    55    1
   130    55    54    1
   131    46    43   ar
   132    66    65    1
   133    45    43   ar
   134    45    44   ar
   135    17    16    1
   136    54    56    1
   137    54    51    1
   138    43    41   ar
   139    50    51    1
   140    44    42   ar
   141    65    64    1
   142    51    52    1
   143    53    52    2
   144     9     8    1
   145    16    15    1
   146    41    42   ar
   147    41    40    1
   148    64    63    1
   149     8     7    1
   150    21    20    2
   151    40    37    1
   152    28    27    1
   153    22    19    1
   154    15    14    1
   155    27    24    1
   156    62    63    1
   157    62    59    1
   158    37    38    1
   159    37    36    1
   160    34    33    1
   161    34    35    1
   162    14    11    1
   163    20    19    1
   164    20    23   am
   165    33    30    1
   166    38    39    2
   167     7     6    1
   168    24    23    1
   169    24    25    1
   170    19    18    1
   171    18    12   am
   172    58    59    1
   173    61    60    2
   174    59    60    1
   175    11    12    1
   176    11    10    1
   177    35    29    1
   178     6     5    1
   179    12    13    2
   180    25    26    2
   181    30    31    1
   182    30    29    1
   183    31    32    2
   184     5     2    1
   185     4     3    2
   186     1     2    1
   187     3     2    1
