@<TRIPOS>MOLECULE
tmp/4anxA00.pdb
 197 187 0 0 0
SMALL
GASTEIGER

@<TRIPOS>ATOM
      1  N         52.5770   12.0650   41.4620 N.3   560  LYS560     -0.1245
      2  CA        51.9660   13.3050   41.9010 C.3   560  LYS560      0.1561
      3  C         50.4250   13.3070   41.9030 C.2   560  LYS560      0.2260
      4  O         49.7790   12.6080   41.1270 O.2   560  LYS560     -0.2867
      5  CB        52.5070   14.4600   41.0390 C.3   560  LYS560      0.0271
      6  CG        52.4370   14.2550   39.5090 C.3   560  LYS560      0.0035
      7  CD        52.6710   15.5770   38.7390 C.3   560  LYS560      0.0206
      8  CE        52.5430   15.4320   37.1980 C.3   560  LYS560      0.1093
      9  NZ        51.3240   16.1040   36.6460 N.3   560  LYS560     -0.1314
     10  N         47.0750   15.6400   41.0660 N.3   562  MET562     -0.1230
     11  CA        47.0870   16.2940   39.7430 C.3   562  MET562      0.1702
     12  C         46.6260   17.7460   39.6040 C.2   562  MET562      0.2592
     13  O         46.6830   18.3210   38.4990 O.2   562  MET562     -0.2718
     14  CB        46.3540   15.4260   38.7210 C.3   562  MET562      0.0401
     15  CG        47.2840   14.4250   38.0400 C.3   562  MET562      0.0596
     16  SD        46.7040   13.6900   36.5020 S.3   562  MET562     -0.1393
     17  CE        46.3950   15.1370   35.4720 C.3   562  MET562      0.0692
     18  N         46.2230   18.3630   40.6950 N.am  563  ALA563     -0.1966
     19  CA        45.7710   19.7360   40.5990 C.3   563  ALA563      0.1728
     20  C         44.5940   19.7520   39.6260 C.2   563  ALA563      0.2616
     21  O         44.5980   20.4680   38.6160 O.2   563  ALA563     -0.2715
     22  CB        46.9090   20.6580   40.1240 C.3   563  ALA563      0.0334
     23  N         43.6270   18.8880   39.9230 N.am  564  SER564     -0.1950
     24  CA        42.2950   18.9550   39.3370 C.3   564  SER564      0.1924
     25  C         41.2420   18.6600   40.4050 C.2   564  SER564      0.2314
     26  O         41.5430   18.0650   41.4410 O.2   564  SER564     -0.2863
     27  CB        42.1540   17.9570   38.1850 C.3   564  SER564      0.2116
     28  OG        40.7810   17.7490   37.8430 O.3   564  SER564     -0.2180
     29  N         43.2200   13.2360   41.0450 N.3   568  PRO568     -0.2116
     30  CA        43.7000   11.9110   40.7030 C.3   568  PRO568      0.1372
     31  C         45.1920   11.7150   40.9550 C.2   568  PRO568      0.2244
     32  O         45.9500   12.6780   40.9060 O.2   568  PRO568     -0.2868
     33  CB        43.4010   11.8150   39.2080 C.3   568  PRO568      0.0268
     34  CG        43.4210   13.1850   38.7290 C.3   568  PRO568      0.0207
     35  CD        42.9340   14.0420   39.8460 C.3   568  PRO568      0.0892
     36  N         48.9050   10.2700   39.8290 N.3   570  TRP570     -0.1241
     37  CA        49.6350   10.1470   38.5840 C.3   570  TRP570      0.1605
     38  C         50.7900    9.3350   39.0030 C.2   570  TRP570      0.2264
     39  O         51.6610    9.8220   39.6880 O.2   570  TRP570     -0.2867
     40  CB        50.0960   11.5090   38.1050 C.3   570  TRP570      0.0550
     41  CG        51.2100   11.5560   37.0820 C.ar  570  TRP570      0.0003
     42  CD1       52.5140   11.2110   37.2580 C.ar  570  TRP570      0.0946
     43  CD2       51.1130   12.0490   35.7520 C.ar  570  TRP570      0.0152
     44  NE1       53.2250   11.4340   36.1130 N.ar  570  TRP570     -0.2442
     45  CE2       52.3880   11.9580   35.1770 C.ar  570  TRP570      0.0810
     46  CE3       50.0670   12.5630   34.9920 C.ar  570  TRP570      0.0012
     47  CZ2       52.6470   12.3590   33.8880 C.ar  570  TRP570      0.0191
     48  CZ3       50.3230   12.9760   33.7140 C.ar  570  TRP570      0.0001
     49  CH2       51.6000   12.8680   33.1660 C.ar  570  TRP570      0.0015
     50  N         47.3550    6.4950   35.8480 N.3   589  ILE589     -0.1245
     51  CA        46.5620    7.3490   36.7140 C.3   589  ILE589      0.1561
     52  C         45.5750    6.4860   37.4810 C.2   589  ILE589      0.2260
     53  O         45.1920    5.4360   36.9970 O.2   589  ILE589     -0.2867
     54  CB        45.8060    8.3810   35.9070 C.3   589  ILE589      0.0252
     55  CG1       46.7670    9.4200   35.3410 C.3   589  ILE589      0.0019
     56  CG2       44.7890    9.0620   36.7470 C.3   589  ILE589      0.0019
     57  CD1       46.0880   10.4880   34.5230 C.3   589  ILE589      0.0001
     58  N         41.7360    7.1560   39.7510 N.3   591  LYS591     -0.1245
     59  CA        40.7140    8.2060   39.8670 C.3   591  LYS591      0.1561
     60  C         39.3770    7.7350   40.4510 C.2   591  LYS591      0.2260
     61  O         38.7530    6.8490   39.8770 O.2   591  LYS591     -0.2867
     62  CB        40.4980    8.8390   38.4820 C.3   591  LYS591      0.0271
     63  CG        39.6540   10.0870   38.4480 C.3   591  LYS591      0.0035
     64  CD        39.4180   10.5200   37.0090 C.3   591  LYS591      0.0206
     65  CE        38.0400   11.1490   36.8180 C.3   591  LYS591      0.1093
     66  NZ        37.8450   11.6300   35.4240 N.3   591  LYS591     -0.1314
     67  N         33.4850    6.0280   29.9120 N.3   599  ASP599     -0.1239
     68  CA        34.7300    6.2670   29.2090 C.3   599  ASP599      0.1674
     69  C         35.1530    5.0550   28.3880 C.2   599  ASP599      0.2266
     70  O         35.5030    5.2110   27.2260 O.2   599  ASP599     -0.2867
     71  CB        35.8530    6.6390   30.1770 C.3   599  ASP599      0.1410
     72  CG        35.9380    8.1610   30.4660 C.2   599  ASP599      0.3668
     73  OD1       35.1030    8.6680   31.2690 O.co2 599  ASP599     -0.2456
     74  OD2       36.8900    8.8220   29.9320 O.co2 599  ASP599     -0.2456
     75  N         43.6840    6.0490   24.3670 N.3   625  TYR625     -0.1241
     76  CA        44.4490    5.6720   25.5540 C.3   625  TYR625      0.1605
     77  C         43.7370    4.5920   26.3560 C.2   625  TYR625      0.2264
     78  O         42.5300    4.5270   26.3580 O.2   625  TYR625     -0.2867
     79  CB        44.6780    6.9090   26.4250 C.3   625  TYR625      0.0534
     80  CG        43.4000    7.6270   26.8090 C.ar  625  TYR625     -0.0201
     81  CD1       42.8410    8.6010   25.9780 C.ar  625  TYR625     -0.0009
     82  CD2       42.7510    7.3290   27.9970 C.ar  625  TYR625     -0.0009
     83  CE1       41.6860    9.2590   26.3230 C.ar  625  TYR625      0.0417
     84  CE2       41.6060    7.9750   28.3500 C.ar  625  TYR625      0.0417
     85  CZ        41.0740    8.9430   27.5120 C.ar  625  TYR625      0.1957
     86  OH        39.9140    9.5860   27.8890 O.3   625  TYR625     -0.2866
     87  N         43.8660    4.7010   34.2630 N.3   637  ILE637     -0.1231
     88  CA        44.0140    5.4380   33.0010 C.3   637  ILE637      0.1692
     89  C         45.4500    5.4360   32.4930 C.2   637  ILE637      0.2592
     90  O         46.3750    5.6530   33.2660 O.2   637  ILE637     -0.2718
     91  CB        43.6150    6.8940   33.2000 C.3   637  ILE637      0.0266
     92  CG1       42.1130    6.9940   33.5050 C.3   637  ILE637      0.0019
     93  CG2       43.9840    7.6950   31.9950 C.3   637  ILE637      0.0020
     94  CD1       41.6440    8.3800   33.8750 C.3   637  ILE637      0.0001
     95  N         45.6480    5.2170   31.1990 N.am  638  GLU638     -0.1966
     96  CA        46.9950    5.1910   30.6480 C.3   638  GLU638      0.1733
     97  C         47.5340    6.5980   30.5910 C.2   638  GLU638      0.2616
     98  O         46.8210    7.4930   30.1690 O.2   638  GLU638     -0.2715
     99  CB        47.0030    4.6030   29.2360 C.3   638  GLU638      0.0429
    100  CG        48.3920    4.5190   28.5700 C.3   638  GLU638      0.1163
    101  CD        48.3060    4.2390   27.0800 C.2   638  GLU638      0.3649
    102  OE1       47.2430    3.7830   26.5940 O.co2 638  GLU638     -0.2457
    103  OE2       49.3160    4.4860   26.3890 O.co2 638  GLU638     -0.2457
    104  N         48.7890    6.7760   31.0120 N.am  639  ILE639     -0.1963
    105  CA        49.4950    8.0350   30.8360 C.3   639  ILE639      0.1727
    106  C         50.1740    8.1040   29.4760 C.2   639  ILE639      0.2616
    107  O         51.1150    7.3560   29.2250 O.2   639  ILE639     -0.2715
    108  CB        50.5830    8.2630   31.8850 C.3   639  ILE639      0.0290
    109  CG1       49.9520    8.4130   33.2700 C.3   639  ILE639      0.0022
    110  CG2       51.3650    9.5310   31.5240 C.3   639  ILE639      0.0023
    111  CD1       50.9520    8.5460   34.3730 C.3   639  ILE639      0.0001
    112  N         49.7080    9.0180   28.6260 N.am  640  VAL640     -0.1977
    113  CA        50.2440    9.1840   27.2840 C.3   640  VAL640      0.1596
    114  C         51.4730   10.0480   27.3670 C.2   640  VAL640      0.2287
    115  O         51.4080   11.1720   27.8380 O.2   640  VAL640     -0.2864
    116  CB        49.2640    9.8830   26.3150 C.3   640  VAL640      0.0276
    117  CG1       49.8050    9.8360   24.8960 C.3   640  VAL640      0.0022
    118  CG2       47.9060    9.2470   26.3750 C.3   640  VAL640      0.0022
    119  N         52.9430   14.5710   26.3250 N.3   643  ALA643     -0.1231
    120  CA        51.6300   15.1220   26.0100 C.3   643  ALA643      0.1694
    121  C         51.2260   16.2270   26.9920 C.2   643  ALA643      0.2593
    122  O         51.5240   16.1560   28.1850 O.2   643  ALA643     -0.2718
    123  CB        50.5960   14.0100   26.0040 C.3   643  ALA643      0.0304
    124  N         50.5560   17.2540   26.4800 N.am  644  THR644     -0.1939
    125  CA        49.9910   18.2960   27.3320 C.3   644  THR644      0.2028
    126  C         48.5970   18.6040   26.9030 C.2   644  THR644      0.2642
    127  O         48.2060   18.3380   25.7760 O.2   644  THR644     -0.2714
    128  CB        50.7090   19.6690   27.2370 C.3   644  THR644      0.1808
    129  OG1       51.8650   19.5690   26.4010 O.3   644  THR644     -0.2208
    130  CG2       51.0590   20.2070   28.6430 C.3   644  THR644      0.0379
    131  N         47.8900   19.2340   27.8230 N.am  645  THR645     -0.1950
    132  CA        46.5830   19.7810   27.5840 C.3   645  THR645      0.1897
    133  C         46.7820   20.9350   26.6540 C.2   645  THR645      0.2313
    134  O         47.8960   21.3710   26.4820 O.2   645  THR645     -0.2863
    135  CB        45.9440   20.1860   28.9290 C.3   645  THR645      0.1794
    136  OG1       45.2810   19.0330   29.4630 O.3   645  THR645     -0.2208
    137  CG2       44.9540   21.3360   28.8080 C.3   645  THR645      0.0378
    138  N         46.7240   24.0990   29.0320 N.3   648  LYS648     -0.1245
    139  CA        48.0910   24.2640   29.5230 C.3   648  LYS648      0.1561
    140  C         48.9920   25.0350   28.5640 C.2   648  LYS648      0.2260
    141  O         49.7640   25.8580   29.0180 O.2   648  LYS648     -0.2867
    142  CB        48.7400   22.9200   29.8430 C.3   648  LYS648      0.0271
    143  CG        49.1220   22.7500   31.2950 C.3   648  LYS648      0.0035
    144  CD        48.2600   21.7410   32.0200 C.3   648  LYS648      0.0206
    145  CE        48.6330   21.6550   33.5010 C.3   648  LYS648      0.1093
    146  NZ        48.3720   22.9620   34.2130 N.3   648  LYS648     -0.1314
    147  N         40.6730   22.2510   28.2560 N.3   708  ASP708     -0.1225
    148  CA        41.3730   21.5770   29.3540 C.3   708  ASP708      0.1805
    149  C         41.2030   20.0360   29.2590 C.2   708  ASP708      0.2597
    150  O         41.9380   19.2660   29.9090 O.2   708  ASP708     -0.2718
    151  CB        40.9580   22.1260   30.7280 C.3   708  ASP708      0.1424
    152  CG        39.4550   22.0040   31.0170 C.2   708  ASP708      0.3668
    153  OD1       38.7110   21.4500   30.1820 O.co2 708  ASP708     -0.2456
    154  OD2       39.0130   22.4850   32.0940 O.co2 708  ASP708     -0.2456
    155  N         40.2170   19.6210   28.4500 N.am  709  ASN709     -0.1974
    156  CA        39.9500   18.2320   28.0980 C.3   709  ASN709      0.1688
    157  C         40.3390   17.8830   26.6560 C.2   709  ASN709      0.2292
    158  O         39.7270   17.0400   26.0240 O.2   709  ASN709     -0.2864
    159  CB        38.4660   17.9730   28.2870 C.3   709  ASN709      0.1181
    160  CG        38.0610   17.9440   29.7320 C.2   709  ASN709      0.2629
    161  OD1       36.9300   18.2880   30.0730 O.2   709  ASN709     -0.2716
    162  ND2       38.9680   17.5030   30.5970 N.am  709  ASN709     -0.0877
    163  N         44.0340   17.3000   24.3290 N.3   711  MET711     -0.1245
    164  CA        45.4560   17.1620   24.5150 C.3   711  MET711      0.1570
    165  C         46.1670   16.9680   23.1890 C.2   711  MET711      0.2261
    166  O         45.5280   16.8740   22.1430 O.2   711  MET711     -0.2867
    167  CB        45.7160   16.0120   25.4650 C.3   711  MET711      0.0387
    168  CG        45.1800   16.2830   26.8380 C.3   711  MET711      0.0595
    169  SD        45.7590   15.0830   28.0370 S.3   711  MET711     -0.1393
    170  CE        47.5250   15.3440   28.0540 C.3   711  MET711      0.0692
    171  N         44.3620   14.6990   20.8330 N.3   719  PHE719     -0.1241
    172  CA        43.3690   13.7430   21.3480 C.3   719  PHE719      0.1605
    173  C         42.5210   14.2430   22.5290 C.2   719  PHE719      0.2264
    174  O         43.0490   14.7500   23.5240 O.2   719  PHE719     -0.2867
    175  CB        44.0300   12.4330   21.7400 C.3   719  PHE719      0.0534
    176  CG        45.0920   12.5650   22.7930 C.ar  719  PHE719     -0.0203
    177  CD1       46.3560   13.0260   22.4760 C.ar  719  PHE719     -0.0042
    178  CD2       44.8600   12.1580   24.0920 C.ar  719  PHE719     -0.0042
    179  CE1       47.3680   13.1100   23.4530 C.ar  719  PHE719     -0.0003
    180  CE2       45.8640   12.2380   25.0650 C.ar  719  PHE719     -0.0003
    181  CZ        47.1100   12.7180   24.7420 C.ar  719  PHE719     -0.0000
    182  N         40.1350   13.6990   25.8610 N.3   721  ILE721     -0.1231
    183  CA        40.2280   12.8480   27.0500 C.3   721  ILE721      0.1692
    184  C         39.0370   13.0950   27.9490 C.2   721  ILE721      0.2592
    185  O         38.3050   14.0050   27.7250 O.2   721  ILE721     -0.2718
    186  CB        41.5010   13.1230   27.8760 C.3   721  ILE721      0.0266
    187  CG1       41.6550   14.6250   28.2210 C.3   721  ILE721      0.0019
    188  CG2       42.7070   12.6360   27.1390 C.3   721  ILE721      0.0020
    189  CD1       42.5390   14.9030   29.4700 C.3   721  ILE721      0.0001
    190  N         38.8810   12.2740   28.9750 N.am  722  ASP722     -0.1974
    191  CA        37.8750   12.4490   30.0350 C.3   722  ASP722      0.1709
    192  C         36.4360   12.5600   29.5850 C.2   722  ASP722      0.2293
    193  O         35.7650   13.5020   29.8940 O.2   722  ASP722     -0.2864
    194  CB        38.2090   13.6430   30.9320 C.3   722  ASP722      0.1436
    195  CG        37.6090   13.5040   32.3300 C.2   722  ASP722      0.3671
    196  OD1       37.5210   12.3490   32.8040 O.co2 722  ASP722     -0.2456
    197  OD2       37.2390   14.5260   32.9550 O.co2 722  ASP722     -0.2456
@<TRIPOS>BOND
     1   171   172    1
     2   172   175    1
     3   172   173    1
     4   175   176    1
     5   166   165    2
     6   177   176   ar
     7   177   179   ar
     8   173   174    2
     9   176   178   ar
    10   165   164    1
    11   179   181   ar
    12   178   180   ar
    13   163   164    1
    14    75    76    1
    15   164   167    1
    16   181   180   ar
    17   117   116    1
    18   167   168    1
    19    76    77    1
    20    76    79    1
    21   127   126    2
    22   182   183    1
    23    81    83   ar
    24    81    80   ar
    25   123   120    1
    26   120   119    1
    27   120   121    1
    28   158   157    2
    29   116   118    1
    30   116   113    1
    31    83    85   ar
    32    77    78    2
    33   103   101   ar
    34   129   128    1
    35    79    80    1
    36   124   121   am
    37   124   125    1
    38   134   133    2
    39   102   101   ar
    40   133   132    1
    41   157   156    1
    42    80    82   ar
    43   168   169    1
    44   126   125    1
    45   126   131   am
    46   121   122    2
    47   183   186    1
    48   183   184    1
    49   101   100    1
    50   188   186    1
    51    70    69    2
    52   128   125    1
    53   128   130    1
    54   113   114    1
    55   113   112    1
    56   114   115    2
    57    85    86    1
    58    85    84   ar
    59   132   131    1
    60   132   135    1
    61   185   184    2
    62   186   187    1
    63   184   190   am
    64    82    84   ar
    65   169   170    1
    66   156   159    1
    67   156   155    1
    68   187   189    1
    69   147   148    1
    70   159   160    1
    71    69    68    1
    72   155   149   am
    73   140   141    2
    74   140   139    1
    75   100    99    1
    76   112   106   am
    77   137   135    1
    78   135   136    1
    79   190   191    1
    80   138   139    1
    81    68    67    1
    82    68    71    1
    83   107   106    2
    84    99    96    1
    85   149   148    1
    86   149   150    2
    87   148   151    1
    88   106   105    1
    89   139   142    1
    90   192   193    2
    91   192   191    1
    92   160   161    2
    93   160   162   am
    94   142   143    1
    95    74    72   ar
    96   191   194    1
    97    98    97    2
    98    71    72    1
    99   153   152   ar
   100    72    73   ar
   101    97    96    1
   102    97   104   am
   103    96    95    1
   104   151   152    1
   105   105   104    1
   106   105   108    1
   107   194   195    1
   108   152   154   ar
   109    95    89   am
   110   143   144    1
   111   110   108    1
   112   108   109    1
   113    93    91    1
   114   144   145    1
   115   195   196   ar
   116   195   197   ar
   117    89    88    1
   118    89    90    2
   119    88    91    1
   120    88    87    1
   121    49    48   ar
   122    49    47   ar
   123    91    92    1
   124   109   111    1
   125   145   146    1
   126    92    94    1
   127    48    46   ar
   128    47    45   ar
   129    57    55    1
   130    46    43   ar
   131    45    43   ar
   132    45    44   ar
   133    55    54    1
   134    66    65    1
   135    17    16    1
   136    43    41   ar
   137    50    51    1
   138    54    51    1
   139    54    56    1
   140    44    42   ar
   141    16    15    1
   142     9     8    1
   143    51    52    1
   144    65    64    1
   145    53    52    2
   146    64    63    1
   147    41    42   ar
   148    41    40    1
   149     8     7    1
   150    28    27    1
   151    15    14    1
   152    40    37    1
   153    27    24    1
   154    63    62    1
   155    62    59    1
   156    13    12    2
   157    37    38    1
   158    37    36    1
   159    21    20    2
   160    14    11    1
   161    34    33    1
   162    34    35    1
   163     7     6    1
   164    38    39    2
   165    33    30    1
   166    24    23    1
   167    24    25    1
   168     6     5    1
   169    12    11    1
   170    12    18   am
   171    20    23   am
   172    20    19    1
   173    11    10    1
   174    58    59    1
   175    35    29    1
   176    59    60    1
   177    61    60    2
   178    22    19    1
   179    25    26    2
   180    19    18    1
   181    30    31    1
   182    30    29    1
   183    32    31    2
   184     5     2    1
   185     4     3    2
   186     1     2    1
   187     2     3    1
