@<TRIPOS>MOLECULE
tmp/4ao4C00.pdb
 163 152 0 0 0
SMALL
GASTEIGER

@<TRIPOS>ATOM
      1  N         -3.2210  114.0500  -13.3950 N.3    40  ARG40      -0.1245
      2  CA        -1.8310  114.4450  -13.1120 C.3    40  ARG40       0.1563
      3  C         -1.3650  115.0260  -14.4490 C.2    40  ARG40       0.2260
      4  O         -1.1870  114.2770  -15.4110 O.2    40  ARG40      -0.2867
      5  CB        -1.0770  113.1830  -12.7090 C.3    40  ARG40       0.0307
      6  CG         0.2960  113.2820  -12.2230 C.3    40  ARG40       0.0489
      7  CD         0.7170  111.8800  -11.7220 C.3    40  ARG40       0.2205
      8  NE         2.1640  111.8120  -11.7780 N.pl3  40  ARG40      -0.0865
      9  CZ         2.8610  110.6970  -11.8910 C.cat  40  ARG40       0.5346
     10  NH1        2.2560  109.4800  -11.9550 N.pl3  40  ARG40       0.1354
     11  NH2        4.1640  110.7950  -11.9420 N.pl3  40  ARG40       0.1354
     12  N          1.1590  116.1950  -16.1140 N.3    42  ILE42      -0.1245
     13  CA         2.3330  115.7180  -16.8560 C.3    42  ILE42       0.1561
     14  C          2.1180  114.3740  -17.6130 C.2    42  ILE42       0.2260
     15  O          2.9070  114.0440  -18.5220 O.2    42  ILE42      -0.2867
     16  CB         3.5610  115.6240  -15.9120 C.3    42  ILE42       0.0252
     17  CG1        4.8300  115.5310  -16.7620 C.3    42  ILE42       0.0019
     18  CG2        3.4460  114.4440  -14.9370 C.3    42  ILE42       0.0019
     19  CD1        5.9140  116.4370  -16.3050 C.3    42  ILE42       0.0001
     20  N          9.1410  109.5060  -12.7890 N.3    75  TYR75      -0.1241
     21  CA         9.8210  110.8000  -12.5630 C.3    75  TYR75       0.1605
     22  C         10.7040  110.7270  -11.3340 C.2    75  TYR75       0.2264
     23  O         10.6800  111.6180  -10.4710 O.2    75  TYR75      -0.2867
     24  CB         8.8120  111.9670  -12.5050 C.3    75  TYR75       0.0534
     25  CG         8.2460  112.2780  -13.8800 C.ar   75  TYR75      -0.0201
     26  CD1        8.9730  113.0520  -14.8060 C.ar   75  TYR75      -0.0009
     27  CD2        7.0050  111.7640  -14.2710 C.ar   75  TYR75      -0.0009
     28  CE1        8.4650  113.3210  -16.1090 C.ar   75  TYR75       0.0417
     29  CE2        6.4890  112.0270  -15.5540 C.ar   75  TYR75       0.0417
     30  CZ         7.2260  112.7910  -16.4610 C.ar   75  TYR75       0.1957
     31  OH         6.6970  113.0260  -17.7100 O.3    75  TYR75      -0.2866
     32  N          3.7730  114.1860    0.2280 N.3   130  SER130     -0.1202
     33  CA         4.2210  114.5350   -1.1180 C.3   130  SER130      0.2020
     34  C          5.3750  115.5380   -1.0180 C.2   130  SER130      0.2619
     35  O          5.5480  116.2040    0.0140 O.2   130  SER130     -0.2717
     36  CB         3.0760  115.2120   -1.8840 C.3   130  SER130      0.2103
     37  OG         2.7100  116.4670   -1.2700 O.3   130  SER130     -0.2182
     38  N          6.1130  115.6740   -2.1150 N.am  131  GLY131     -0.1942
     39  CA         7.1340  116.7330   -2.2090 C.3   131  GLY131      0.2014
     40  C          6.5560  118.1490   -2.1450 C.2   131  GLY131      0.2639
     41  O          7.2080  119.0740   -1.6300 O.2   131  GLY131     -0.2714
     42  N          5.3490  118.3270   -2.6830 N.am  132  THR132     -0.1950
     43  CA         4.6450  119.6020   -2.6360 C.3   132  THR132      0.1897
     44  C          4.4190  120.0360   -1.2040 C.2   132  THR132      0.2313
     45  O          4.7000  121.2000   -0.8630 O.2   132  THR132     -0.2863
     46  CB         3.2690  119.5240   -3.3780 C.3   132  THR132      0.1794
     47  OG1        3.5160  119.2920   -4.7430 O.3   132  THR132     -0.2208
     48  CG2        2.4370  120.8250   -3.2360 C.3   132  THR132      0.0378
     49  N          7.7920  120.9870    0.5330 N.3   135  ASN135     -0.1240
     50  CA         8.2590  122.3340    0.1890 C.3   135  ASN135      0.1653
     51  C          7.3870  123.4550    0.7840 C.2   135  ASN135      0.2266
     52  O          7.9220  124.4820    1.2250 O.2   135  ASN135     -0.2867
     53  CB         8.3950  122.5240   -1.3350 C.3   135  ASN135      0.1155
     54  CG         9.6860  121.8720   -1.9040 C.2   135  ASN135      0.2627
     55  OD1       10.7810  122.0410   -1.3620 O.2   135  ASN135     -0.2716
     56  ND2        9.5490  121.1680   -3.0080 N.am  135  ASN135     -0.0877
     57  N         10.9430  123.8610  -10.0920 N.3   158  TYR158     -0.1227
     58  CA         9.6730  123.1660   -9.8450 C.3   158  TYR158      0.1736
     59  C          9.7030  122.5710   -8.4560 C.2   158  TYR158      0.2595
     60  O         10.5460  121.7090   -8.1370 O.2   158  TYR158     -0.2718
     61  CB         9.3860  122.0700  -10.8870 C.3   158  TYR158      0.0548
     62  CG         7.9840  121.4560  -10.6910 C.ar  158  TYR158     -0.0200
     63  CD1        6.8490  122.0990  -11.1780 C.ar  158  TYR158     -0.0009
     64  CD2        7.8060  120.2870   -9.9390 C.ar  158  TYR158     -0.0009
     65  CE1        5.5280  121.5550  -10.9700 C.ar  158  TYR158      0.0417
     66  CE2        6.5030  119.7400   -9.7180 C.ar  158  TYR158      0.0417
     67  CZ         5.3900  120.3690  -10.2450 C.ar  158  TYR158      0.1957
     68  OH         4.1290  119.8500  -10.0170 O.3   158  TYR158     -0.2866
     69  N          8.7820  123.0350   -7.6220 N.am  159  HIS159     -0.1961
     70  CA         8.7440  122.6220   -6.2270 C.3   159  HIS159      0.1787
     71  C          7.3830  122.0380   -5.8180 C.2   159  HIS159      0.2620
     72  O          7.1040  121.8230   -4.6340 O.2   159  HIS159     -0.2715
     73  CB         9.1340  123.8320   -5.3570 C.3   159  HIS159      0.0785
     74  CG        10.4000  124.4960   -5.8190 C.ar  159  HIS159      0.0821
     75  ND1       11.6440  123.9290   -5.6330 N.ar  159  HIS159     -0.2267
     76  CD2       10.6070  125.6520   -6.5080 C.ar  159  HIS159      0.1154
     77  CE1       12.5670  124.7250   -6.1570 C.ar  159  HIS159      0.1986
     78  NE2       11.9650  125.7830   -6.6760 N.ar  159  HIS159     -0.2212
     79  N          6.5270  121.7780   -6.8010 N.am  160  GLY160     -0.1954
     80  CA         5.2590  121.1530   -6.4820 C.3   160  GLY160      0.1869
     81  C          4.0770  121.8490   -7.1220 C.2   160  GLY160      0.2309
     82  O          4.2460  122.8800   -7.7510 O.2   160  GLY160     -0.2863
     83  N          8.1910  126.5100  -13.4710 N.3   166  ALA166     -0.1245
     84  CA         8.8270  125.9340  -14.6500 C.3   166  ALA166      0.1562
     85  C          8.5890  126.7880  -15.9000 C.2   166  ALA166      0.2260
     86  O          9.3670  126.7030  -16.8660 O.2   166  ALA166     -0.2867
     87  CB         8.3800  124.4590  -14.8670 C.3   166  ALA166      0.0290
     88  N         16.5670  123.9090   -6.3360 N.3   206  GLU206     -0.1245
     89  CA        17.0020  122.5280   -6.6370 C.3   206  GLU206      0.1567
     90  C         18.4990  122.5400   -6.9440 C.2   206  GLU206      0.2260
     91  O         18.9110  123.3770   -7.7010 O.2   206  GLU206     -0.2867
     92  CB        16.2840  122.0110   -7.8990 C.3   206  GLU206      0.0388
     93  CG        14.7720  121.8110   -7.7460 C.3   206  GLU206      0.1160
     94  CD        14.0730  121.9130   -9.0870 C.2   206  GLU206      0.3649
     95  OE1       13.7530  123.0520   -9.4820 O.co2 206  GLU206     -0.2457
     96  OE2       13.8610  120.8660   -9.7390 O.co2 206  GLU206     -0.2457
     97  N         12.3490  118.8770  -13.4460 N.3   211  ALA211     -0.1245
     98  CA        11.3330  119.1340  -14.4690 C.3   211  ALA211      0.1562
     99  C         11.8350  120.1490  -15.4760 C.2   211  ALA211      0.2260
    100  O         11.4960  120.0610  -16.6640 O.2   211  ALA211     -0.2867
    101  CB        10.0170  119.6610  -13.8270 C.3   211  ALA211      0.0290
    102  N         15.9070  121.8970   -2.3200 N.3   239  ASP239     -0.1239
    103  CA        14.8750  120.9510   -2.7150 C.3   239  ASP239      0.1674
    104  C         15.5580  119.7360   -3.3470 C.2   239  ASP239      0.2266
    105  O         15.9180  119.7740   -4.5430 O.2   239  ASP239     -0.2867
    106  CB        13.9000  121.6300   -3.7120 C.3   239  ASP239      0.1410
    107  CG        12.7950  120.6860   -4.1840 C.2   239  ASP239      0.3668
    108  OD1       12.9600  119.4560   -3.9870 O.co2 239  ASP239     -0.2456
    109  OD2       11.7950  121.1790   -4.7400 O.co2 239  ASP239     -0.2456
    110  N         14.1040  116.7420   -3.7200 N.3   241  VAL241     -0.1231
    111  CA        13.0420  115.7700   -4.0000 C.3   241  VAL241      0.1692
    112  C         13.5280  114.8090   -5.1070 C.2   241  VAL241      0.2591
    113  O         13.3270  113.5890   -4.9990 O.2   241  VAL241     -0.2718
    114  CB        11.7020  116.4940   -4.3130 C.3   241  VAL241      0.0266
    115  CG1       10.6630  115.5430   -4.9350 C.3   241  VAL241      0.0020
    116  CG2       11.1300  117.1120   -2.9760 C.3   241  VAL241      0.0020
    117  N         14.2110  115.3500   -6.1280 N.am  242  MET242     -0.1979
    118  CA        14.8540  114.4980   -7.1350 C.3   242  MET242      0.1605
    119  C         16.3120  114.2130   -6.8280 C.2   242  MET242      0.2287
    120  O         16.7620  113.0660   -6.9680 O.2   242  MET242     -0.2864
    121  CB        14.7360  115.0840   -8.5490 C.3   242  MET242      0.0413
    122  CG        13.3260  114.9950   -9.1410 C.3   242  MET242      0.0598
    123  SD        13.4480  115.3530  -10.8900 S.3   242  MET242     -0.1393
    124  CE        11.7110  115.1930  -11.3990 C.3   242  MET242      0.0692
    125  N          9.7820  111.4940   -3.6820 N.3   266  LYS266     -0.1245
    126  CA        10.0060  110.4410   -4.6740 C.3   266  LYS266      0.1561
    127  C         10.2660  109.0680   -4.0420 C.2   266  LYS266      0.2260
    128  O          9.3790  108.5560   -3.3670 O.2   266  LYS266     -0.2867
    129  CB        11.0920  110.8490   -5.6750 C.3   266  LYS266      0.0271
    130  CG        10.8030  112.1910   -6.3510 C.3   266  LYS266      0.0035
    131  CD         9.6270  112.0730   -7.3170 C.3   266  LYS266      0.0206
    132  CE         9.3820  113.4090   -8.0290 C.3   266  LYS266      0.1093
    133  NZ         8.3470  113.3050   -9.0990 N.3   266  LYS266     -0.1314
    134  N          4.8170  109.8970   -0.2760 N.3   274  PHE274     -0.1241
    135  CA         5.9100  110.3350    0.5890 C.3   274  PHE274      0.1605
    136  C          6.4230  111.7250    0.2670 C.2   274  PHE274      0.2264
    137  O          6.5580  112.1150   -0.8980 O.2   274  PHE274     -0.2867
    138  CB         7.1020  109.3170    0.5360 C.3   274  PHE274      0.0534
    139  CG         8.3350  109.8060    1.2390 C.ar  274  PHE274     -0.0203
    140  CD1        8.4950  109.5990    2.6090 C.ar  274  PHE274     -0.0042
    141  CD2        9.3050  110.5330    0.5400 C.ar  274  PHE274     -0.0042
    142  CE1        9.6110  110.1120    3.2740 C.ar  274  PHE274     -0.0003
    143  CE2       10.4400  111.0390    1.1900 C.ar  274  PHE274     -0.0003
    144  CZ        10.6050  110.8180    2.5460 C.ar  274  PHE274     -0.0000
    145  N          8.7650  114.8850  -22.3950 N.3   398  ARG398     -0.1245
    146  CA         9.8000  115.9530  -22.4040 C.3   398  ARG398      0.1563
    147  C         11.2280  115.4390  -22.5140 C.2   398  ARG398      0.2260
    148  O         12.1660  116.2570  -22.4450 O.2   398  ARG398     -0.2867
    149  CB         9.7300  116.8340  -21.1200 C.3   398  ARG398      0.0307
    150  CG        10.3490  116.1200  -19.8000 C.3   398  ARG398      0.0489
    151  CD        10.0210  116.8400  -18.4800 C.3   398  ARG398      0.2205
    152  NE         8.6360  117.3360  -18.4750 N.pl3 398  ARG398     -0.0865
    153  CZ         8.2420  118.4700  -17.8850 C.cat 398  ARG398      0.5346
    154  NH1        9.1000  119.2380  -17.2170 N.pl3 398  ARG398      0.1354
    155  NH2        6.9720  118.8440  -17.9650 N.pl3 398  ARG398      0.1354
    156  N         13.0860  113.1000  -20.6260 N.3   400  MET400     -0.1245
    157  CA        13.7650  112.7370  -19.4120 C.3   400  MET400      0.1570
    158  C         13.7280  111.2110  -19.1510 C.2   400  MET400      0.2261
    159  O         12.6870  110.5730  -19.2870 O.2   400  MET400     -0.2867
    160  CB        13.1040  113.4920  -18.2200 C.3   400  MET400      0.0387
    161  CG        13.6530  113.0900  -16.8440 C.3   400  MET400      0.0595
    162  SD        13.2000  114.2150  -15.4950 S.3   400  MET400     -0.1393
    163  CE        14.1840  113.4820  -14.1630 C.3   400  MET400      0.0692
@<TRIPOS>BOND
     1   147   148    2
     2   147   146    1
     3   146   145    1
     4   146   149    1
     5   149   150    1
     6   156   157    1
     7   150   151    1
     8   157   158    1
     9   157   160    1
    10   159   158    2
    11    15    14    2
    12   151   152    1
    13   152   153    2
    14   160   161    1
    15   155   153    1
    16   153   154    1
    17    31    30    1
    18    14    13    1
    19    86    85    2
    20    13    12    1
    21    13    16    1
    22   161   162    1
    23    17    19    1
    24    17    16    1
    25   100    99    2
    26    30    28   ar
    27    30    29   ar
    28    28    26   ar
    29    16    18    1
    30    85    84    1
    31    29    27   ar
    32   162   163    1
    33    99    98    1
    34     4     3    2
    35    87    84    1
    36    26    25   ar
    37    84    83    1
    38    98   101    1
    39    98    97    1
    40     3     2    1
    41    27    25   ar
    42    25    24    1
    43     1     2    1
    44     2     5    1
    45    20    21    1
    46     5     6    1
    47    21    24    1
    48    21    22    1
    49     6     7    1
    50    10     9    1
    51    11     9    1
    52     9     8    2
    53     8     7    1
    54   124   123    1
    55    22    23    2
    56    63    65   ar
    57    63    62   ar
    58    65    67   ar
    59   123   122    1
    60    61    62    1
    61    61    58    1
    62    62    64   ar
    63    67    68    1
    64    67    66   ar
    65    57    58    1
    66    64    66   ar
    67    58    59    1
    68    96    94   ar
    69    95    94   ar
    70   122   121    1
    71   133   132    1
    72    94    93    1
    73   121   118    1
    74    59    60    2
    75    59    69   am
    76   132   131    1
    77    92    93    1
    78    92    89    1
    79    82    81    2
    80    91    90    2
    81    69    70    1
    82   131   130    1
    83   118   119    1
    84   118   117    1
    85    81    80    1
    86   120   119    2
    87    90    89    1
    88    79    80    1
    89    79    71   am
    90    78    76   ar
    91    78    77   ar
    92    89    88    1
    93    76    74   ar
    94   130   129    1
    95    70    71    1
    96    70    73    1
    97    77    75   ar
    98   117   112   am
    99    74    75   ar
   100    74    73    1
   101    71    72    2
   102   129   126    1
   103   112   113    2
   104   112   111    1
   105   115   114    1
   106    47    46    1
   107   109   107   ar
   108   126   127    1
   109   126   125    1
   110   105   104    2
   111   114   111    1
   112   114   116    1
   113   107   108   ar
   114   107   106    1
   115   127   128    2
   116   111   110    1
   117   106   103    1
   118    46    48    1
   119    46    43    1
   120   104   103    1
   121    56    54   am
   122   103   102    1
   123    42    43    1
   124    42    40   am
   125    43    44    1
   126    39    40    1
   127    39    38    1
   128    40    41    2
   129    38    34   am
   130    54    55    2
   131    54    53    1
   132    36    37    1
   133    36    33    1
   134    53    50    1
   135    44    45    2
   136    33    34    1
   137    33    32    1
   138    34    35    2
   139   137   136    2
   140   134   135    1
   141    50    49    1
   142    50    51    1
   143   136   135    1
   144   138   135    1
   145   138   139    1
   146   141   143   ar
   147   141   139   ar
   148    51    52    2
   149   143   144   ar
   150   139   140   ar
   151   144   142   ar
   152   140   142   ar
