@<TRIPOS>MOLECULE
tmp/4ao5B00.pdb
 95 93 0 0 0
SMALL
GASTEIGER

@<TRIPOS>ATOM
      1  N         -2.4120    5.0470  -52.3690 N.3    59  VAL59      -0.1245
      2  CA        -2.4610    6.4730  -52.0040 C.3    59  VAL59       0.1561
      3  C         -2.5350    6.6180  -50.4890 C.2    59  VAL59       0.2260
      4  O         -3.4180    6.0520  -49.8620 O.2    59  VAL59      -0.2867
      5  CB        -3.6740    7.1900  -52.6380 C.3    59  VAL59       0.0252
      6  CG1       -3.7440    8.6500  -52.1860 C.3    59  VAL59       0.0019
      7  CG2       -3.5990    7.0900  -54.1660 C.3    59  VAL59       0.0019
      8  N         -7.0700   10.5910  -43.7430 N.3    73  GLN73      -0.1245
      9  CA        -7.5730    9.8880  -44.9200 C.3    73  GLN73       0.1566
     10  C         -8.4960    8.7680  -44.4530 C.2    73  GLN73       0.2260
     11  O         -8.0480    7.8040  -43.8320 O.2    73  GLN73      -0.2867
     12  CB        -6.4190    9.2990  -45.7520 C.3    73  GLN73       0.0367
     13  CG        -6.8790    8.7320  -47.0950 C.3    73  GLN73       0.0905
     14  CD        -5.7610    8.3510  -48.0310 C.2    73  GLN73       0.2608
     15  OE1       -4.6560    8.8990  -47.9530 O.2    73  GLN73      -0.2717
     16  NE2       -6.0460    7.4030  -48.9520 N.am   73  GLN73      -0.0878
     17  N        -10.1780    6.2350  -45.6910 N.3    75  ASN75      -0.1240
     18  CA        -9.9530    4.8570  -46.1240 C.3    75  ASN75       0.1653
     19  C         -8.5570    4.3140  -45.8160 C.2    75  ASN75       0.2266
     20  O         -8.2330    3.2240  -46.2810 O.2    75  ASN75      -0.2867
     21  CB       -10.3120    4.6730  -47.6270 C.3    75  ASN75       0.1155
     22  CG        -9.3840    5.4410  -48.5570 C.2    75  ASN75       0.2627
     23  OD1       -8.4820    6.0940  -48.0820 O.2    75  ASN75      -0.2716
     24  ND2       -9.5790    5.3320  -49.8830 N.am   75  ASN75      -0.0877
     25  N         -5.7070    4.3970  -50.0950 N.3    78  GLY78      -0.1210
     26  CA        -6.5020    4.1810  -51.3030 C.3    78  GLY78       0.1956
     27  C         -5.8230    3.1870  -52.2180 C.2    78  GLY78       0.2612
     28  O         -4.6220    3.2720  -52.4460 O.2    78  GLY78      -0.2717
     29  N         -6.6110    2.2650  -52.7750 N.am   79  VAL79      -0.1965
     30  CA        -6.1370    1.2890  -53.7600 C.3    79  VAL79       0.1727
     31  C         -6.7420    1.6690  -55.1070 C.2    79  VAL79       0.2616
     32  O         -7.9580    1.7690  -55.2450 O.2    79  VAL79      -0.2715
     33  CB        -6.5500   -0.1570  -53.3610 C.3    79  VAL79       0.0290
     34  CG1       -6.1530   -1.1880  -54.4280 C.3    79  VAL79       0.0023
     35  CG2       -5.9900   -0.4890  -51.9760 C.3    79  VAL79       0.0023
     36  N         -5.8850    1.9340  -56.0820 N.am   80  ILE80      -0.1963
     37  CA        -6.3310    2.2200  -57.4250 C.3    80  ILE80       0.1727
     38  C         -5.9330    1.0560  -58.3220 C.2    80  ILE80       0.2616
     39  O         -4.7450    0.8430  -58.5640 O.2    80  ILE80      -0.2715
     40  CB        -5.7260    3.5000  -58.0200 C.3    80  ILE80       0.0290
     41  CG1       -5.6780    4.6610  -57.0200 C.3    80  ILE80       0.0022
     42  CG2       -6.5030    3.8790  -59.2880 C.3    80  ILE80       0.0023
     43  CD1       -7.0210    5.2330  -56.6490 C.3    80  ILE80       0.0001
     44  N         -6.9150    0.3080  -58.8240 N.am   81  ASP81      -0.1971
     45  CA        -6.6070   -0.8730  -59.6250 C.3    81  ASP81       0.1709
     46  C         -6.2960   -0.4600  -61.0620 C.2    81  ASP81       0.2293
     47  O         -6.7110    0.6120  -61.5350 O.2    81  ASP81      -0.2864
     48  CB        -7.7730   -1.8580  -59.6340 C.3    81  ASP81       0.1436
     49  CG        -7.4600   -3.1280  -60.4150 C.2    81  ASP81       0.3671
     50  OD1       -6.5020   -3.8170  -60.0120 O.co2  81  ASP81      -0.2456
     51  OD2       -8.1480   -3.4260  -61.4410 O.co2  81  ASP81      -0.2456
     52  N         -9.0920    0.9300  -63.2360 N.3    84  TYR84      -0.1241
     53  CA        -9.6020    2.2980  -63.0800 C.3    84  TYR84       0.1605
     54  C         -8.8100    3.1830  -64.0160 C.2    84  TYR84       0.2264
     55  O         -7.9570    3.9530  -63.5830 O.2    84  TYR84      -0.2867
     56  CB        -9.4360    2.7430  -61.6300 C.3    84  TYR84       0.0534
     57  CG       -10.1950    3.9980  -61.2330 C.ar   84  TYR84      -0.0201
     58  CD1      -11.5810    3.9970  -61.1970 C.ar   84  TYR84      -0.0009
     59  CD2       -9.5250    5.1540  -60.8030 C.ar   84  TYR84      -0.0009
     60  CE1      -12.2950    5.1110  -60.8060 C.ar   84  TYR84       0.0417
     61  CE2      -10.2320    6.2780  -60.4100 C.ar   84  TYR84       0.0417
     62  CZ       -11.6200    6.2410  -60.3910 C.ar   84  TYR84       0.1957
     63  OH       -12.3470    7.3290  -59.9750 O.3    84  TYR84      -0.2866
     64  N         -9.0010   10.6400  -59.8200 N.3    91  TRP91      -0.1227
     65  CA        -8.6050   10.2660  -58.4870 C.3    91  TRP91       0.1737
     66  C         -9.0270   11.3100  -57.4920 C.2    91  TRP91       0.2595
     67  O         -9.0920   12.5160  -57.8140 O.2    91  TRP91      -0.2718
     68  CB        -7.1060   10.0950  -58.3930 C.3    91  TRP91       0.0564
     69  CG        -6.4900    8.9870  -59.2080 C.ar   91  TRP91       0.0003
     70  CD1       -6.9480    8.4120  -60.3930 C.ar   91  TRP91       0.0946
     71  CD2       -5.1980    8.3630  -58.9460 C.ar   91  TRP91       0.0152
     72  NE1       -6.0670    7.4460  -60.8280 N.ar   91  TRP91      -0.2442
     73  CE2       -4.9950    7.3700  -59.9900 C.ar   91  TRP91       0.0810
     74  CE3       -4.2420    8.4930  -57.9380 C.ar   91  TRP91       0.0012
     75  CZ2       -3.8590    6.6030  -60.0450 C.ar   91  TRP91       0.0191
     76  CZ3       -3.1080    7.6940  -57.9950 C.ar   91  TRP91       0.0001
     77  CH2       -2.9200    6.7680  -59.0270 C.ar   91  TRP91       0.0015
     78  N         -9.3390   10.8250  -56.2950 N.am   92  PHE92      -0.1976
     79  CA        -9.6980   11.6980  -55.1840 C.3    92  PHE92       0.1639
     80  C         -8.9270   11.3290  -53.9210 C.2    92  PHE92       0.2290
     81  O         -8.4060   10.2200  -53.8020 O.2    92  PHE92      -0.2864
     82  CB       -11.2030   11.6370  -54.9180 C.3    92  PHE92       0.0560
     83  CG       -11.7080   10.2570  -54.6070 C.ar   92  PHE92      -0.0200
     84  CD1      -11.6030    9.7380  -53.3280 C.ar   92  PHE92      -0.0042
     85  CD2      -12.2870    9.4780  -55.5950 C.ar   92  PHE92      -0.0042
     86  CE1      -12.0670    8.4690  -53.0390 C.ar   92  PHE92      -0.0003
     87  CE2      -12.7530    8.2080  -55.3130 C.ar   92  PHE92      -0.0003
     88  CZ       -12.6420    7.7020  -54.0330 C.ar   92  PHE92      -0.0000
     89  N         -9.9000   11.1460  -49.9260 N.3    94  PRO94      -0.2116
     90  CA       -11.0390   11.2410  -49.0100 C.3    94  PRO94       0.1372
     91  C        -10.5910   11.7500  -47.6610 C.2    94  PRO94       0.2244
     92  O         -9.9070   11.0250  -46.8980 O.2    94  PRO94      -0.2868
     93  CB       -11.5610    9.8070  -48.9430 C.3    94  PRO94       0.0268
     94  CG       -10.3760    8.9660  -49.2250 C.3    94  PRO94       0.0207
     95  CD        -9.4540    9.7530  -50.1130 C.3    94  PRO94       0.0892
@<TRIPOS>BOND
     1    54    55    2
     2    54    53    1
     3    52    53    1
     4    53    56    1
     5    56    57    1
     6    47    46    2
     7    51    49   ar
     8    57    58   ar
     9    57    59   ar
    10    58    60   ar
    11    46    45    1
    12    72    70   ar
    13    72    73   ar
    14    60    62   ar
    15    59    61   ar
    16    49    50   ar
    17    49    48    1
    18    61    62   ar
    19    70    69   ar
    20    62    63    1
    21    75    73   ar
    22    75    77   ar
    23    73    71   ar
    24    64    65    1
    25    48    45    1
    26    45    44    1
    27    42    40    1
    28    69    71   ar
    29    69    68    1
    30    77    76   ar
    31    71    74   ar
    32    44    38   am
    33    39    38    2
    34    65    68    1
    35    65    66    1
    36    38    37    1
    37    40    37    1
    38    40    41    1
    39    76    74   ar
    40    67    66    2
    41    66    78   am
    42    37    36    1
    43    41    43    1
    44    78    79    1
    45    36    31   am
    46    85    87   ar
    47    85    83   ar
    48    87    88   ar
    49    32    31    2
    50    79    82    1
    51    79    80    1
    52    31    30    1
    53    82    83    1
    54    83    84   ar
    55    34    33    1
    56     7     5    1
    57    88    86   ar
    58    80    81    2
    59    30    33    1
    60    30    29    1
    61    33    35    1
    62    84    86   ar
    63    29    27   am
    64     5     6    1
    65     5     2    1
    66    28    27    2
    67     1     2    1
    68    27    26    1
    69     2     3    1
    70    26    25    1
    71     3     4    2
    72    95    89    1
    73    95    94    1
    74    89    90    1
    75    24    22   am
    76    94    93    1
    77    90    93    1
    78    90    91    1
    79    16    14   am
    80    22    23    2
    81    22    21    1
    82    14    15    2
    83    14    13    1
    84    91    92    2
    85    21    18    1
    86    13    12    1
    87    20    19    2
    88    18    19    1
    89    18    17    1
    90    12     9    1
    91     9    10    1
    92     9     8    1
    93    10    11    2
