@<TRIPOS>MOLECULE
tmp/4ao8A00.pdb
 90 86 0 0 0
SMALL
GASTEIGER

@<TRIPOS>ATOM
      1  N         -3.2080  -21.1140  -18.8400 N.3    57  TYR57      -0.1241
      2  CA        -2.8740  -19.7030  -19.0370 C.3    57  TYR57       0.1605
      3  C         -1.4200  -19.5020  -19.4520 C.2    57  TYR57       0.2264
      4  O         -1.1220  -18.6240  -20.2570 O.2    57  TYR57      -0.2867
      5  CB        -3.1700  -18.9070  -17.8140 C.3    57  TYR57       0.0534
      6  CG        -2.2900  -19.2230  -16.6580 C.ar   57  TYR57      -0.0201
      7  CD1       -2.5340  -20.3370  -15.8530 C.ar   57  TYR57      -0.0009
      8  CD2       -1.2390  -18.3860  -16.3420 C.ar   57  TYR57      -0.0009
      9  CE1       -1.7370  -20.6100  -14.7860 C.ar   57  TYR57       0.0417
     10  CE2       -0.4440  -18.6450  -15.2660 C.ar   57  TYR57       0.0417
     11  CZ        -0.6880  -19.7520  -14.5010 C.ar   57  TYR57       0.1957
     12  OH         0.1310  -19.9560  -13.4310 O.3    57  TYR57      -0.2866
     13  N         -5.6550  -21.6900   -7.2430 N.3    85  ASP85      -0.1239
     14  CA        -4.1890  -21.6690   -7.2490 C.3    85  ASP85       0.1674
     15  C         -3.6460  -22.5340   -6.1140 C.2    85  ASP85       0.2266
     16  O         -4.1670  -22.5290   -4.9960 O.2    85  ASP85      -0.2867
     17  CB        -3.6970  -20.2190   -7.0920 C.3    85  ASP85       0.1410
     18  CG        -2.2270  -20.0320   -7.4850 C.2    85  ASP85       0.3668
     19  OD1       -1.3810  -20.8770   -7.1200 O.co2  85  ASP85      -0.2456
     20  OD2       -1.9180  -19.0190   -8.1500 O.co2  85  ASP85      -0.2456
     21  N          3.6150  -15.4580  -12.4930 N.3   130  LEU130     -0.1245
     22  CA         2.8100  -14.9270  -11.3860 C.3   130  LEU130      0.1561
     23  C          2.6720  -16.0200  -10.2940 C.2   130  LEU130      0.2260
     24  O          2.6700  -17.2380  -10.5890 O.2   130  LEU130     -0.2867
     25  CB         1.4260  -14.5650  -11.8870 C.3   130  LEU130      0.0270
     26  CG         1.3500  -13.5420  -13.0270 C.3   130  LEU130      0.0019
     27  CD1       -0.0630  -13.3610  -13.5220 C.3   130  LEU130      0.0001
     28  CD2        1.9560  -12.1810  -12.5730 C.3   130  LEU130      0.0001
     29  N          1.5650  -11.1800   -8.0200 N.3   154  LEU154     -0.1245
     30  CA         0.6650  -12.0610   -7.1990 C.3   154  LEU154      0.1561
     31  C          1.4410  -12.8450   -6.1440 C.2   154  LEU154      0.2260
     32  O          1.1730  -14.0590   -5.9180 O.2   154  LEU154     -0.2867
     33  CB        -0.1610  -12.9960   -8.0750 C.3   154  LEU154      0.0270
     34  CG        -0.9940  -12.3930   -9.2070 C.3   154  LEU154      0.0019
     35  CD1       -1.8920  -13.4490   -9.8600 C.3   154  LEU154      0.0001
     36  CD2       -1.8030  -11.1740   -8.8400 C.3   154  LEU154      0.0001
     37  N         -7.3580  -13.2190   -6.1770 N.3   213  HIS213     -0.1226
     38  CA        -6.1090  -13.7260   -6.7600 C.3   213  HIS213      0.1752
     39  C         -6.2140  -14.1540   -8.2210 C.2   213  HIS213      0.2597
     40  O         -5.2840  -13.8880   -9.0520 O.2   213  HIS213     -0.2718
     41  CB        -5.6250  -14.8970   -5.9150 C.3   213  HIS213      0.0759
     42  CG        -4.2790  -15.4280   -6.2590 C.ar  213  HIS213      0.0818
     43  ND1       -3.1170  -14.8050   -5.8740 N.ar  213  HIS213     -0.2268
     44  CD2       -3.9100  -16.6030   -6.8200 C.ar  213  HIS213      0.1154
     45  CE1       -2.0840  -15.5490   -6.2350 C.ar  213  HIS213      0.1986
     46  NE2       -2.5440  -16.6430   -6.8130 N.ar  213  HIS213     -0.2212
     47  N         -7.3380  -14.7950   -8.5570 N.am  214  SER214     -0.1938
     48  CA        -7.5420  -15.3820   -9.8730 C.3   214  SER214      0.2055
     49  C         -8.1260  -14.4180  -10.9030 C.2   214  SER214      0.2643
     50  O         -8.3270  -14.8330  -12.0420 O.2   214  SER214     -0.2714
     51  CB        -8.5050  -16.5910   -9.7740 C.3   214  SER214      0.2130
     52  OG        -9.7870  -16.1390   -9.4130 O.3   214  SER214     -0.2179
     53  N         -8.3700  -13.1640  -10.5090 N.am  215  ALA215     -0.1963
     54  CA        -9.1770  -12.2190  -11.2520 C.3   215  ALA215      0.1728
     55  C         -8.3510  -11.0910  -11.8710 C.2   215  ALA215      0.2616
     56  O         -8.8890  -10.0230  -12.1070 O.2   215  ALA215     -0.2715
     57  CB       -10.3070  -11.6310  -10.3240 C.3   215  ALA215      0.0334
     58  N         -7.0850  -11.3590  -12.2080 N.am  216  VAL216     -0.1977
     59  CA        -6.3170  -10.3240  -12.9470 C.3   216  VAL216      0.1596
     60  C         -7.1100  -10.0700  -14.2170 C.2   216  VAL216      0.2287
     61  O         -7.4720  -11.0360  -14.9460 O.2   216  VAL216     -0.2864
     62  CB        -4.8870  -10.7750  -13.2850 C.3   216  VAL216      0.0276
     63  CG1       -4.1720   -9.7770  -14.2310 C.3   216  VAL216      0.0022
     64  CG2       -4.0050  -10.9810  -11.9890 C.3   216  VAL216      0.0022
     65  N         -8.2030   -9.7490  -17.9640 N.3   218  THR218     -0.1218
     66  CA        -7.5740  -10.4670  -19.0540 C.3   218  THR218      0.1862
     67  C         -6.7270   -9.5290  -19.9160 C.2   218  THR218      0.2287
     68  O         -5.7370   -9.9270  -20.4510 O.2   218  THR218     -0.2866
     69  CB        -8.6480  -11.2480  -19.9000 C.3   218  THR218      0.1770
     70  OG1       -9.6540  -10.3310  -20.2320 O.3   218  THR218     -0.2211
     71  CG2       -9.2610  -12.3810  -19.0220 C.3   218  THR218      0.0375
     72  N         -3.4560   -9.3480  -18.0940 N.3   221  MET221     -0.1230
     73  CA        -2.6740  -10.5750  -18.0810 C.3   221  MET221      0.1702
     74  C         -2.1390  -10.8960  -19.4660 C.2   221  MET221      0.2592
     75  O         -1.0260  -11.4140  -19.5930 O.2   221  MET221     -0.2718
     76  CB        -3.5120  -11.7670  -17.5790 C.3   221  MET221      0.0401
     77  CG        -2.7420  -13.0730  -17.6530 C.3   221  MET221      0.0596
     78  SD        -3.6320  -14.3900  -16.8120 S.3   221  MET221     -0.1393
     79  CE        -3.2930  -13.8590  -15.1540 C.3   221  MET221      0.0692
     80  N         -2.9470  -10.6440  -20.5030 N.am  222  PHE222     -0.1976
     81  CA        -2.6010  -11.1050  -21.8340 C.3   222  PHE222      0.1639
     82  C         -2.0010   -9.9460  -22.6130 C.2   222  PHE222      0.2290
     83  O         -0.7920   -9.7900  -22.5600 O.2   222  PHE222     -0.2864
     84  CB        -3.7980  -11.8130  -22.5130 C.3   222  PHE222      0.0560
     85  CG        -4.2290  -13.0580  -21.8050 C.ar  222  PHE222     -0.0200
     86  CD1       -3.3490  -14.1300  -21.6530 C.ar  222  PHE222     -0.0042
     87  CD2       -5.4860  -13.1680  -21.2560 C.ar  222  PHE222     -0.0042
     88  CE1       -3.7500  -15.2980  -20.9990 C.ar  222  PHE222     -0.0003
     89  CE2       -5.8610  -14.3040  -20.5910 C.ar  222  PHE222     -0.0003
     90  CZ        -4.9760  -15.3660  -20.4480 C.ar  222  PHE222     -0.0000
@<TRIPOS>BOND
     1    82    83    2
     2    82    81    1
     3    84    81    1
     4    84    85    1
     5    81    80    1
     6    85    86   ar
     7    85    87   ar
     8    86    88   ar
     9    87    89   ar
    10    88    90   ar
    11    89    90   ar
    12    80    74   am
    13    68    67    2
    14     4     3    2
    15    70    69    1
    16    67    66    1
    17    69    66    1
    18    69    71    1
    19    75    74    2
    20    74    73    1
    21     3     2    1
    22    66    65    1
    23     2     1    1
    24     2     5    1
    25    72    73    1
    26    73    76    1
    27     5     6    1
    28    77    76    1
    29    77    78    1
    30    78    79    1
    31     6     8   ar
    32     6     7   ar
    33     8    10   ar
    34     7     9   ar
    35    10    11   ar
    36    61    60    2
    37     9    11   ar
    38    11    12    1
    39    63    62    1
    40    60    59    1
    41    27    26    1
    42    62    59    1
    43    62    64    1
    44    26    28    1
    45    26    25    1
    46    59    58    1
    47    21    22    1
    48    58    55   am
    49    56    55    2
    50    50    49    2
    51    25    22    1
    52    55    54    1
    53    22    23    1
    54    54    53    1
    55    54    57    1
    56    49    53   am
    57    49    48    1
    58    24    23    2
    59    48    51    1
    60    48    47    1
    61    35    34    1
    62    51    52    1
    63    34    36    1
    64    34    33    1
    65    40    39    2
    66    47    39   am
    67    39    38    1
    68    20    18   ar
    69    33    30    1
    70    29    30    1
    71    18    19   ar
    72    18    17    1
    73    14    13    1
    74    14    17    1
    75    14    15    1
    76    30    31    1
    77    44    46   ar
    78    44    42   ar
    79    46    45   ar
    80    38    37    1
    81    38    41    1
    82    42    41    1
    83    42    43   ar
    84    45    43   ar
    85    31    32    2
    86    15    16    2
