@<TRIPOS>MOLECULE
tmp/4ao9A00.pdb
 112 106 0 0 0
SMALL
GASTEIGER

@<TRIPOS>ATOM
      1  N         19.9730   -8.9800  -27.5840 N.3   130  SER130     -0.1202
      2  CA        18.5940   -8.5790  -27.3160 C.3   130  SER130      0.2020
      3  C         17.7410   -8.9000  -28.5360 C.2   130  SER130      0.2619
      4  O         18.2530   -9.0910  -29.6500 O.2   130  SER130     -0.2717
      5  CB        18.5040   -7.0740  -27.0280 C.3   130  SER130      0.2103
      6  OG        18.8570   -6.3300  -28.1920 O.3   130  SER130     -0.2182
      7  N         16.4340   -8.9520  -28.3050 N.am  131  GLY131     -0.1942
      8  CA        15.4580   -9.0710  -29.3950 C.3   131  GLY131      0.2014
      9  C         15.5180   -7.8640  -30.3180 C.2   131  GLY131      0.2639
     10  O         15.3840   -8.0100  -31.5400 O.2   131  GLY131     -0.2714
     11  N         15.7410   -6.6730  -29.7540 N.am  132  THR132     -0.1950
     12  CA        15.8790   -5.4570  -30.5540 C.3   132  THR132      0.1897
     13  C         17.0270   -5.5790  -31.5540 C.2   132  THR132      0.2313
     14  O         16.8660   -5.2930  -32.7470 O.2   132  THR132     -0.2863
     15  CB        16.1000   -4.2460  -29.6410 C.3   132  THR132      0.1794
     16  OG1       14.9680   -4.0860  -28.7730 O.3   132  THR132     -0.2208
     17  CG2       16.3170   -2.9640  -30.4450 C.3   132  THR132      0.0378
     18  N         16.1170   -8.1010  -34.3880 N.3   135  ASN135     -0.1240
     19  CA        15.2680   -7.4830  -35.4190 C.3   135  ASN135      0.1653
     20  C         16.0260   -6.4650  -36.2660 C.2   135  ASN135      0.2266
     21  O         15.8460   -6.4210  -37.4920 O.2   135  ASN135     -0.2867
     22  CB        14.0230   -6.8720  -34.7890 C.3   135  ASN135      0.1155
     23  CG        12.9850   -7.9130  -34.4600 C.2   135  ASN135      0.2627
     24  OD1       12.7510   -8.8430  -35.2450 O.2   135  ASN135     -0.2716
     25  ND2       12.3480   -7.7700  -33.3020 N.am  135  ASN135     -0.0877
     26  N          5.4130   -4.2330  -32.2540 N.3   158  TYR158     -0.1227
     27  CA         6.5180   -3.9890  -31.3370 C.3   158  TYR158      0.1736
     28  C          7.6530   -4.9480  -31.6230 C.2   158  TYR158      0.2595
     29  O          7.5020   -6.1770  -31.4900 O.2   158  TYR158     -0.2718
     30  CB         6.1050   -4.0830  -29.8600 C.3   158  TYR158      0.0548
     31  CG         7.2730   -3.8120  -28.9440 C.ar  158  TYR158     -0.0200
     32  CD1        7.7220   -2.5080  -28.7290 C.ar  158  TYR158     -0.0009
     33  CD2        7.9770   -4.8580  -28.3570 C.ar  158  TYR158     -0.0009
     34  CE1        8.8240   -2.2550  -27.9050 C.ar  158  TYR158      0.0417
     35  CE2        9.0860   -4.6120  -27.5300 C.ar  158  TYR158      0.0417
     36  CZ         9.4980   -3.3080  -27.3200 C.ar  158  TYR158      0.1957
     37  OH        10.5930   -3.0560  -26.5220 O.3   158  TYR158     -0.2866
     38  N          8.8070   -4.3730  -31.9630 N.am  159  HIS159     -0.1961
     39  CA         9.9550   -5.1760  -32.3790 C.3   159  HIS159      0.1787
     40  C         11.2110   -4.7980  -31.6070 C.2   159  HIS159      0.2620
     41  O         12.3200   -5.2050  -31.9620 O.2   159  HIS159     -0.2715
     42  CB        10.1510   -5.0610  -33.8890 C.3   159  HIS159      0.0785
     43  CG         8.9170   -5.4140  -34.6590 C.ar  159  HIS159      0.0821
     44  ND1        8.4320   -6.7020  -34.7290 N.ar  159  HIS159     -0.2267
     45  CD2        8.0520   -4.6430  -35.3700 C.ar  159  HIS159      0.1154
     46  CE1        7.3280   -6.7100  -35.4630 C.ar  159  HIS159      0.1986
     47  NE2        7.0810   -5.4770  -35.8650 N.ar  159  HIS159     -0.2212
     48  N         11.0180   -4.0330  -30.5310 N.am  160  GLY160     -0.1954
     49  CA        12.1180   -3.6260  -29.6620 C.3   160  GLY160      0.1869
     50  C         12.1760   -2.1390  -29.4260 C.2   160  GLY160      0.2309
     51  O         11.3300   -1.3890  -29.9210 O.2   160  GLY160     -0.2863
     52  N          4.6970   -9.7210  -36.2180 N.3   206  GLU206     -0.1245
     53  CA         4.4730  -10.6840  -35.1320 C.3   206  GLU206      0.1567
     54  C          3.2880  -11.5810  -35.4980 C.2   206  GLU206      0.2260
     55  O          2.2360  -11.0640  -35.8560 O.2   206  GLU206     -0.2867
     56  CB         4.1230   -9.9460  -33.8440 C.3   206  GLU206      0.0388
     57  CG         5.2250   -9.0020  -33.3140 C.3   206  GLU206      0.1160
     58  CD         4.6300   -7.9440  -32.4070 C.2   206  GLU206      0.3649
     59  OE1        4.4980   -8.2220  -31.1890 O.co2 206  GLU206     -0.2457
     60  OE2        4.2620   -6.8640  -32.9300 O.co2 206  GLU206     -0.2457
     61  N          2.2830   -8.8680  -29.3270 N.3   210  GLY210     -0.1210
     62  CA         2.4780   -9.0040  -27.8820 C.3   210  GLY210      0.1956
     63  C          2.1360   -7.7290  -27.1430 C.2   210  GLY210      0.2611
     64  O          1.0970   -7.6360  -26.4780 O.2   210  GLY210     -0.2717
     65  N          3.0210   -6.7440  -27.2490 N.am  211  ALA211     -0.1979
     66  CA         2.8790   -5.4700  -26.5510 C.3   211  ALA211      0.1597
     67  C          1.5600   -4.7500  -26.8000 C.2   211  ALA211      0.2287
     68  O          1.0360   -4.0940  -25.8950 O.2   211  ALA211     -0.2864
     69  CB         4.0590   -4.5530  -26.8820 C.3   211  ALA211      0.0319
     70  N          8.7150  -12.0450  -36.4630 N.3   239  ASP239     -0.1239
     71  CA         9.2460  -11.7500  -35.1450 C.3   239  ASP239      0.1674
     72  C          8.5890  -12.7160  -34.1650 C.2   239  ASP239      0.2266
     73  O          7.4380  -12.5190  -33.7760 O.2   239  ASP239     -0.2867
     74  CB         8.9490  -10.2830  -34.7900 C.3   239  ASP239      0.1410
     75  CG         9.4700   -9.8970  -33.4140 C.2   239  ASP239      0.3668
     76  OD1        9.7700  -10.7930  -32.6010 O.co2 239  ASP239     -0.2456
     77  OD2        9.5780   -8.6890  -33.1480 O.co2 239  ASP239     -0.2456
     78  N         10.0230  -13.4110  -31.1910 N.3   241  VAL241     -0.1231
     79  CA        10.6570  -13.1850  -29.8810 C.3   241  VAL241      0.1692
     80  C          9.7200  -13.6240  -28.7560 C.2   241  VAL241      0.2591
     81  O         10.1580  -14.2390  -27.7890 O.2   241  VAL241     -0.2718
     82  CB        11.1170  -11.7160  -29.7120 C.3   241  VAL241      0.0266
     83  CG1       11.5130  -11.4170  -28.2560 C.3   241  VAL241      0.0020
     84  CG2       12.2730  -11.4010  -30.6650 C.3   241  VAL241      0.0020
     85  N          8.4390  -13.3140  -28.8930 N.am  242  MET242     -0.1979
     86  CA         7.4380  -13.8020  -27.9440 C.3   242  MET242      0.1605
     87  C          6.7680  -15.0980  -28.4280 C.2   242  MET242      0.2287
     88  O          6.6280  -16.0610  -27.6710 O.2   242  MET242     -0.2864
     89  CB         6.3970  -12.7150  -27.6970 C.3   242  MET242      0.0413
     90  CG         5.6700  -12.8660  -26.4090 C.3   242  MET242      0.0598
     91  SD         4.7700  -11.3470  -26.0810 S.3   242  MET242     -0.1393
     92  CE         5.9540  -10.3360  -25.2060 C.3   242  MET242      0.0692
     93  N         14.0390  -13.2650  -25.5900 N.3   266  LYS266     -0.1245
     94  CA        13.4500  -13.4970  -24.2520 C.3   266  LYS266      0.1561
     95  C         13.9150  -14.8680  -23.6630 C.2   266  LYS266      0.2260
     96  O         15.1040  -15.0330  -23.3790 O.2   266  LYS266     -0.2867
     97  CB        11.9430  -13.1860  -24.2730 C.3   266  LYS266      0.0271
     98  CG        11.8340  -11.6330  -24.3620 C.3   266  LYS266      0.0035
     99  CD        10.4470  -11.1300  -23.9970 C.3   266  LYS266      0.0206
    100  CE        10.2880   -9.6040  -24.0770 C.3   266  LYS266      0.1093
    101  NZ         9.6860   -9.2200  -25.3760 N.3   266  LYS266     -0.1314
    102  N         19.7760  -12.0890  -24.3080 N.3   274  PHE274     -0.1241
    103  CA        19.7620  -12.9560  -25.4830 C.3   274  PHE274      0.1605
    104  C         18.8990  -12.4220  -26.6070 C.2   274  PHE274      0.2264
    105  O         17.8480  -11.8200  -26.3530 O.2   274  PHE274     -0.2867
    106  CB        19.2060  -14.3390  -25.0930 C.3   274  PHE274      0.0534
    107  CG        19.0420  -15.2670  -26.2560 C.ar  274  PHE274     -0.0203
    108  CD1       20.1050  -16.0650  -26.6600 C.ar  274  PHE274     -0.0042
    109  CD2       17.8360  -15.3360  -26.9560 C.ar  274  PHE274     -0.0042
    110  CE1       19.9800  -16.9100  -27.7520 C.ar  274  PHE274     -0.0003
    111  CE2       17.7120  -16.1650  -28.0740 C.ar  274  PHE274     -0.0003
    112  CZ        18.7840  -16.9550  -28.4560 C.ar  274  PHE274     -0.0000
@<TRIPOS>BOND
     1    21    20    2
     2    70    71    1
     3    20    19    1
     4    52    53    1
     5    47    46   ar
     6    47    45   ar
     7    55    54    2
     8    54    53    1
     9    46    44   ar
    10    19    22    1
    11    19    18    1
    12    45    43   ar
    13    24    23    2
    14    71    74    1
    15    71    72    1
    16    53    56    1
    17    74    75    1
    18    22    23    1
    19    44    43   ar
    20    43    42    1
    21    23    25   am
    22    72    73    2
    23    42    39    1
    24    56    57    1
    25    75    77   ar
    26    75    76   ar
    27    57    58    1
    28    60    58   ar
    29    14    13    2
    30    58    59   ar
    31    39    38    1
    32    39    40    1
    33    26    27    1
    34    38    28   am
    35    41    40    2
    36    28    29    2
    37    28    27    1
    38    40    48   am
    39    13    12    1
    40    10     9    2
    41    27    30    1
    42    78    79    1
    43    84    82    1
    44    12    11    1
    45    12    15    1
    46    48    49    1
    47    17    15    1
    48     9    11   am
    49     9     8    1
    50    51    50    2
    51    79    82    1
    52    79    80    1
    53    30    31    1
    54    82    83    1
    55    49    50    1
    56     4     3    2
    57    15    16    1
    58     8     7    1
    59    61    62    1
    60    31    32   ar
    61    31    33   ar
    62    85    80   am
    63    85    86    1
    64    80    81    2
    65    32    34   ar
    66     3     7   am
    67     3     2    1
    68   112   111   ar
    69   112   110   ar
    70    87    86    1
    71    87    88    2
    72    33    35   ar
    73     6     5    1
    74   111   109   ar
    75    86    89    1
    76    34    36   ar
    77    62    63    1
    78   110   108   ar
    79    89    90    1
    80     1     2    1
    81    35    36   ar
    82    36    37    1
    83     2     5    1
    84    65    63   am
    85    65    66    1
    86    63    64    2
    87   109   107   ar
    88    69    66    1
    89    67    66    1
    90    67    68    2
    91   108   107   ar
    92   104   105    2
    93   104   103    1
    94    90    91    1
    95   107   106    1
    96    91    92    1
    97    93    94    1
    98   103   106    1
    99   103   102    1
   100   101   100    1
   101    98    97    1
   102    98    99    1
   103    97    94    1
   104    94    95    1
   105   100    99    1
   106    95    96    2
