@<TRIPOS>MOLECULE
tmp/4aoaB01.pdb
 161 151 0 0 0
SMALL
GASTEIGER

@<TRIPOS>ATOM
      1  N         58.1440  100.8370   34.7430 N.3    39  ARG39      -0.1245
      2  CA        57.3520   99.9430   33.9170 C.3    39  ARG39       0.1563
      3  C         55.8730  100.3290   34.0360 C.2    39  ARG39       0.2260
      4  O         55.2050  100.0070   35.0260 O.2    39  ARG39      -0.2867
      5  CB        57.5900   98.5070   34.3760 C.3    39  ARG39       0.0307
      6  CG        57.1290   97.4440   33.4240 C.3    39  ARG39       0.0489
      7  CD        57.4440   96.0950   34.0170 C.3    39  ARG39       0.2205
      8  NE        56.5090   95.0860   33.5440 N.pl3  39  ARG39      -0.0865
      9  CZ        56.2100   93.9810   34.2120 C.cat  39  ARG39       0.5346
     10  NH1       56.7760   93.7380   35.3940 N.pl3  39  ARG39       0.1354
     11  NH2       55.3440   93.1210   33.6950 N.pl3  39  ARG39       0.1354
     12  N         52.7950   99.6440   33.0920 N.3    41  VAL41      -0.1245
     13  CA        51.6690   98.7740   33.4830 C.3    41  VAL41       0.1561
     14  C         51.5750   98.5200   34.9950 C.2    41  VAL41       0.2260
     15  O         50.5050   98.1700   35.5090 O.2    41  VAL41      -0.2867
     16  CB        51.6760   97.4030   32.7440 C.3    41  VAL41       0.0252
     17  CG1       51.3310   97.5770   31.2700 C.3    41  VAL41       0.0019
     18  CG2       53.0130   96.6640   32.9410 C.3    41  VAL41       0.0019
     19  N         52.3740   89.1830   33.8510 N.3    74  TYR74      -0.1241
     20  CA        51.8110   89.4470   32.5220 C.3    74  TYR74       0.1605
     21  C         52.1420   88.3230   31.5270 C.2    74  TYR74       0.2264
     22  O         52.5920   88.5710   30.4010 O.2    74  TYR74      -0.2867
     23  CB        52.2120   90.8550   32.0350 C.3    74  TYR74       0.0534
     24  CG        51.4570   91.9520   32.7700 C.ar   74  TYR74      -0.0201
     25  CD1       51.8010   92.3160   34.0770 C.ar   74  TYR74      -0.0009
     26  CD2       50.3810   92.6010   32.1710 C.ar   74  TYR74      -0.0009
     27  CE1       51.0920   93.3140   34.7650 C.ar   74  TYR74       0.0417
     28  CE2       49.6700   93.5990   32.8420 C.ar   74  TYR74       0.0417
     29  CZ        50.0290   93.9510   34.1380 C.ar   74  TYR74       0.1957
     30  OH        49.3220   94.9290   34.8020 O.3    74  TYR74      -0.2866
     31  N         64.2980   90.7900   24.8510 N.3   129  SER129     -0.1202
     32  CA        62.9000   91.1600   25.0830 C.3   129  SER129      0.2020
     33  C         62.0360   90.8800   23.8510 C.2   129  SER129      0.2619
     34  O         62.5490   90.7030   22.7450 O.2   129  SER129     -0.2717
     35  CB        62.7900   92.6490   25.4250 C.3   129  SER129      0.2103
     36  OG        63.0860   93.4310   24.2780 O.3   129  SER129     -0.2182
     37  N         60.7200   90.8750   24.0580 N.am  130  GLY130     -0.1942
     38  CA        59.7490   90.7650   22.9680 C.3   130  GLY130      0.2014
     39  C         59.7590   91.9680   22.0410 C.2   130  GLY130      0.2639
     40  O         59.5360   91.8210   20.8410 O.2   130  GLY130     -0.2714
     41  N         60.0130   93.1530   22.6000 N.am  131  THR131     -0.1950
     42  CA        60.1470   94.3950   21.8290 C.3   131  THR131      0.1897
     43  C         61.2880   94.2680   20.8160 C.2   131  THR131      0.2313
     44  O         61.1170   94.5720   19.6310 O.2   131  THR131     -0.2863
     45  CB        60.3900   95.6140   22.7630 C.3   131  THR131      0.1794
     46  OG1       59.2720   95.7780   23.6400 O.3   131  THR131     -0.2208
     47  CG2       60.5980   96.9030   21.9690 C.3   131  THR131      0.0378
     48  N         60.3750   91.6350   17.9120 N.3   134  ASN134     -0.1240
     49  CA        59.5450   92.2500   16.8730 C.3   134  ASN134      0.1653
     50  C         60.3090   93.2740   16.0340 C.2   134  ASN134      0.2266
     51  O         60.1260   93.3340   14.8210 O.2   134  ASN134     -0.2867
     52  CB        58.2810   92.8760   17.4760 C.3   134  ASN134      0.1155
     53  CG        57.2770   91.8350   17.9500 C.2   134  ASN134      0.2627
     54  OD1       56.9660   90.8830   17.2320 O.2   134  ASN134     -0.2716
     55  ND2       56.7520   92.0230   19.1570 N.am  134  ASN134     -0.0877
     56  N         49.6020   95.6460   20.1370 N.3   157  TYR157     -0.1227
     57  CA        50.7330   95.9240   21.0050 C.3   157  TYR157      0.1736
     58  C         51.8510   94.9310   20.7290 C.2   157  TYR157      0.2595
     59  O         51.6470   93.7170   20.8270 O.2   157  TYR157     -0.2718
     60  CB        50.3420   95.9010   22.4900 C.3   157  TYR157      0.0548
     61  CG        51.4750   96.3670   23.3810 C.ar  157  TYR157     -0.0200
     62  CD1       51.7500   97.7280   23.5340 C.ar  157  TYR157     -0.0009
     63  CD2       52.2990   95.4490   24.0430 C.ar  157  TYR157     -0.0009
     64  CE1       52.8040   98.1620   24.3270 C.ar  157  TYR157      0.0417
     65  CE2       53.3580   95.8800   24.8430 C.ar  157  TYR157      0.0417
     66  CZ        53.6010   97.2350   24.9750 C.ar  157  TYR157      0.1957
     67  OH        54.6420   97.6750   25.7570 O.3   157  TYR157     -0.2866
     68  N         53.0260   95.4620   20.3880 N.am  158  HIS158     -0.1961
     69  CA        54.1780   94.6450   19.9980 C.3   158  HIS158      0.1787
     70  C         55.4490   95.0420   20.7430 C.2   158  HIS158      0.2621
     71  O         56.5420   94.5950   20.4050 O.2   158  HIS158     -0.2715
     72  CB        54.3870   94.6970   18.4760 C.3   158  HIS158      0.0785
     73  CG        53.1640   94.3320   17.6970 C.ar  158  HIS158      0.0821
     74  ND1       52.6700   93.0470   17.6500 N.ar  158  HIS158     -0.2267
     75  CD2       52.3160   95.0890   16.9600 C.ar  158  HIS158      0.1154
     76  CE1       51.5750   93.0240   16.9080 C.ar  158  HIS158      0.1986
     77  NE2       51.3410   94.2500   16.4750 N.ar  158  HIS158     -0.2212
     78  N         55.2920   95.8750   21.7690 N.am  159  GLY159     -0.1940
     79  CA        56.4000   96.2370   22.6430 C.3   159  GLY159      0.2014
     80  C         56.4770   97.7200   22.9190 C.2   159  GLY159      0.2639
     81  O         55.6670   98.4940   22.4020 O.2   159  GLY159     -0.2714
     82  N         57.4740   98.1090   23.7180 N.am  160  GLY160     -0.1954
     83  CA        57.6130   99.4750   24.2320 C.3   160  GLY160      0.1869
     84  C         57.6180  100.5630   23.1780 C.2   160  GLY160      0.2309
     85  O         57.1610  101.6770   23.4310 O.2   160  GLY160     -0.2863
     86  N         48.9450   90.0130   16.0850 N.3   205  GLU205     -0.1245
     87  CA        48.7590   89.0560   17.1730 C.3   205  GLU205      0.1567
     88  C         47.5680   88.1660   16.8160 C.2   205  GLU205      0.2260
     89  O         46.5090   88.6840   16.4640 O.2   205  GLU205     -0.2867
     90  CB        48.4730   89.7770   18.4980 C.3   205  GLU205      0.0388
     91  CG        49.5160   90.8140   18.9310 C.3   205  GLU205      0.1160
     92  CD        48.9330   91.8550   19.8860 C.2   205  GLU205      0.3649
     93  OE1       48.7450   91.5470   21.0870 O.co2 205  GLU205     -0.2457
     94  OE2       48.6550   92.9840   19.4260 O.co2 205  GLU205     -0.2457
     95  N         45.8040   86.5040   18.8340 N.3   207  MET207     -0.1245
     96  CA        44.8520   87.0710   19.7880 C.3   207  MET207      0.1570
     97  C         45.5290   88.2970   20.3890 C.2   207  MET207      0.2261
     98  O         46.6480   88.2040   20.8940 O.2   207  MET207     -0.2867
     99  CB        44.4920   86.0730   20.9000 C.3   207  MET207      0.0387
    100  CG        43.4870   86.6320   21.9180 C.3   207  MET207      0.0595
    101  SD        43.4250   85.7990   23.5250 S.3   207  MET207     -0.1393
    102  CE        44.9620   86.3270   24.2720 C.3   207  MET207      0.0692
    103  N         47.2620   93.0890   25.0920 N.3   210  ALA210     -0.1245
    104  CA        47.0880   94.3570   25.7990 C.3   210  ALA210      0.1562
    105  C         45.7230   95.0280   25.5890 C.2   210  ALA210      0.2260
    106  O         45.2020   95.6620   26.5030 O.2   210  ALA210     -0.2867
    107  CB        48.2210   95.3280   25.4430 C.3   210  ALA210      0.0290
    108  N         52.9210   87.7050   15.8940 N.3   238  ASP238     -0.1239
    109  CA        53.4250   88.0220   17.2200 C.3   238  ASP238      0.1674
    110  C         52.8150   87.0460   18.2310 C.2   238  ASP238      0.2266
    111  O         51.6800   87.2300   18.6780 O.2   238  ASP238     -0.2867
    112  CB        53.1040   89.4740   17.5890 C.3   238  ASP238      0.1410
    113  CG        53.7130   89.8920   18.9200 C.2   238  ASP238      0.3668
    114  OD1       54.0740   89.0110   19.7300 O.co2 238  ASP238     -0.2456
    115  OD2       53.8300   91.1100   19.1510 O.co2 238  ASP238     -0.2456
    116  N         54.3700   86.3930   21.2010 N.3   240  VAL240     -0.1231
    117  CA        55.0080   86.6810   22.4960 C.3   240  VAL240      0.1692
    118  C         54.1340   86.2100   23.6810 C.2   240  VAL240      0.2591
    119  O         54.6300   85.5420   24.5930 O.2   240  VAL240     -0.2718
    120  CB        55.4150   88.1790   22.6420 C.3   240  VAL240      0.0266
    121  CG1       55.7930   88.5050   24.0840 C.3   240  VAL240      0.0020
    122  CG2       56.5870   88.5150   21.7060 C.3   240  VAL240      0.0020
    123  N         52.8430   86.5400   23.6430 N.am  241  MET241     -0.1979
    124  CA        51.8820   86.0710   24.6490 C.3   241  MET241      0.1605
    125  C         51.2220   84.7710   24.2070 C.2   241  MET241      0.2287
    126  O         51.0340   83.8500   24.9910 O.2   241  MET241     -0.2864
    127  CB        50.7980   87.1310   24.8910 C.3   241  MET241      0.0413
    128  CG        51.0420   88.0320   26.1100 C.3   241  MET241      0.0598
    129  SD        49.6680   89.1590   26.4840 S.3   241  MET241     -0.1393
    130  CE        48.2660   88.0900   26.1610 C.3   241  MET241      0.0692
    131  N         58.2570   86.3030   26.9470 N.3   265  LYS265     -0.1245
    132  CA        57.6140   85.9730   28.2160 C.3   265  LYS265      0.1561
    133  C         58.2370   84.7600   28.9310 C.2   265  LYS265      0.2260
    134  O         59.3720   84.8300   29.3990 O.2   265  LYS265     -0.2867
    135  CB        56.0990   85.7970   28.0170 C.3   265  LYS265      0.0271
    136  CG        55.3910   87.0350   27.4780 C.3   265  LYS265      0.0035
    137  CD        55.4220   88.1930   28.4700 C.3   265  LYS265      0.0206
    138  CE        54.5820   89.3550   27.9760 C.3   265  LYS265      0.1093
    139  NZ        54.4230   90.4230   29.0150 N.3   265  LYS265     -0.1314
    140  N         63.9970   87.6520   28.2230 N.3   273  PHE273     -0.1241
    141  CA        63.9560   86.7960   27.0470 C.3   273  PHE273      0.1605
    142  C         63.1500   87.3590   25.8830 C.2   273  PHE273      0.2264
    143  O         62.1210   88.0090   26.0680 O.2   273  PHE273     -0.2867
    144  CB        63.4000   85.4030   27.4030 C.3   273  PHE273      0.0534
    145  CG        63.2770   84.4920   26.2180 C.ar  273  PHE273     -0.0203
    146  CD1       64.3540   83.7100   25.8140 C.ar  273  PHE273     -0.0042
    147  CD2       62.0980   84.4460   25.4760 C.ar  273  PHE273     -0.0042
    148  CE1       64.2550   82.8820   24.7010 C.ar  273  PHE273     -0.0003
    149  CE2       61.9940   83.6320   24.3510 C.ar  273  PHE273     -0.0003
    150  CZ        63.0710   82.8430   23.9670 C.ar  273  PHE273     -0.0000
    151  N         43.9600   96.4800   34.4670 N.3   396  ARG396     -0.1245
    152  CA        43.1940   96.3930   33.2180 C.3   396  ARG396      0.1563
    153  C         42.2160   95.2040   33.1980 C.2   396  ARG396      0.2260
    154  O         41.4410   95.0420   32.2480 O.2   396  ARG396     -0.2867
    155  CB        44.1290   96.3790   31.9920 C.3   396  ARG396      0.0307
    156  CG        45.0410   95.1500   31.8990 C.3   396  ARG396      0.0489
    157  CD        45.5150   94.8810   30.4650 C.3   396  ARG396      0.2205
    158  NE        46.8570   95.3920   30.1880 N.pl3 396  ARG396     -0.0865
    159  CZ        47.8700   94.6650   29.7060 C.cat 396  ARG396      0.5346
    160  NH1       47.7120   93.3780   29.4230 N.pl3 396  ARG396      0.1354
    161  NH2       49.0500   95.2380   29.4890 N.pl3 396  ARG396      0.1354
@<TRIPOS>BOND
     1    51    50    2
     2   108   109    1
     3    50    49    1
     4    86    87    1
     5    89    88    2
     6    77    76   ar
     7    77    75   ar
     8    88    87    1
     9    49    52    1
    10    49    48    1
    11    76    74   ar
    12    75    73   ar
    13    87    90    1
    14   109   112    1
    15   109   110    1
    16    54    53    2
    17    52    53    1
    18   112   113    1
    19    74    73   ar
    20    73    72    1
    21    53    55   am
    22   110   111    2
    23    72    69    1
    24    90    91    1
    25    95    96    1
    26   113   115   ar
    27   113   114   ar
    28    91    92    1
    29    94    92   ar
    30    44    43    2
    31    96    97    1
    32    96    99    1
    33    92    93   ar
    34    69    68    1
    35    69    70    1
    36    56    57    1
    37    68    58   am
    38    97    98    2
    39    71    70    2
    40    58    59    2
    41    58    57    1
    42    70    78   am
    43    43    42    1
    44    40    39    2
    45    99   100    1
    46    57    60    1
    47   116   117    1
    48   122   120    1
    49    78    79    1
    50    42    41    1
    51    42    45    1
    52   100   101    1
    53    47    45    1
    54    39    41   am
    55    39    38    1
    56    81    80    2
    57    60    61    1
    58   117   120    1
    59   117   118    1
    60   120   121    1
    61    79    80    1
    62    34    33    2
    63    45    46    1
    64    80    82   am
    65    38    37    1
    66    84    85    2
    67    84    83    1
    68    61    62   ar
    69    61    63   ar
    70   101   102    1
    71    62    64   ar
    72   123   118   am
    73   123   124    1
    74   118   119    2
    75    82    83    1
    76    33    37   am
    77    33    32    1
    78   150   149   ar
    79   150   148   ar
    80    63    65   ar
    81   125   124    1
    82   125   126    2
    83    36    35    1
    84    64    66   ar
    85   149   147   ar
    86   124   127    1
    87   148   146   ar
    88    65    66   ar
    89    31    32    1
    90   127   128    1
    91    66    67    1
    92    32    35    1
    93   103   104    1
    94   107   104    1
    95   147   145   ar
    96   105   104    1
    97   105   106    2
    98   146   145   ar
    99   142   143    2
   100   142   141    1
   101   128   129    1
   102   130   129    1
   103   145   144    1
   104   131   132    1
   105   141   144    1
   106   141   140    1
   107   136   135    1
   108   136   137    1
   109   138   137    1
   110   138   139    1
   111   135   132    1
   112   132   133    1
   113   133   134    2
   114   160   159    1
   115   161   159    1
   116   159   158    2
   117   158   157    1
   118    22    21    2
   119   157   156    1
   120    17    16    1
   121    21    20    1
   122   156   155    1
   123   155   152    1
   124    23    20    1
   125    23    24    1
   126    26    24   ar
   127    26    28   ar
   128   154   153    2
   129    20    19    1
   130    16    18    1
   131    16    13    1
   132    24    25   ar
   133    28    29   ar
   134    12    13    1
   135   153   152    1
   136   152   151    1
   137     6     7    1
   138     6     5    1
   139    13    14    1
   140     8     7    1
   141     8     9    2
   142    11     9    1
   143     2     3    1
   144     2     5    1
   145     2     1    1
   146     3     4    2
   147    25    27   ar
   148    29    27   ar
   149    29    30    1
   150     9    10    1
   151    14    15    2
