@<TRIPOS>MOLECULE
tmp/4aofA00.pdb
 195 184 0 0 0
SMALL
GASTEIGER

@<TRIPOS>ATOM
      1  N         48.1620   16.9820   41.5970 N.3   562  MET562     -0.1245
      2  CA        47.7820   17.9940   40.6050 C.3   562  MET562      0.1570
      3  C         46.6920   18.9510   41.1100 C.2   562  MET562      0.2261
      4  O         45.5900   18.5200   41.4760 O.2   562  MET562     -0.2867
      5  CB        47.3390   17.3260   39.2960 C.3   562  MET562      0.0387
      6  CG        47.6760   15.8340   39.1790 C.3   562  MET562      0.0595
      7  SD        47.6180   15.1790   37.4970 S.3   562  MET562     -0.1393
      8  CE        46.2930   16.1210   36.7300 C.3   562  MET562      0.0692
      9  N         44.3560   20.4530   40.1830 N.3   564  SER564     -0.1217
     10  CA        42.9990   20.2870   39.6500 C.3   564  SER564      0.1889
     11  C         41.9170   20.1790   40.7290 C.2   564  SER564      0.2288
     12  O         42.1880   19.7290   41.8440 O.2   564  SER564     -0.2866
     13  CB        42.9430   19.0690   38.7270 C.3   564  SER564      0.2089
     14  OG        41.7210   19.0380   38.0170 O.3   564  SER564     -0.2183
     15  N         39.1600   18.3560   41.6440 N.3   566  LYS566     -0.1245
     16  CA        39.2740   17.0530   42.2980 C.3   566  LYS566      0.1561
     17  C         40.7780   16.8280   42.4390 C.2   566  LYS566      0.2260
     18  O         41.5510   17.3150   41.6130 O.2   566  LYS566     -0.2867
     19  CB        38.6430   15.9560   41.4180 C.3   566  LYS566      0.0271
     20  CG        37.3360   16.3620   40.7030 C.3   566  LYS566      0.0035
     21  CD        37.0610   15.5020   39.4780 C.3   566  LYS566      0.0206
     22  CE        35.9480   16.0900   38.6070 C.3   566  LYS566      0.1093
     23  NZ        35.6320   15.2360   37.4100 N.3   566  LYS566     -0.1314
     24  N         43.7420   14.5800   42.0150 N.3   568  PRO568     -0.2116
     25  CA        44.3150   13.3330   41.5370 C.3   568  PRO568      0.1372
     26  C         45.7380   13.2020   42.0590 C.2   568  PRO568      0.2244
     27  O         46.1280   13.9380   42.9670 O.2   568  PRO568     -0.2868
     28  CB        44.2980   13.4930   40.0000 C.3   568  PRO568      0.0268
     29  CG        43.6810   14.8310   39.7220 C.3   568  PRO568      0.0207
     30  CD        43.8530   15.6230   40.9820 C.3   568  PRO568      0.0892
     31  N         49.6180   12.6260   40.2380 N.3   570  TRP570     -0.1241
     32  CA        50.5820   12.3270   39.1800 C.3   570  TRP570      0.1605
     33  C         51.6610   11.4270   39.7650 C.2   570  TRP570      0.2264
     34  O         52.5920   11.9020   40.4240 O.2   570  TRP570     -0.2867
     35  CB        51.1880   13.6060   38.5970 C.3   570  TRP570      0.0550
     36  CG        52.2650   13.3670   37.5550 C.ar  570  TRP570      0.0003
     37  CD1       53.5040   12.8080   37.7540 C.ar  570  TRP570      0.0946
     38  CD2       52.2020   13.7010   36.1620 C.ar  570  TRP570      0.0152
     39  NE1       54.2040   12.7640   36.5750 N.ar  570  TRP570     -0.2442
     40  CE2       53.4310   13.3090   35.5810 C.ar  570  TRP570      0.0810
     41  CE3       51.2240   14.2900   35.3450 C.ar  570  TRP570      0.0012
     42  CZ2       53.7080   13.4880   34.2210 C.ar  570  TRP570      0.0191
     43  CZ3       51.5000   14.4680   33.9930 C.ar  570  TRP570      0.0001
     44  CH2       52.7340   14.0710   33.4480 C.ar  570  TRP570      0.0015
     45  N         48.1580    8.6760   35.9880 N.3   589  ILE589     -0.1245
     46  CA        47.2570    9.5060   36.7690 C.3   589  ILE589      0.1561
     47  C         46.3840    8.5970   37.6160 C.2   589  ILE589      0.2260
     48  O         45.8580    7.6100   37.1100 O.2   589  ILE589     -0.2867
     49  CB        46.3470   10.3300   35.8640 C.3   589  ILE589      0.0252
     50  CG1       47.1680   11.2950   35.0190 C.3   589  ILE589      0.0019
     51  CG2       45.3200   11.0900   36.6910 C.3   589  ILE589      0.0019
     52  CD1       46.5610   11.5520   33.6630 C.3   589  ILE589      0.0001
     53  N         43.1430    9.3570   39.7050 N.3   591  LYS591     -0.1245
     54  CA        42.0650   10.2140   40.2030 C.3   591  LYS591      0.1561
     55  C         41.2030    9.5150   41.2610 C.2   591  LYS591      0.2260
     56  O         41.4760    8.3710   41.6320 O.2   591  LYS591     -0.2867
     57  CB        41.1930   10.6930   39.0390 C.3   591  LYS591      0.0271
     58  CG        41.9270   11.6560   38.1230 C.3   591  LYS591      0.0035
     59  CD        41.0210   12.1630   37.0120 C.3   591  LYS591      0.0206
     60  CE        41.5150   13.4760   36.4690 C.3   591  LYS591      0.1093
     61  NZ        40.7710   13.8440   35.2390 N.3   591  LYS591     -0.1314
     62  N         35.3550   10.2520   40.8770 N.3   594  ASP594     -0.1239
     63  CA        34.8620   10.1800   39.4980 C.3   594  ASP594      0.1674
     64  C         34.3920    8.7610   39.1670 C.2   594  ASP594      0.2266
     65  O         35.0070    7.7760   39.6040 O.2   594  ASP594     -0.2867
     66  CB        35.9640   10.5940   38.5000 C.3   594  ASP594      0.1410
     67  CG        35.8650   12.0740   38.0430 C.2   594  ASP594      0.3668
     68  OD1       34.7600   12.6710   38.0870 O.co2 594  ASP594     -0.2456
     69  OD2       36.9040   12.6360   37.6040 O.co2 594  ASP594     -0.2456
     70  N         34.1210    7.9450   30.4240 N.3   599  ASP599     -0.1239
     71  CA        35.3590    8.1460   29.6600 C.3   599  ASP599      0.1674
     72  C         35.7610    6.8290   28.9760 C.2   599  ASP599      0.2266
     73  O         35.9590    6.7670   27.7580 O.2   599  ASP599     -0.2867
     74  CB        36.5010    8.6630   30.5640 C.3   599  ASP599      0.1410
     75  CG        36.5130   10.2010   30.7150 C.2   599  ASP599      0.3668
     76  OD1       35.5480   10.7570   31.2890 O.co2 599  ASP599     -0.2456
     77  OD2       37.5030   10.8560   30.2850 O.co2 599  ASP599     -0.2456
     78  N         44.1320    7.2740   24.7130 N.3   625  TYR625     -0.1241
     79  CA        44.9190    6.7760   25.8370 C.3   625  TYR625      0.1605
     80  C         44.2320    5.6300   26.5910 C.2   625  TYR625      0.2264
     81  O         43.0810    5.2680   26.2960 O.2   625  TYR625     -0.2867
     82  CB        45.2290    7.9230   26.7940 C.3   625  TYR625      0.0534
     83  CG        44.0150    8.7410   27.1870 C.ar  625  TYR625     -0.0201
     84  CD1       43.4920    9.7200   26.3310 C.ar  625  TYR625     -0.0009
     85  CD2       43.3950    8.5480   28.4180 C.ar  625  TYR625     -0.0009
     86  CE1       42.3740   10.4830   26.7000 C.ar  625  TYR625      0.0417
     87  CE2       42.2830    9.3050   28.7950 C.ar  625  TYR625      0.0417
     88  CZ        41.7750   10.2680   27.9360 C.ar  625  TYR625      0.1957
     89  OH        40.6730   11.0110   28.3190 O.3   625  TYR625     -0.2866
     90  N         44.4360    6.5560   34.7910 N.3   637  ILE637     -0.1231
     91  CA        44.4590    7.0150   33.3950 C.3   637  ILE637      0.1692
     92  C         45.8900    7.1530   32.8460 C.2   637  ILE637      0.2592
     93  O         46.8000    7.5500   33.5810 O.2   637  ILE637     -0.2718
     94  CB        43.7610    8.4000   33.3160 C.3   637  ILE637      0.0266
     95  CG1       42.2440    8.2460   33.4630 C.3   637  ILE637      0.0019
     96  CG2       44.1280    9.1490   32.0420 C.3   637  ILE637      0.0020
     97  CD1       41.5320    9.4460   34.0600 C.3   637  ILE637      0.0001
     98  N         46.0770    6.8430   31.5590 N.am  638  GLU638     -0.1966
     99  CA        47.3920    6.8870   30.8930 C.3   638  GLU638      0.1733
    100  C         47.9760    8.2910   30.8070 C.2   638  GLU638      0.2616
    101  O         47.2700    9.2500   30.4760 O.2   638  GLU638     -0.2715
    102  CB        47.2900    6.3100   29.4720 C.3   638  GLU638      0.0429
    103  CG        48.6300    6.1430   28.7250 C.3   638  GLU638      0.1163
    104  CD        48.5310    5.2460   27.4580 C.2   638  GLU638      0.3649
    105  OE1       47.4340    4.7490   27.1020 O.co2 638  GLU638     -0.2457
    106  OE2       49.5880    5.0360   26.7980 O.co2 638  GLU638     -0.2457
    107  N         49.2740    8.3980   31.0850 N.am  639  ILE639     -0.1963
    108  CA        50.0100    9.6590   30.9820 C.3   639  ILE639      0.1727
    109  C         50.8090    9.6510   29.6860 C.2   639  ILE639      0.2616
    110  O         51.7910    8.9160   29.5540 O.2   639  ILE639     -0.2715
    111  CB        50.9470    9.8500   32.1900 C.3   639  ILE639      0.0290
    112  CG1       50.1110   10.1200   33.4450 C.3   639  ILE639      0.0022
    113  CG2       52.0000   10.9230   31.9060 C.3   639  ILE639      0.0023
    114  CD1       50.8770   10.6340   34.6390 C.3   639  ILE639      0.0001
    115  N         50.3820   10.4490   28.7170 N.am  640  VAL640     -0.1963
    116  CA        51.0260   10.4010   27.4150 C.3   640  VAL640      0.1727
    117  C         52.2040   11.3510   27.3770 C.2   640  VAL640      0.2616
    118  O         52.0570   12.5600   27.1700 O.2   640  VAL640     -0.2715
    119  CB        50.0420   10.6300   26.2530 C.3   640  VAL640      0.0290
    120  CG1       50.7960   10.8410   24.9430 C.3   640  VAL640      0.0023
    121  CG2       49.0970    9.4350   26.1380 C.3   640  VAL640      0.0023
    122  N         53.3810   10.7850   27.5990 N.am  641  LYS641     -0.1963
    123  CA        54.6230   11.5340   27.5310 C.3   641  LYS641      0.1728
    124  C         54.7150   12.4590   26.2950 C.2   641  LYS641      0.2616
    125  O         54.1910   12.1400   25.2130 O.2   641  LYS641     -0.2715
    126  CB        55.8140   10.5660   27.5990 C.3   641  LYS641      0.0311
    127  CG        56.4730   10.4260   28.9840 C.3   641  LYS641      0.0038
    128  CD        55.7490    9.4610   29.9330 C.3   641  LYS641      0.0206
    129  CE        56.7120    8.9110   31.0190 C.3   641  LYS641      0.1093
    130  NZ        57.3110    9.9140   31.9760 N.3   641  LYS641     -0.1314
    131  N         55.3600   13.6110   26.4990 N.am  642  ASP642     -0.1957
    132  CA        55.6820   14.6130   25.4550 C.3   642  ASP642      0.1840
    133  C         54.4770   15.3580   24.8460 C.2   642  ASP642      0.2621
    134  O         54.4150   15.5920   23.6320 O.2   642  ASP642     -0.2715
    135  CB        56.5930   14.0300   24.3550 C.3   642  ASP642      0.1450
    136  CG        57.7160   13.1700   24.9160 C.2   642  ASP642      0.3671
    137  OD1       58.5500   13.6870   25.6960 O.co2 642  ASP642     -0.2456
    138  OD2       57.7630   11.9690   24.5690 O.co2 642  ASP642     -0.2456
    139  N         53.5330   15.7380   25.7090 N.am  643  ALA643     -0.1977
    140  CA        52.3320   16.4310   25.2700 C.3   643  ALA643      0.1597
    141  C         52.0260   17.6070   26.1740 C.2   643  ALA643      0.2287
    142  O         52.5820   17.7190   27.2630 O.2   643  ALA643     -0.2864
    143  CB        51.1790   15.4800   25.2710 C.3   643  ALA643      0.0319
    144  N         47.5130   25.4880   28.5150 N.3   648  LYS648     -0.1245
    145  CA        48.8620   25.8890   28.9440 C.3   648  LYS648      0.1561
    146  C         49.6420   26.6870   27.8890 C.2   648  LYS648      0.2260
    147  O         50.3820   27.6120   28.2460 O.2   648  LYS648     -0.2867
    148  CB        49.6770   24.6620   29.3840 C.3   648  LYS648      0.0271
    149  CG        49.4950   24.2320   30.8510 C.3   648  LYS648      0.0035
    150  CD        50.0200   22.8020   31.1020 C.3   648  LYS648      0.0206
    151  CE        49.0010   21.7390   30.6470 C.3   648  LYS648      0.1093
    152  NZ        49.1390   20.3510   31.3010 N.3   648  LYS648     -0.1314
    153  N         40.7420   21.5330   27.9360 N.3   709  ASN709     -0.1240
    154  CA        40.6730   20.0710   27.7550 C.3   709  ASN709      0.1653
    155  C         40.9310   19.5140   26.3570 C.2   709  ASN709      0.2266
    156  O         40.4360   18.4340   26.0290 O.2   709  ASN709     -0.2867
    157  CB        39.3260   19.5440   28.2540 C.3   709  ASN709      0.1155
    158  CG        39.3300   19.2820   29.7330 C.2   709  ASN709      0.2627
    159  OD1       38.5680   19.8920   30.4910 O.2   709  ASN709     -0.2716
    160  ND2       40.2030   18.3770   30.1670 N.am  709  ASN709     -0.0877
    161  N         44.2070   18.3690   24.1710 N.3   711  MET711     -0.1245
    162  CA        45.6370   18.1240   24.2780 C.3   711  MET711      0.1570
    163  C         46.3230   17.8040   22.9630 C.2   711  MET711      0.2261
    164  O         45.6700   17.5260   21.9560 O.2   711  MET711     -0.2867
    165  CB        45.9320   17.0640   25.3220 C.3   711  MET711      0.0387
    166  CG        46.0150   17.6480   26.7080 C.3   711  MET711      0.0595
    167  SD        46.9180   16.5930   27.8380 S.3   711  MET711     -0.1393
    168  CE        48.5270   16.5550   27.0580 C.3   711  MET711      0.0692
    169  N         44.8650   15.2020   20.5340 N.3   719  PHE719     -0.1241
    170  CA        43.8720   14.3040   21.1220 C.3   719  PHE719      0.1605
    171  C         43.1020   14.9920   22.2480 C.2   719  PHE719      0.2264
    172  O         43.7120   15.5550   23.1580 O.2   719  PHE719     -0.2867
    173  CB        44.5720   13.0610   21.6750 C.3   719  PHE719      0.0534
    174  CG        45.5490   13.3450   22.8030 C.ar  719  PHE719     -0.0203
    175  CD1       46.8310   13.8190   22.5360 C.ar  719  PHE719     -0.0042
    176  CD2       45.1890   13.1220   24.1340 C.ar  719  PHE719     -0.0042
    177  CE1       47.7360   14.0770   23.5800 C.ar  719  PHE719     -0.0003
    178  CE2       46.0880   13.3690   25.1810 C.ar  719  PHE719     -0.0003
    179  CZ        47.3600   13.8440   24.9060 C.ar  719  PHE719     -0.0000
    180  N         41.3290   15.1940   25.6860 N.3   721  ILE721     -0.1231
    181  CA        41.4680   14.4270   26.9270 C.3   721  ILE721      0.1692
    182  C         40.1400   14.1980   27.6410 C.2   721  ILE721      0.2592
    183  O         39.2210   13.6330   27.0600 O.2   721  ILE721     -0.2718
    184  CB        42.4930   15.0340   27.9070 C.3   721  ILE721      0.0266
    185  CG1       42.4720   16.5720   27.8480 C.3   721  ILE721      0.0019
    186  CG2       43.8720   14.4660   27.6260 C.3   721  ILE721      0.0020
    187  CD1       43.1070   17.2740   29.0430 C.3   721  ILE721      0.0001
    188  N         40.0490   14.6460   28.8920 N.am  722  ASP722     -0.1974
    189  CA        38.9270   14.3380   29.7890 C.3   722  ASP722      0.1709
    190  C         37.5290   14.4250   29.1840 C.2   722  ASP722      0.2293
    191  O         37.1470   15.4630   28.6480 O.2   722  ASP722     -0.2864
    192  CB        38.9770   15.2480   31.0160 C.3   722  ASP722      0.1436
    193  CG        37.8690   14.9470   31.9950 C.2   722  ASP722      0.3671
    194  OD1       37.9650   13.9290   32.7130 O.co2 722  ASP722     -0.2456
    195  OD2       36.8940   15.7190   32.0330 O.co2 722  ASP722     -0.2456
@<TRIPOS>BOND
     1   169   170    1
     2   170   173    1
     3   170   171    1
     4   173   174    1
     5   164   163    2
     6   171   172    2
     7   175   174   ar
     8   175   177   ar
     9   174   176   ar
    10   163   162    1
    11   177   179   ar
    12   134   133    2
    13   176   178   ar
    14   161   162    1
    15   162   165    1
    16   135   136    1
    17   135   132    1
    18   138   136   ar
    19    78    79    1
    20   133   132    1
    21   133   139   am
    22   179   178   ar
    23   136   137   ar
    24   120   119    1
    25   125   124    2
    26   140   143    1
    27   140   139    1
    28   140   141    1
    29   165   166    1
    30   132   131    1
    31   180   181    1
    32    79    80    1
    33    79    82    1
    34   156   155    2
    35   121   119    1
    36   141   142    2
    37   119   116    1
    38   124   131   am
    39   124   123    1
    40    81    80    2
    41    84    86   ar
    42    84    83   ar
    43   155   154    1
    44    86    88   ar
    45   166   167    1
    46    82    83    1
    47   106   104   ar
    48   181   182    1
    49   181   184    1
    50   168   167    1
    51   183   182    2
    52   105   104   ar
    53   118   117    2
    54    83    85   ar
    55   117   116    1
    56   117   122   am
    57   116   115    1
    58   104   103    1
    59   123   126    1
    60   123   122    1
    61   126   127    1
    62   186   184    1
    63   182   188   am
    64   154   153    1
    65   154   157    1
    66    73    72    2
    67   185   184    1
    68   185   187    1
    69   146   147    2
    70   146   145    1
    71    88    89    1
    72    88    87   ar
    73   157   158    1
    74    85    87   ar
    75   144   145    1
    76   191   190    2
    77   115   109   am
    78   103   102    1
    79   188   189    1
    80   145   148    1
    81    72    71    1
    82   127   128    1
    83   190   189    1
    84   148   149    1
    85   102    99    1
    86   110   109    2
    87    71    70    1
    88    71    74    1
    89   109   108    1
    90   158   160   am
    91   158   159    2
    92   189   192    1
    93   128   129    1
    94    77    75   ar
    95   101   100    2
    96    74    75    1
    97   151   150    1
    98   151   152    1
    99    75    76   ar
   100   100    99    1
   101   100   107   am
   102   149   150    1
   103    99    98    1
   104   108   107    1
   105   108   111    1
   106   192   193    1
   107   129   130    1
   108    98    92   am
   109   113   111    1
   110   193   195   ar
   111   193   194   ar
   112    96    94    1
   113   111   112    1
   114    92    91    1
   115    92    93    2
   116    94    91    1
   117    94    95    1
   118    91    90    1
   119   112   114    1
   120    44    43   ar
   121    44    42   ar
   122    95    97    1
   123    52    50    1
   124    43    41   ar
   125    42    40   ar
   126    50    49    1
   127    61    60    1
   128    41    38   ar
   129    40    38   ar
   130    40    39   ar
   131    49    51    1
   132    49    46    1
   133    45    46    1
   134    38    36   ar
   135    60    59    1
   136    39    37   ar
   137     8     7    1
   138    46    47    1
   139    59    58    1
   140    48    47    2
   141    23    22    1
   142     7     6    1
   143    36    37   ar
   144    36    35    1
   145    69    67   ar
   146    14    13    1
   147    67    68   ar
   148    67    66    1
   149    58    57    1
   150    66    63    1
   151    35    32    1
   152    22    21    1
   153    13    10    1
   154    57    54    1
   155    64    63    1
   156    64    65    2
   157     6     5    1
   158    32    33    1
   159    32    31    1
   160     5     2    1
   161    21    20    1
   162    63    62    1
   163    10     9    1
   164    10    11    1
   165    53    54    1
   166    29    28    1
   167    29    30    1
   168    33    34    2
   169    28    25    1
   170    54    55    1
   171     2     3    1
   172     2     1    1
   173    20    19    1
   174    11    12    2
   175    30    24    1
   176     3     4    2
   177    55    56    2
   178    19    16    1
   179    25    24    1
   180    25    26    1
   181    18    17    2
   182    15    16    1
   183    26    27    2
   184    16    17    1
