@<TRIPOS>MOLECULE
tmp/4aohA01.pdb
 91 87 0 0 0
SMALL
GASTEIGER

@<TRIPOS>ATOM
      1  N          3.2090   -9.8060  -11.2040 N.3    79  VAL79      -0.1245
      2  CA         4.3080   -9.8550  -10.2580 C.3    79  VAL79       0.1561
      3  C          3.9720  -10.8260   -9.1370 C.2    79  VAL79       0.2260
      4  O          2.7950  -11.1180   -8.8680 O.2    79  VAL79      -0.2867
      5  CB         4.6250   -8.4560   -9.6500 C.3    79  VAL79       0.0252
      6  CG1        5.1120   -7.4990  -10.7220 C.3    79  VAL79       0.0019
      7  CG2        3.4250   -7.8800   -8.9180 C.3    79  VAL79       0.0019
      8  N          5.2900  -11.2220   -5.0660 N.3    81  THR81      -0.1218
      9  CA         6.1130  -10.7890   -3.9530 C.3    81  THR81       0.1862
     10  C          6.2320  -11.9080   -2.9310 C.2    81  THR81       0.2287
     11  O          5.2350  -12.4960   -2.5150 O.2    81  THR81      -0.2866
     12  CB         5.5220   -9.5220   -3.3170 C.3    81  THR81       0.1770
     13  OG1        5.5770   -8.4630   -4.2800 O.3    81  THR81      -0.2211
     14  CG2        6.3000   -9.1130   -2.0890 C.3    81  THR81       0.0375
     15  N          7.5220  -12.7480    0.7930 N.3    83  LYS83      -0.1245
     16  CA         7.8130  -12.1220    2.0730 C.3    83  LYS83       0.1561
     17  C          8.2090  -13.1740    3.0990 C.2    83  LYS83       0.2260
     18  O          7.4820  -14.1420    3.3350 O.2    83  LYS83      -0.2867
     19  CB         6.6060  -11.3170    2.5710 C.3    83  LYS83       0.0271
     20  CG         6.2950  -10.0710    1.7510 C.3    83  LYS83       0.0035
     21  CD         5.0500   -9.3620    2.2850 C.3    83  LYS83       0.0206
     22  CE         4.6820   -8.1450    1.4480 C.3    83  LYS83       0.1093
     23  NZ         3.4220   -7.5030    1.9360 N.3    83  LYS83      -0.1314
     24  N          2.4400  -13.2230   -2.4620 N.3    98  THR98      -0.1203
     25  CA         1.3110  -12.3930   -2.8600 C.3    98  THR98       0.1994
     26  C          1.4560  -12.0120   -4.3190 C.2    98  THR98       0.2618
     27  O          2.3250  -11.2120   -4.6940 O.2    98  THR98      -0.2717
     28  CB         1.1530  -11.1250   -2.0070 C.3    98  THR98       0.1784
     29  OG1        2.3940  -10.4150   -1.9710 O.3    98  THR98      -0.2211
     30  CG2        0.7340  -11.4820   -0.5950 C.3    98  THR98       0.0376
     31  N          0.6050  -12.6150   -5.1400 N.am   99  ALA99      -0.1965
     32  CA         0.5100  -12.2590   -6.5400 C.3    99  ALA99       0.1728
     33  C         -0.0540  -10.8510   -6.6590 C.2    99  ALA99       0.2617
     34  O         -0.8450  -10.4050   -5.8250 O.2    99  ALA99      -0.2715
     35  CB        -0.3830  -13.2470   -7.2740 C.3    99  ALA99       0.0334
     36  N          0.3520  -10.1560   -7.7110 N.am  100  GLY100     -0.1940
     37  CA        -0.2190   -8.8650   -8.0280 C.3   100  GLY100      0.2014
     38  C         -0.1110   -8.5540   -9.5040 C.2   100  GLY100      0.2639
     39  O          0.4550   -9.3200  -10.2920 O.2   100  GLY100     -0.2714
     40  N         -0.6810   -7.4130   -9.8650 N.am  101  PHE101     -0.1959
     41  CA        -0.6790   -6.9270  -11.2280 C.3   101  PHE101      0.1771
     42  C         -0.6840   -5.4080  -11.1720 C.2   101  PHE101      0.2619
     43  O         -1.7090   -4.8010  -10.8560 O.2   101  PHE101     -0.2715
     44  CB        -1.9170   -7.4400  -11.9760 C.3   101  PHE101      0.0574
     45  CG        -1.9940   -6.9880  -13.4050 C.ar  101  PHE101     -0.0200
     46  CD1       -1.0610   -7.4220  -14.3330 C.ar  101  PHE101     -0.0042
     47  CD2       -3.0030   -6.1270  -13.8240 C.ar  101  PHE101     -0.0042
     48  CE1       -1.1270   -7.0100  -15.6550 C.ar  101  PHE101     -0.0003
     49  CE2       -3.0740   -5.7140  -15.1420 C.ar  101  PHE101     -0.0003
     50  CZ        -2.1370   -6.1540  -16.0600 C.ar  101  PHE101     -0.0000
     51  N          0.4580   -4.7970  -11.4610 N.am  102  ARG102     -0.1977
     52  CA         0.5860   -3.3470  -11.4030 C.3   102  ARG102      0.1597
     53  C          1.8860   -2.9200  -12.0660 C.2   102  ARG102      0.2287
     54  O          2.7060   -3.7580  -12.4540 O.2   102  ARG102     -0.2864
     55  CB         0.5450   -2.8270   -9.9620 C.3   102  ARG102      0.0334
     56  CG         1.7100   -3.2830   -9.0880 C.3   102  ARG102      0.0492
     57  CD         1.9320   -2.3170   -7.9350 C.3   102  ARG102      0.2205
     58  NE         2.2790   -0.9890   -8.4350 N.pl3 102  ARG102     -0.0865
     59  CZ         2.1860    0.1360   -7.7400 C.cat 102  ARG102      0.5346
     60  NH1        1.7650    0.1190   -6.4800 N.pl3 102  ARG102      0.1354
     61  NH2        2.5180    1.2810   -8.3180 N.pl3 102  ARG102      0.1354
     62  N          7.4000   -0.3350   -3.1150 N.3   120  ILE120     -0.1231
     63  CA         6.0010   -0.3200   -3.5170 C.3   120  ILE120      0.1692
     64  C          5.2970   -1.6480   -3.2350 C.2   120  ILE120      0.2592
     65  O          4.0710   -1.7100   -3.2740 O.2   120  ILE120     -0.2718
     66  CB         5.7880    0.1150   -4.9830 C.3   120  ILE120      0.0266
     67  CG1        6.4320   -0.8810   -5.9410 C.3   120  ILE120      0.0019
     68  CG2        6.3190    1.5300   -5.2060 C.3   120  ILE120      0.0020
     69  CD1        6.0070   -0.6930   -7.3840 C.3   120  ILE120      0.0001
     70  N          6.0660   -2.6910   -2.9180 N.am  121  PHE121     -0.1976
     71  CA         5.5040   -4.0070   -2.6090 C.3   121  PHE121      0.1639
     72  C          5.4720   -4.3400   -1.1180 C.2   121  PHE121      0.2290
     73  O          5.0130   -5.4160   -0.7250 O.2   121  PHE121     -0.2864
     74  CB         6.2420   -5.0880   -3.4030 C.3   121  PHE121      0.0560
     75  CG         6.1220   -4.8980   -4.8710 C.ar  121  PHE121     -0.0200
     76  CD1        4.9030   -5.1040   -5.4920 C.ar  121  PHE121     -0.0042
     77  CD2        7.1970   -4.4620   -5.6280 C.ar  121  PHE121     -0.0042
     78  CE1        4.7560   -4.8960   -6.8400 C.ar  121  PHE121     -0.0003
     79  CE2        7.0520   -4.2680   -6.9900 C.ar  121  PHE121     -0.0003
     80  CZ         5.8240   -4.4880   -7.5910 C.ar  121  PHE121     -0.0000
     81  N          3.8180   -2.6570    1.3160 N.3   123  ARG123     -0.1245
     82  CA         2.3790   -2.5620    1.6630 C.3   123  ARG123      0.1563
     83  C          1.6430   -2.1650    0.3900 C.2   123  ARG123      0.2260
     84  O          1.2370   -1.0230    0.2130 O.2   123  ARG123     -0.2867
     85  CB         2.1880   -1.5460    2.7730 C.3   123  ARG123      0.0307
     86  CG         0.7590   -1.5600    3.3260 C.3   123  ARG123      0.0489
     87  CD         0.4250   -0.4020    4.2170 C.3   123  ARG123      0.2205
     88  NE         0.6770    0.8870    3.5970 N.pl3 123  ARG123     -0.0865
     89  CZ         1.7330    1.6500    3.8620 C.cat 123  ARG123      0.5346
     90  NH1        2.6240    1.3240    4.8030 N.pl3 123  ARG123      0.1354
     91  NH2        1.9950    2.7380    3.1300 N.pl3 123  ARG123      0.1354
@<TRIPOS>BOND
     1    50    48   ar
     2    50    49   ar
     3    48    46   ar
     4    49    47   ar
     5    46    45   ar
     6    47    45   ar
     7    45    44    1
     8    54    53    2
     9    53    52    1
    10    44    41    1
    11    51    52    1
    12    51    42   am
    13    52    55    1
    14    41    42    1
    15    41    40    1
    16     1     2    1
    17    42    43    2
    18     6     5    1
    19    39    38    2
    20     2     5    1
    21     2     3    1
    22    55    56    1
    23    40    38   am
    24     5     7    1
    25    38    37    1
    26     3     4    2
    27    56    57    1
    28    58    57    1
    29    58    59    2
    30    61    59    1
    31    37    36    1
    32    59    60    1
    33    36    33   am
    34    80    79   ar
    35    80    78   ar
    36    69    67    1
    37    35    32    1
    38    79    77   ar
    39    78    76   ar
    40    33    32    1
    41    33    34    2
    42    32    31    1
    43    67    66    1
    44    77    75   ar
    45    76    75   ar
    46    68    66    1
    47    31    26   am
    48     8     9    1
    49    66    63    1
    50    75    74    1
    51    27    26    2
    52    26    25    1
    53    13    12    1
    54     9    12    1
    55     9    10    1
    56    63    64    1
    57    63    62    1
    58    74    71    1
    59    12    14    1
    60    65    64    2
    61    64    70   am
    62    10    11    2
    63    70    71    1
    64    25    24    1
    65    25    28    1
    66    71    72    1
    67    28    29    1
    68    28    30    1
    69    72    73    2
    70    84    83    2
    71    83    82    1
    72    15    16    1
    73    81    82    1
    74    22    23    1
    75    22    21    1
    76    82    85    1
    77    20    21    1
    78    20    19    1
    79    16    19    1
    80    16    17    1
    81    85    86    1
    82    17    18    2
    83    91    89    1
    84    86    87    1
    85    88    89    2
    86    88    87    1
    87    89    90    1
