@<TRIPOS>MOLECULE
tmp/4aoiA00.pdb
 163 154 0 0 0
SMALL
GASTEIGER

@<TRIPOS>ATOM
      1  N         21.6750   88.6000   -0.9610 N.3    33  ILE33      -0.1231
      2  CA        22.2060   87.2910   -0.5950 C.3    33  ILE33       0.1692
      3  C         21.1390   86.3880    0.0110 C.2    33  ILE33       0.2593
      4  O         21.4410   85.3470    0.5960 O.2    33  ILE33      -0.2718
      5  CB        23.3880   87.4140    0.3940 C.3    33  ILE33       0.0266
      6  CG1       22.9570   88.1670    1.6550 C.3    33  ILE33       0.0019
      7  CG2       24.5430   88.1420   -0.2760 C.3    33  ILE33       0.0020
      8  CD1       24.0960   88.4010    2.6320 C.3    33  ILE33       0.0001
      9  N         19.8870   86.8000   -0.1430 N.am   34  GLY34      -0.1942
     10  CA        18.7690   85.9930    0.3040 C.3    34  GLY34       0.2014
     11  C         17.4860   86.7430    0.0170 C.2    34  GLY34       0.2638
     12  O         17.4870   87.9740   -0.0450 O.2    34  GLY34      -0.2714
     13  N         16.3930   86.0140   -0.1670 N.am   35  ARG35      -0.1977
     14  CA        15.1270   86.6440   -0.5050 C.3    35  ARG35       0.1597
     15  C         14.0010   86.1440    0.3840 C.2    35  ARG35       0.2287
     16  O         13.7550   84.9410    0.4840 O.2    35  ARG35      -0.2864
     17  CB        14.7870   86.3870   -1.9740 C.3    35  ARG35       0.0334
     18  CG        15.8230   86.9420   -2.9370 C.3    35  ARG35       0.0492
     19  CD        15.4330   86.7090   -4.3840 C.3    35  ARG35       0.2205
     20  NE        16.4420   87.2430   -5.2920 N.pl3  35  ARG35      -0.0865
     21  CZ        16.5040   88.5160   -5.6670 C.cat  35  ARG35       0.5346
     22  NH1       15.6120   89.3890   -5.2120 N.pl3  35  ARG35       0.1354
     23  NH2       17.4630   88.9200   -6.4910 N.pl3  35  ARG35       0.1354
     24  N         17.7490   89.9150    1.9800 N.3    41  VAL41      -0.1245
     25  CA        18.9660   90.0030    2.7830 C.3    41  VAL41       0.1561
     26  C         20.0590   90.5900    1.9030 C.2    41  VAL41       0.2260
     27  O         20.1840   90.2110    0.7370 O.2    41  VAL41      -0.2867
     28  CB        19.4470   88.6140    3.2580 C.3    41  VAL41       0.0252
     29  CG1       20.5380   88.7770    4.3120 C.3    41  VAL41       0.0019
     30  CG2       18.2780   87.8060    3.7980 C.3    41  VAL41       0.0019
     31  N         25.1860   90.4290    7.5500 N.3    53  ALA53      -0.1245
     32  CA        24.0190   90.2660    6.6950 C.3    53  ALA53       0.1562
     33  C         22.8930   91.1550    7.2040 C.2    53  ALA53       0.2260
     34  O         22.5370   91.1090    8.3830 O.2    53  ALA53      -0.2867
     35  CB        23.5680   88.8080    6.6920 C.3    53  ALA53       0.0290
     36  N         22.0110   80.9560   15.5480 N.3    85  LEU85      -0.1245
     37  CA        22.3240   82.2390   14.9200 C.3    85  LEU85       0.1561
     38  C         22.1020   83.3700   15.9190 C.2    85  LEU85       0.2260
     39  O         21.0660   83.4250   16.5800 O.2    85  LEU85      -0.2867
     40  CB        21.4330   82.4770   13.7000 C.3    85  LEU85       0.0270
     41  CG        21.7670   83.7400   12.8950 C.3    85  LEU85       0.0019
     42  CD1       22.9910   83.4730   12.0340 C.3    85  LEU85       0.0001
     43  CD2       20.5810   84.1370   12.0200 C.3    85  LEU85       0.0001
     44  N         22.5830   90.8110   11.1240 N.3   102  LEU102     -0.1231
     45  CA        22.8860   89.4390   11.5170 C.3   102  LEU102      0.1678
     46  C         24.3200   89.0910   11.1390 C.2   102  LEU102      0.2434
     47  O         24.8910   89.6850   10.2270 O.2   102  LEU102     -0.2733
     48  CB        21.9150   88.4760   10.8210 C.3   102  LEU102      0.0284
     49  CG        20.4260   88.7150   11.1060 C.3   102  LEU102      0.0019
     50  CD1       19.5710   88.0620   10.0300 C.3   102  LEU102      0.0001
     51  CD2       20.0760   88.1580   12.4810 C.3   102  LEU102      0.0001
     52  N         24.9250   88.1220   11.8410 N.am  103  PRO103     -0.2718
     53  CA        26.2610   87.6810   11.4330 C.3   103  PRO103      0.1535
     54  C         26.2400   87.1000   10.0210 C.2   103  PRO103      0.2599
     55  O         25.2960   86.4070    9.6370 O.2   103  PRO103     -0.2715
     56  CB        26.6430   86.6450   12.4930 C.3   103  PRO103      0.0310
     57  CG        25.3500   86.1830   13.0680 C.3   103  PRO103      0.0237
     58  CD        24.4020   87.3500   12.9810 C.3   103  PRO103      0.0939
     59  N         27.2750   87.4030    9.2460 N.am  104  TYR104     -0.1960
     60  CA        27.3770   86.9040    7.8810 C.3   104  TYR104      0.1771
     61  C         27.7710   85.4310    7.8920 C.2   104  TYR104      0.2619
     62  O         28.6760   85.0240    8.6210 O.2   104  TYR104     -0.2715
     63  CB        28.4160   87.7190    7.1000 C.3   104  TYR104      0.0574
     64  CG        28.6900   87.2150    5.6990 C.ar  104  TYR104     -0.0198
     65  CD1       27.6970   87.2290    4.7270 C.ar  104  TYR104     -0.0009
     66  CD2       29.9470   86.7390    5.3440 C.ar  104  TYR104     -0.0009
     67  CE1       27.9470   86.7840    3.4430 C.ar  104  TYR104      0.0417
     68  CE2       30.2070   86.2910    4.0610 C.ar  104  TYR104      0.0417
     69  CZ        29.2050   86.3150    3.1160 C.ar  104  TYR104      0.1957
     70  OH        29.4560   85.8650    1.8410 O.3   104  TYR104     -0.2866
     71  N         27.0830   84.6340    7.0840 N.am  105  MET105     -0.1977
     72  CA        27.3670   83.2070    6.9980 C.3   105  MET105      0.1605
     73  C         27.9880   82.8930    5.6440 C.2   105  MET105      0.2287
     74  O         27.2880   82.7650    4.6410 O.2   105  MET105     -0.2864
     75  CB        26.0750   82.4130    7.1970 C.3   105  MET105      0.0413
     76  CG        25.4230   82.6790    8.5520 C.3   105  MET105      0.0598
     77  SD        26.2710   81.7960    9.8720 S.3   105  MET105     -0.1393
     78  CE        26.6740   83.1230   11.0280 C.3   105  MET105      0.0692
     79  N         26.6410   80.2020    3.3420 N.3   108  GLY108     -0.1210
     80  CA        25.2260   80.2040    3.0040 C.3   108  GLY108      0.1956
     81  C         24.4040   79.1780    3.7690 C.2   108  GLY108      0.2611
     82  O         24.7830   78.7620    4.8630 O.2   108  GLY108     -0.2717
     83  N         23.2750   78.7650    3.1950 N.am  109  ASP109     -0.1973
     84  CA        22.3730   77.8430    3.8770 C.3   109  ASP109      0.1709
     85  C         22.8120   76.3960    3.6800 C.2   109  ASP109      0.2293
     86  O         23.4280   76.0460    2.6660 O.2   109  ASP109     -0.2864
     87  CB        20.9320   78.0230    3.3810 C.3   109  ASP109      0.1436
     88  CG        20.7360   77.5430    1.9520 C.2   109  ASP109      0.3671
     89  OD1       21.1360   78.2670    1.0170 O.co2 109  ASP109     -0.2456
     90  OD2       20.1780   76.4400    1.7650 O.co2 109  ASP109     -0.2456
     91  N         21.6540   74.2720    0.2860 N.3   112  ASN112     -0.1240
     92  CA        22.4210   74.5440   -0.9250 C.3   112  ASN112      0.1653
     93  C         23.8760   74.1060   -0.7670 C.2   112  ASN112      0.2266
     94  O         24.5030   73.6760   -1.7330 O.2   112  ASN112     -0.2867
     95  CB        22.3540   76.0310   -1.2910 C.3   112  ASN112      0.1155
     96  CG        21.0680   76.3980   -2.0200 C.2   112  ASN112      0.2627
     97  OD1       20.6810   75.7420   -2.9930 O.2   112  ASN112     -0.2716
     98  ND2       20.3990   77.4470   -1.5530 N.am  112  ASN112     -0.0877
     99  N         17.1940   74.2480    4.7800 N.3   153  ARG153     -0.1231
    100  CA        17.2550   75.5700    4.1660 C.3   153  ARG153      0.1694
    101  C         17.3910   76.6580    5.2320 C.2   153  ARG153      0.2592
    102  O         17.8010   77.7790    4.9310 O.2   153  ARG153     -0.2718
    103  CB        15.9910   75.8350    3.3380 C.3   153  ARG153      0.0321
    104  CG        14.7260   75.9420    4.1810 C.3   153  ARG153      0.0489
    105  CD        13.4680   76.2050    3.3530 C.3   153  ARG153      0.2205
    106  NE        12.2840   76.0090    4.1850 N.pl3 153  ARG153     -0.0865
    107  CZ        11.6510   74.8490    4.3220 C.cat 153  ARG153      0.5346
    108  NH1       12.0700   73.7750    3.6640 N.pl3 153  ARG153      0.1354
    109  NH2       10.6320   74.7470    5.1660 N.pl3 153  ARG153      0.1354
    110  N         17.0410   76.3240    6.4710 N.am  154  ASN154     -0.1974
    111  CA        16.9710   77.3190    7.5390 C.3   154  ASN154      0.1688
    112  C         18.0770   77.1620    8.5770 C.2   154  ASN154      0.2292
    113  O         17.9990   77.7110    9.6790 O.2   154  ASN154     -0.2864
    114  CB        15.5950   77.2670    8.2050 C.3   154  ASN154      0.1181
    115  CG        14.4970   77.8110    7.3030 C.2   154  ASN154      0.2629
    116  OD1       14.7500   78.6670    6.4570 O.2   154  ASN154     -0.2716
    117  ND2       13.2750   77.3170    7.4780 N.am  154  ASN154     -0.0877
    118  N         22.3450   77.7500    8.6890 N.3   156  MET156     -0.1245
    119  CA        23.4260   78.3950    7.9400 C.3   156  MET156      0.1570
    120  C         24.7850   77.8390    8.3670 C.2   156  MET156      0.2261
    121  O         24.9100   77.2390    9.4340 O.2   156  MET156     -0.2867
    122  CB        23.4040   79.9110    8.1680 C.3   156  MET156      0.0387
    123  CG        22.0400   80.5650    7.9760 C.3   156  MET156      0.0595
    124  SD        21.4190   80.4420    6.2870 S.3   156  MET156     -0.1393
    125  CE        22.5410   81.5520    5.4280 C.3   156  MET156      0.0692
    126  N         18.9630   78.7620   12.2100 N.3   166  ALA166     -0.1231
    127  CA        18.6060   80.1220   11.8110 C.3   166  ALA166      0.1694
    128  C         17.1140   80.2570   11.5160 C.2   166  ALA166      0.2592
    129  O         16.3170   79.4290   11.9470 O.2   166  ALA166     -0.2718
    130  CB        19.4240   80.5340   10.5920 C.3   166  ALA166      0.0304
    131  N         16.7470   81.3100   10.7900 N.am  167  ASP167     -0.1974
    132  CA        15.3510   81.5830   10.4340 C.3   167  ASP167      0.1709
    133  C         14.4120   81.4960   11.6410 C.2   167  ASP167      0.2293
    134  O         13.4060   80.7820   11.6130 O.2   167  ASP167     -0.2864
    135  CB        14.8740   80.6160    9.3360 C.3   167  ASP167      0.1436
    136  CG        13.5800   81.0770    8.6680 C.2   167  ASP167      0.3671
    137  OD1       13.1040   82.1850    8.9790 O.co2 167  ASP167     -0.2456
    138  OD2       13.0360   80.3340    7.8240 O.co2 167  ASP167     -0.2456
    139  N         15.0310   87.0360   12.4810 N.3   171  ALA171     -0.1245
    140  CA        15.4920   86.5400   11.1910 C.3   171  ALA171      0.1562
    141  C         14.4270   85.6970   10.4840 C.2   171  ALA171      0.2260
    142  O         14.6700   85.1640    9.4010 O.2   171  ALA171     -0.2867
    143  CB        16.7670   85.7230   11.3750 C.3   171  ALA171      0.0290
    144  N         12.4120   81.8060    3.0500 N.3   175  TYR175     -0.1227
    145  CA        13.5580   82.0660    2.1870 C.3   175  TYR175      0.1736
    146  C         13.5690   81.1980    0.9290 C.2   175  TYR175      0.2595
    147  O         14.3840   81.4030    0.0330 O.2   175  TYR175     -0.2718
    148  CB        14.8580   81.8630    2.9730 C.3   175  TYR175      0.0548
    149  CG        15.0850   82.9010    4.0530 C.ar  175  TYR175     -0.0200
    150  CD1       15.6330   84.1410    3.7460 C.ar  175  TYR175     -0.0009
    151  CD2       14.7660   82.6370    5.3810 C.ar  175  TYR175     -0.0009
    152  CE1       15.8600   85.0890    4.7320 C.ar  175  TYR175      0.0417
    153  CE2       14.9920   83.5780    6.3720 C.ar  175  TYR175      0.0417
    154  CZ        15.5410   84.8030    6.0410 C.ar  175  TYR175      0.1957
    155  OH        15.7820   85.7430    7.0250 O.3   175  TYR175     -0.2866
    156  N         12.6680   80.2240    0.8640 N.am  176  ASP176     -0.1974
    157  CA        12.4220   79.5030   -0.3830 C.3   176  ASP176      0.1709
    158  C         10.9310   79.2190   -0.4720 C.2   176  ASP176      0.2293
    159  O         10.4220   78.3160    0.1960 O.2   176  ASP176     -0.2864
    160  CB        13.2070   78.1840   -0.4150 C.3   176  ASP176      0.1436
    161  CG        13.0800   77.4540   -1.7510 C.2   176  ASP176      0.3671
    162  OD1       12.1730   77.7970   -2.5410 O.co2 176  ASP176     -0.2456
    163  OD2       13.8900   76.5390   -2.0110 O.co2 176  ASP176     -0.2456
@<TRIPOS>BOND
     1    23    21    1
     2    21    20    2
     3    21    22    1
     4    20    19    1
     5    19    18    1
     6    97    96    2
     7    18    17    1
     8   162   161   ar
     9    96    98   am
    10    96    95    1
    11   163   161   ar
    12    17    14    1
    13   161   160    1
    14    94    93    2
    15    95    92    1
    16     1     2    1
    17    92    93    1
    18    92    91    1
    19     2     3    1
    20     2     5    1
    21    14    13    1
    22    14    15    1
    23   158   157    1
    24   158   159    2
    25   160   157    1
    26   157   156    1
    27     7     5    1
    28    13    11   am
    29     9     3   am
    30     9    10    1
    31    12    11    2
    32     3     4    2
    33    11    10    1
    34   147   146    2
    35    15    16    2
    36     5     6    1
    37    27    26    2
    38   156   146   am
    39   146   145    1
    40    89    88   ar
    41     6     8    1
    42    90    88   ar
    43    70    69    1
    44    26    25    1
    45    88    87    1
    46    24    25    1
    47   145   148    1
    48   145   144    1
    49    86    85    2
    50    25    28    1
    51   148   149    1
    52    80    79    1
    53    80    81    1
    54    69    67   ar
    55    69    68   ar
    56    83    81   am
    57    83    84    1
    58    28    30    1
    59    28    29    1
    60   103   100    1
    61   103   104    1
    62   105   104    1
    63   105   106    1
    64    87    84    1
    65    67    65   ar
    66   108   107    1
    67    85    84    1
    68   150   149   ar
    69   150   152   ar
    70    81    82    2
    71   149   151   ar
    72    68    66   ar
    73   100    99    1
    74   100   101    1
    75   106   107    2
    76   107   109    1
    77    74    73    2
    78    65    64   ar
    79   152   154   ar
    80   102   101    2
    81   101   110   am
    82    66    64   ar
    83   151   153   ar
    84   125   124    1
    85    73    72    1
    86    64    63    1
    87   154   153   ar
    88   154   155    1
    89   124   123    1
    90   116   115    2
    91   110   111    1
    92    35    32    1
    93    32    33    1
    94    32    31    1
    95    72    71    1
    96    72    75    1
    97    71    61   am
    98    63    60    1
    99    75    76    1
   100    33    34    2
   101   115   117   am
   102   115   114    1
   103   111   114    1
   104   111   112    1
   105   138   136   ar
   106    60    61    1
   107    60    59    1
   108    61    62    2
   109   119   122    1
   110   119   120    1
   111   119   118    1
   112   123   122    1
   113   120   121    2
   114    76    77    1
   115   112   113    2
   116   136   137   ar
   117   136   135    1
   118    59    54   am
   119   135   132    1
   120   142   141    2
   121    55    54    2
   122    77    78    1
   123    54    53    1
   124    50    49    1
   125    47    46    2
   126   132   131    1
   127   132   133    1
   128   141   140    1
   129   130   127    1
   130   131   128   am
   131    48    49    1
   132    48    45    1
   133    49    51    1
   134    44    45    1
   135    46    45    1
   136    46    52   am
   137   140   143    1
   138   140   139    1
   139    53    52    1
   140    53    56    1
   141   128   127    1
   142   128   129    2
   143   134   133    2
   144   127   126    1
   145    52    58    1
   146    43    41    1
   147    42    41    1
   148    56    57    1
   149    41    40    1
   150    58    57    1
   151    40    37    1
   152    37    36    1
   153    37    38    1
   154    38    39    2
