@<TRIPOS>MOLECULE
tmp/4aojA00.pdb
 193 187 0 0 0
SMALL
GASTEIGER

@<TRIPOS>ATOM
      1  N         99.3730   62.9540   24.3420 N.3    17  LEU17      -0.1231
      2  CA        99.5750   61.5850   24.7880 C.3    17  LEU17       0.1693
      3  C         99.9390   60.6890   23.5940 C.2    17  LEU17       0.2593
      4  O        100.8430   59.8620   23.6820 O.2    17  LEU17      -0.2718
      5  CB        98.3240   61.0650   25.4860 C.3    17  LEU17       0.0284
      6  CG        98.1150   61.4920   26.9240 C.3    17  LEU17       0.0019
      7  CD1       96.8200   60.8870   27.4300 C.3    17  LEU17       0.0001
      8  CD2       99.2080   60.9550   27.7210 C.3    17  LEU17       0.0001
      9  N         99.2360   60.8790   22.4890 N.am   18  GLY18      -0.1942
     10  CA        99.5020   60.1560   21.2590 C.3    18  GLY18       0.2014
     11  C         98.7230   60.6770   20.0570 C.2    18  GLY18       0.2639
     12  O         97.9850   61.6630   20.1330 O.2    18  GLY18      -0.2714
     13  N         98.8790   59.9870   18.9390 N.am   19  GLU19      -0.1963
     14  CA        98.2220   60.3480   17.7020 C.3    19  GLU19       0.1733
     15  C         97.4590   59.1670   17.1260 C.2    19  GLU19       0.2616
     16  O         97.9570   58.0320   17.1100 O.2    19  GLU19      -0.2715
     17  CB        99.2570   60.8340   16.6980 C.3    19  GLU19       0.0429
     18  CG        99.9140   62.1650   17.1310 C.3    19  GLU19       0.1163
     19  CD       100.9970   62.6430   16.1790 C.2    19  GLU19       0.3649
     20  OE1      100.6840   62.9210   14.9910 O.co2  19  GLU19      -0.2457
     21  OE2      102.1580   62.7630   16.6310 O.co2  19  GLU19      -0.2457
     22  N         96.2330   59.4490   16.6810 N.am   20  GLY20      -0.1955
     23  CA        95.4360   58.5190   15.8680 C.3    20  GLY20       0.1869
     24  C         95.3300   59.0510   14.4400 C.2    20  GLY20       0.2309
     25  O         95.9790   60.0520   14.0860 O.2    20  GLY20      -0.2863
     26  N         92.3460   60.0070   13.2600 N.3    22  PHE22      -0.1241
     27  CA        91.3740   61.0470   13.6020 C.3    22  PHE22       0.1605
     28  C         91.9730   62.3830   14.0740 C.2    22  PHE22       0.2264
     29  O         91.3080   63.4310   13.9940 O.2    22  PHE22      -0.2867
     30  CB        90.4770   60.5140   14.7240 C.3    22  PHE22       0.0534
     31  CG        91.2490   59.9310   15.8940 C.ar   22  PHE22      -0.0203
     32  CD1       91.8110   60.7740   16.8780 C.ar   22  PHE22      -0.0042
     33  CD2       91.4190   58.5420   16.0130 C.ar   22  PHE22      -0.0042
     34  CE1       92.5370   60.2380   17.9690 C.ar   22  PHE22      -0.0003
     35  CE2       92.1370   57.9920   17.0940 C.ar   22  PHE22      -0.0003
     36  CZ        92.6950   58.8440   18.0780 C.ar   22  PHE22      -0.0000
     37  N         95.3820   62.9720   20.9280 N.3    25  VAL25      -0.1245
     38  CA        94.8540   62.6590   22.2500 C.3    25  VAL25       0.1561
     39  C         95.7370   63.3810   23.2230 C.2    25  VAL25       0.2260
     40  O         96.9370   63.1890   23.1830 O.2    25  VAL25      -0.2867
     41  CB        94.8270   61.1420   22.5600 C.3    25  VAL25       0.0252
     42  CG1       94.3780   60.8780   24.0180 C.3    25  VAL25       0.0019
     43  CG2       93.9380   60.4100   21.6070 C.3    25  VAL25       0.0019
     44  N         91.7440   61.9290   29.3300 N.3    40  ALA40      -0.1245
     45  CA        92.3190   61.9250   28.0020 C.3    40  ALA40       0.1562
     46  C         91.3200   62.6410   27.0770 C.2    40  ALA40       0.2260
     47  O         90.1000   62.4250   27.1730 O.2    40  ALA40      -0.2867
     48  CB        92.5620   60.5240   27.5440 C.3    40  ALA40       0.0290
     49  N         90.3720   63.2890   23.2120 N.3    42  LYS42      -0.1245
     50  CA        90.4790   62.9730   21.8030 C.3    42  LYS42       0.1561
     51  C         89.9690   64.2240   21.0520 C.2    42  LYS42       0.2260
     52  O         88.8740   64.7220   21.3280 O.2    42  LYS42      -0.2867
     53  CB        89.6220   61.7280   21.5510 C.3    42  LYS42       0.0271
     54  CG        89.7040   61.0600   20.1940 C.3    42  LYS42       0.0035
     55  CD        88.8430   59.7960   20.2590 C.3    42  LYS42       0.0206
     56  CE        88.8140   58.9690   18.9750 C.3    42  LYS42       0.1093
     57  NZ        87.6730   57.9990   19.0320 N.3    42  LYS42      -0.1314
     58  N         87.2250   51.3150   27.9890 N.3    71  VAL71      -0.1245
     59  CA        87.6410   52.6620   28.4760 C.3    71  VAL71       0.1561
     60  C         86.4310   53.5680   28.7990 C.2    71  VAL71       0.2260
     61  O         85.4450   53.6330   28.0560 O.2    71  VAL71      -0.2867
     62  CB        88.6140   53.3460   27.4800 C.3    71  VAL71       0.0252
     63  CG1       87.9110   53.6930   26.1670 C.3    71  VAL71       0.0019
     64  CG2       89.2790   54.5350   28.1060 C.3    71  VAL71       0.0019
     65  N         87.6730   61.0450   27.8100 N.3    87  PHE87      -0.1227
     66  CA        87.6670   59.7050   28.3890 C.3    87  PHE87       0.1736
     67  C         88.5320   59.6340   29.6170 C.2    87  PHE87       0.2595
     68  O         89.2680   60.5920   29.9250 O.2    87  PHE87      -0.2718
     69  CB        88.2330   58.6970   27.4310 C.3    87  PHE87       0.0547
     70  CG        87.4470   58.4970   26.1610 C.ar   87  PHE87      -0.0202
     71  CD1       87.6900   59.3050   25.0430 C.ar   87  PHE87      -0.0042
     72  CD2       86.5690   57.4310   26.0380 C.ar   87  PHE87      -0.0042
     73  CE1       87.0590   59.0600   23.8630 C.ar   87  PHE87      -0.0003
     74  CE2       85.9050   57.2050   24.8530 C.ar   87  PHE87      -0.0003
     75  CZ        86.1550   58.0110   23.7660 C.ar   87  PHE87      -0.0000
     76  N         88.4700   58.5030   30.3200 N.am   88  GLU88      -0.1965
     77  CA        89.3670   58.3100   31.4800 C.3    88  GLU88       0.1733
     78  C         90.8260   58.2250   31.0090 C.2    88  GLU88       0.2616
     79  O         91.1000   57.7410   29.9140 O.2    88  GLU88      -0.2715
     80  CB        88.9930   57.0760   32.2990 C.3    88  GLU88       0.0429
     81  CG        89.3310   55.7550   31.6200 C.3    88  GLU88       0.1163
     82  CD        89.0030   54.5550   32.4610 C.2    88  GLU88       0.3649
     83  OE1       89.3820   54.5230   33.6310 O.co2  88  GLU88      -0.2457
     84  OE2       88.3700   53.6190   31.9620 O.co2  88  GLU88      -0.2457
     85  N         91.7460   58.7090   31.8250 N.am   89  TYR89      -0.1960
     86  CA        93.1640   58.6390   31.4870 C.3    89  TYR89       0.1771
     87  C         93.7540   57.2450   31.8640 C.2    89  TYR89       0.2619
     88  O         93.6630   56.8620   33.0270 O.2    89  TYR89      -0.2715
     89  CB        93.8690   59.7630   32.2230 C.3    89  TYR89       0.0574
     90  CG        95.3570   59.7820   32.1620 C.ar   89  TYR89      -0.0198
     91  CD1       96.0360   59.6230   30.9480 C.ar   89  TYR89      -0.0009
     92  CD2       96.1140   60.0550   33.3080 C.ar   89  TYR89      -0.0009
     93  CE1       97.4480   59.6860   30.8980 C.ar   89  TYR89       0.0417
     94  CE2       97.5190   60.1170   33.2550 C.ar   89  TYR89       0.0417
     95  CZ        98.1640   59.9400   32.0650 C.ar   89  TYR89       0.1957
     96  OH        99.5300   60.0060   32.0470 O.3    89  TYR89      -0.2866
     97  N         94.2710   56.4890   30.8790 N.am   90  MET90      -0.1963
     98  CA        95.0130   55.2300   31.1000 C.3    90  MET90       0.1736
     99  C         96.4490   55.5490   30.8140 C.2    90  MET90       0.2616
    100  O         96.8150   55.6750   29.6360 O.2    90  MET90      -0.2715
    101  CB        94.6210   54.1730   30.1060 C.3    90  MET90       0.0427
    102  CG        93.1150   54.0140   29.9640 C.3    90  MET90       0.0599
    103  SD        92.4360   52.9270   31.1560 S.3    90  MET90      -0.1393
    104  CE        93.1570   51.3640   30.6880 C.3    90  MET90       0.0692
    105  N         97.2550   55.6830   31.8800 N.am   91  ARG91      -0.1963
    106  CA        98.6150   56.2220   31.7920 C.3    91  ARG91       0.1729
    107  C         99.6750   55.3700   31.1200 C.2    91  ARG91       0.2616
    108  O        100.7320   55.9060   30.7930 O.2    91  ARG91      -0.2715
    109  CB        99.1210   56.7440   33.1480 C.3    91  ARG91       0.0348
    110  CG        99.9690   55.7530   33.9890 C.3    91  ARG91       0.0492
    111  CD       100.4940   56.3600   35.2950 C.3    91  ARG91       0.2205
    112  NE       101.4850   57.4150   35.0900 N.pl3  91  ARG91      -0.0865
    113  CZ       102.7870   57.2230   34.8930 C.cat  91  ARG91       0.5346
    114  NH1      103.3010   56.0000   34.8520 N.pl3  91  ARG91       0.1354
    115  NH2      103.5830   58.2670   34.7270 N.pl3  91  ARG91       0.1354
    116  N         99.4160   54.0900   30.8660 N.am   92  HIS92      -0.1959
    117  CA       100.4550   53.2770   30.2070 C.3    92  HIS92       0.1787
    118  C        100.2790   53.0780   28.7050 C.2    92  HIS92       0.2621
    119  O        101.0330   52.3000   28.0720 O.2    92  HIS92      -0.2715
    120  CB       100.7620   52.0010   30.9770 C.3    92  HIS92       0.0785
    121  CG       101.4750   52.3000   32.2430 C.ar   92  HIS92       0.0821
    122  ND1      102.8360   52.5390   32.2850 N.ar   92  HIS92      -0.2267
    123  CD2      101.0010   52.5470   33.4860 C.ar   92  HIS92       0.1154
    124  CE1      103.1730   52.8680   33.5190 C.ar   92  HIS92       0.1986
    125  NE2      102.0800   52.8760   34.2640 N.ar   92  HIS92      -0.2212
    126  N         99.3120   53.8070   28.1410 N.am   93  GLY93      -0.1940
    127  CA        99.1340   53.8260   26.7070 C.3    93  GLY93       0.2014
    128  C         98.6240   52.5370   26.1420 C.2    93  GLY93       0.2638
    129  O         97.9480   51.7600   26.8310 O.2    93  GLY93      -0.2714
    130  N         98.9050   52.3330   24.8580 N.am   94  ASP94      -0.1971
    131  CA        98.2790   51.2460   24.1350 C.3    94  ASP94       0.1709
    132  C         98.9980   49.9640   24.5130 C.2    94  ASP94       0.2293
    133  O        100.2150   49.9640   24.7690 O.2    94  ASP94      -0.2864
    134  CB        98.2270   51.5390   22.6030 C.3    94  ASP94       0.1436
    135  CG        99.5590   51.2880   21.8920 C.2    94  ASP94       0.3671
    136  OD1       99.8410   50.1350   21.5200 O.co2  94  ASP94      -0.2456
    137  OD2      100.3260   52.2560   21.7050 O.co2  94  ASP94      -0.2456
    138  N        102.3530   48.8100   22.3830 N.3    97  ARG97      -0.1245
    139  CA       103.5660   49.5260   22.7550 C.3    97  ARG97       0.1563
    140  C        104.0160   49.0630   24.1720 C.2    97  ARG97       0.2260
    141  O        105.2140   48.9980   24.4340 O.2    97  ARG97      -0.2867
    142  CB       103.3350   51.0500   22.6430 C.3    97  ARG97       0.0307
    143  CG       104.4620   51.9680   23.1670 C.3    97  ARG97       0.0489
    144  CD       104.2180   53.4620   22.7570 C.3    97  ARG97       0.2205
    145  NE       104.5060   54.4380   23.8330 N.pl3  97  ARG97      -0.0865
    146  CZ       103.6100   54.9270   24.7100 C.cat  97  ARG97       0.5346
    147  NH1      102.3330   54.5540   24.6860 N.pl3  97  ARG97       0.1354
    148  NH2      103.9920   55.7950   25.6400 N.pl3  97  ARG97       0.1354
    149  N         96.6930   47.1880   19.5710 N.3   141  ARG141     -0.1182
    150  CA        96.9470   48.6220   19.3420 C.3   141  ARG141      0.1910
    151  C         95.6890   49.4110   19.7770 C.2   141  ARG141      0.2634
    152  O         95.7680   50.6340   20.0690 O.2   141  ARG141     -0.2714
    153  CB        97.3300   48.9140   17.8690 C.2   141  ARG141      0.0007
    154  CG        96.2270   48.6070   16.8310 C.2   141  ARG141      0.0176
    155  CD        96.6850   48.6620   15.3390 C.3   141  ARG141      0.2464
    156  NE        96.3250   47.3740   14.7220 N.pl3 141  ARG141     -0.0815
    157  CZ        95.1790   47.1140   14.1180 C.cat 141  ARG141      0.5349
    158  NH1       94.2560   48.0670   13.9660 N.pl3 141  ARG141      0.1354
    159  NH2       94.9640   45.8960   13.6540 N.pl3 141  ARG141      0.1354
    160  N         94.5630   48.6930   19.8470 N.am  142  ASN142     -0.1958
    161  CA        93.2510   49.2430   20.2040 C.3   142  ASN142      0.1819
    162  C         92.8040   48.9930   21.6700 C.2   142  ASN142      0.2621
    163  O         91.6090   49.1150   22.0030 O.2   142  ASN142     -0.2715
    164  CB        92.1980   48.7320   19.2120 C.3   142  ASN142      0.1195
    165  CG        92.4170   49.3160   17.7970 C.2   142  ASN142      0.2630
    166  OD1       93.0680   50.3620   17.6630 O.2   142  ASN142     -0.2716
    167  ND2       91.9260   48.6340   16.7570 N.am  142  ASN142     -0.0877
    168  N         93.7760   48.6330   22.5300 N.am  143  CYS143     -0.1954
    169  CA        93.5220   48.3670   23.9350 C.3   143  CYS143      0.1843
    170  C         94.3890   49.3290   24.6930 C.2   143  CYS143      0.2625
    171  O         95.4250   49.7900   24.1630 O.2   143  CYS143     -0.2714
    172  CB        93.8770   46.9430   24.2970 C.3   143  CYS143      0.0997
    173  SG        92.8670   45.7220   23.4720 S.3   143  CYS143     -0.0797
    174  N         93.9550   49.6490   25.9130 N.am  144  LEU144     -0.1977
    175  CA        94.6930   50.5640   26.7700 C.3   144  LEU144      0.1596
    176  C         95.1270   49.9010   28.0910 C.2   144  LEU144      0.2287
    177  O         94.4730   48.9440   28.5660 O.2   144  LEU144     -0.2864
    178  CB        93.8760   51.8300   27.0270 C.3   144  LEU144      0.0297
    179  CG        93.7840   52.8260   25.8490 C.3   144  LEU144      0.0022
    180  CD1       92.6510   53.7820   26.1310 C.3   144  LEU144      0.0001
    181  CD2       95.1230   53.5900   25.6270 C.3   144  LEU144      0.0001
    182  N         90.1100   50.1250   24.1460 N.3   154  GLY154     -0.1210
    183  CA        90.2380   51.5820   24.0620 C.3   154  GLY154      0.1956
    184  C         89.7050   52.2620   22.8080 C.2   154  GLY154      0.2611
    185  O         89.5100   53.4670   22.8130 O.2   154  GLY154     -0.2717
    186  N         89.4920   51.5070   21.7360 N.am  155  ASP155     -0.1973
    187  CA        89.0710   52.0650   20.4560 C.3   155  ASP155      0.1709
    188  C         88.1170   51.1100   19.7990 C.2   155  ASP155      0.2293
    189  O         88.3160   49.9040   19.9230 O.2   155  ASP155     -0.2864
    190  CB        90.2800   52.2620   19.5410 C.3   155  ASP155      0.1436
    191  CG        89.9630   53.1330   18.3350 C.2   155  ASP155      0.3671
    192  OD1       90.0270   54.3720   18.4620 O.co2 155  ASP155     -0.2456
    193  OD2       89.6400   52.5840   17.2610 O.co2 155  ASP155     -0.2456
@<TRIPOS>BOND
     1    26    27    1
     2    27    28    1
     3    27    30    1
     4   159   157    1
     5   158   157    1
     6    29    28    2
     7    25    24    2
     8   157   156    2
     9    24    23    1
    10   156   155    1
    11    30    31    1
    12    20    19   ar
    13   155   154    1
    14    23    22    1
    15    31    33   ar
    16    31    32   ar
    17    33    35   ar
    18    19    21   ar
    19    19    18    1
    20    22    15   am
    21    17    18    1
    22    17    14    1
    23   167   165   am
    24   154   153    2
    25    32    34   ar
    26    35    36   ar
    27    16    15    2
    28    15    14    1
    29   193   191   ar
    30   166   165    2
    31    14    13    1
    32   165   164    1
    33   153   150    1
    34    34    36   ar
    35   191   192   ar
    36   191   190    1
    37    13    11   am
    38    56    57    1
    39    56    55    1
    40   164   161    1
    41   150   149    1
    42   150   151    1
    43   190   187    1
    44   151   160   am
    45   151   152    2
    46   188   189    2
    47   188   187    1
    48   160   161    1
    49    11    12    2
    50    11    10    1
    51    54    55    1
    52    54    53    1
    53   161   162    1
    54   187   186    1
    55    37    38    1
    56    51    52    2
    57    51    50    1
    58    10     9    1
    59   136   135   ar
    60    53    50    1
    61    43    41    1
    62   162   163    2
    63   162   168   am
    64   137   135   ar
    65   186   184   am
    66    50    49    1
    67   135   134    1
    68    38    41    1
    69    38    39    1
    70   138   139    1
    71     9     3   am
    72   168   169    1
    73    41    42    1
    74   134   131    1
    75   142   139    1
    76   142   143    1
    77   139   140    1
    78   144   143    1
    79   144   145    1
    80   184   185    2
    81   184   183    1
    82    40    39    2
    83   173   172    1
    84     3     4    2
    85     3     2    1
    86    75    73   ar
    87    75    74   ar
    88   145   146    2
    89    73    71   ar
    90   169   172    1
    91   169   170    1
    92   183   182    1
    93   131   132    1
    94   131   130    1
    95   171   170    2
    96   140   141    2
    97     1     2    1
    98   132   133    2
    99   147   146    1
   100   170   174   am
   101   146   148    1
   102     2     5    1
   103    74    72   ar
   104   130   128   am
   105    71    70   ar
   106     5     6    1
   107   181   179    1
   108   179   180    1
   109   179   178    1
   110   174   175    1
   111    72    70   ar
   112   128   127    1
   113   128   129    2
   114    70    69    1
   115    63    62    1
   116   127   126    1
   117   175   178    1
   118   175   176    1
   119     6     7    1
   120     6     8    1
   121    46    47    2
   122    46    45    1
   123    69    66    1
   124    62    64    1
   125    62    59    1
   126    48    45    1
   127    65    66    1
   128    58    59    1
   129    45    44    1
   130    61    60    2
   131   119   118    2
   132   176   177    2
   133   126   118   am
   134    66    67    1
   135    59    60    1
   136   118   117    1
   137    67    68    2
   138    67    76   am
   139   100    99    2
   140    79    78    2
   141   102   101    1
   142   102   103    1
   143   101    98    1
   144   117   116    1
   145   117   120    1
   146    76    77    1
   147   104   103    1
   148   108   107    2
   149    99    98    1
   150    99   105   am
   151   116   107   am
   152    97    98    1
   153    97    87   am
   154    93    91   ar
   155    93    95   ar
   156    91    90   ar
   157   120   121    1
   158    78    77    1
   159    78    85   am
   160   107   106    1
   161    77    80    1
   162    86    85    1
   163    86    87    1
   164    86    89    1
   165    81    80    1
   166    81    82    1
   167   106   105    1
   168   106   109    1
   169    87    88    2
   170    84    82   ar
   171    96    95    1
   172    95    94   ar
   173    90    89    1
   174    90    92   ar
   175   121   122   ar
   176   121   123   ar
   177   122   124   ar
   178    82    83   ar
   179   109   110    1
   180    94    92   ar
   181   123   125   ar
   182   124   125   ar
   183   110   111    1
   184   115   113    1
   185   114   113    1
   186   113   112    2
   187   112   111    1
