@<TRIPOS>MOLECULE
tmp/4aonD00.pdb
 72 70 0 0 0
SMALL
GASTEIGER

@<TRIPOS>ATOM
      1  N         -1.1330  -23.4120   17.4690 N.3     1  SER1       -0.1217
      2  CA        -0.4300  -22.7190   18.6190 C.3     1  SER1        0.1889
      3  C         -1.1830  -22.8720   19.9610 C.2     1  SER1        0.2288
      4  O         -2.3230  -23.3560   20.0310 O.2     1  SER1       -0.2866
      5  CB        -0.3520  -21.2540   18.3180 C.3     1  SER1        0.2089
      6  OG        -1.6520  -20.7020   18.1480 O.3     1  SER1       -0.2183
      7  N          1.2000  -33.6660   22.3920 N.3    31  PHE31      -0.1227
      8  CA         1.4580  -33.0130   21.1140 C.3    31  PHE31       0.1736
      9  C          2.4420  -31.9480   21.2320 C.2    31  PHE31       0.2596
     10  O          2.7870  -31.4900   22.3450 O.2    31  PHE31      -0.2718
     11  CB         0.1490  -32.5870   20.4480 C.3    31  PHE31       0.0547
     12  CG        -0.5670  -31.5410   21.1700 C.ar   31  PHE31      -0.0202
     13  CD1       -1.4290  -31.8560   22.2730 C.ar   31  PHE31      -0.0042
     14  CD2       -0.5170  -30.2350   20.7410 C.ar   31  PHE31      -0.0042
     15  CE1       -2.1520  -30.8550   22.9210 C.ar   31  PHE31      -0.0003
     16  CE2       -1.1950  -29.2740   21.3880 C.ar   31  PHE31      -0.0003
     17  CZ        -2.0250  -29.5930   22.4790 C.ar   31  PHE31      -0.0000
     18  N          2.9660  -31.4350   20.1520 N.am   32  SER32      -0.1938
     19  CA         3.9730  -30.4220   20.1070 C.3    32  SER32       0.2055
     20  C          3.4980  -29.2680   19.2440 C.2    32  SER32       0.2644
     21  O          2.9380  -29.5090   18.1260 O.2    32  SER32      -0.2714
     22  CB         5.2520  -30.9800   19.5940 C.3    32  SER32       0.2130
     23  OG         5.7640  -32.0110   20.4460 O.3    32  SER32      -0.2179
     24  N          3.6510  -28.0550   19.6820 N.am   33  THR33      -0.1936
     25  CA         3.2150  -26.8690   19.0160 C.3    33  THR33       0.2028
     26  C          4.1740  -25.7250   19.2870 C.2    33  THR33       0.2642
     27  O          5.3790  -25.9770   19.5340 O.2    33  THR33      -0.2714
     28  CB         1.7600  -26.5680   19.3810 C.3    33  THR33       0.1808
     29  OG1        1.2760  -25.4890   18.5650 O.3    33  THR33      -0.2208
     30  CG2        1.5190  -26.2560   20.8230 C.3    33  THR33       0.0379
     31  N          3.7320  -24.4820   19.2970 N.am   34  TYR34      -0.1973
     32  CA         4.5690  -23.3600   19.7130 C.3    34  TYR34       0.1639
     33  C          3.7390  -22.4060   20.5700 C.2    34  TYR34       0.2290
     34  O          2.4950  -22.4410   20.5210 O.2    34  TYR34      -0.2864
     35  CB         5.2180  -22.6610   18.5290 C.3    34  TYR34       0.0560
     36  CG         4.2560  -21.9490   17.6370 C.ar   34  TYR34      -0.0198
     37  CD1        3.5780  -22.6240   16.6000 C.ar   34  TYR34      -0.0009
     38  CD2        3.9820  -20.6280   17.7840 C.ar   34  TYR34      -0.0009
     39  CE1        2.7000  -21.9540   15.8260 C.ar   34  TYR34       0.0417
     40  CE2        3.1140  -19.9250   16.9960 C.ar   34  TYR34       0.0417
     41  CZ         2.4440  -20.6330   15.9820 C.ar   34  TYR34       0.1957
     42  OH         1.5160  -19.9580   15.1890 O.3    34  TYR34      -0.2866
     43  N          2.3690  -18.7630   22.0880 N.3    36  ILE36      -0.1245
     44  CA         1.9560  -17.4240   21.7760 C.3    36  ILE36       0.1561
     45  C          1.6670  -16.7260   23.0940 C.2    36  ILE36       0.2260
     46  O          1.1560  -17.3960   24.0080 O.2    36  ILE36      -0.2867
     47  CB         0.5820  -17.4570   20.8290 C.3    36  ILE36       0.0252
     48  CG1        0.9440  -18.2010   19.5250 C.3    36  ILE36       0.0019
     49  CG2       -0.1530  -16.1360   20.6580 C.3    36  ILE36       0.0019
     50  CD1       -0.3310  -18.6750   18.7730 C.3    36  ILE36       0.0001
     51  N         -5.2980  -23.4040   19.9480 N.3    48  ASN48      -0.1225
     52  CA        -5.7380  -22.7710   18.6920 C.3    48  ASN48       0.1785
     53  C         -5.3530  -23.6500   17.5370 C.2    48  ASN48       0.2598
     54  O         -4.4020  -24.4500   17.5970 O.2    48  ASN48      -0.2718
     55  CB        -4.9360  -21.4800   18.5940 C.3    48  ASN48       0.1169
     56  CG        -5.2570  -20.4940   19.7180 C.2    48  ASN48       0.2627
     57  OD1       -6.3560  -20.5970   20.3490 O.2    48  ASN48      -0.2716
     58  ND2       -4.3750  -19.4920   19.9330 N.am   48  ASN48      -0.0877
     59  N         -6.0930  -23.5310   16.4570 N.am   49  GLY49      -0.1942
     60  CA        -5.7150  -24.2750   15.2410 C.3    49  GLY49       0.2014
     61  C         -5.9170  -25.7530   15.4250 C.2    49  GLY49       0.2639
     62  O         -6.9100  -26.2010   16.0830 O.2    49  GLY49      -0.2714
     63  N         -5.0980  -26.5750   14.8060 N.am   50  ALA50      -0.1963
     64  CA        -5.2760  -28.0050   14.8580 C.3    50  ALA50       0.1728
     65  C         -5.2480  -28.5600   16.2600 C.2    50  ALA50       0.2616
     66  O         -5.8690  -29.5960   16.4990 O.2    50  ALA50      -0.2715
     67  CB        -4.2580  -28.7310   13.9330 C.3    50  ALA50       0.0334
     68  N         -4.5360  -27.8500   17.1370 N.am   51  ALA51      -0.1977
     69  CA        -4.3670  -28.3020   18.5220 C.3    51  ALA51       0.1597
     70  C         -5.6990  -28.3620   19.2750 C.2    51  ALA51       0.2287
     71  O         -5.7930  -29.1100   20.2720 O.2    51  ALA51      -0.2864
     72  CB        -3.4240  -27.3990   19.2480 C.3    51  ALA51       0.0319
@<TRIPOS>BOND
     1    67    64    1
     2    63    64    1
     3    63    61   am
     4    64    65    1
     5    42    41    1
     6    60    61    1
     7    60    59    1
     8    61    62    2
     9    39    41   ar
    10    39    37   ar
    11    41    40   ar
    12    65    66    2
    13    65    68   am
    14    59    53   am
    15    37    36   ar
    16    40    38   ar
    17    68    69    1
    18     1     2    1
    19    53    54    2
    20    53    52    1
    21    36    38   ar
    22    36    35    1
    23    21    20    2
    24     6     5    1
    25     5     2    1
    26    69    72    1
    27    69    70    1
    28    35    32    1
    29    29    28    1
    30    55    52    1
    31    55    56    1
    32     2     3    1
    33    52    51    1
    34    50    48    1
    35    25    26    1
    36    25    28    1
    37    25    24    1
    38    20    24   am
    39    20    19    1
    40    70    71    2
    41    26    31   am
    42    26    27    2
    43    31    32    1
    44    28    30    1
    45    48    47    1
    46    22    19    1
    47    22    23    1
    48    32    33    1
    49    56    58   am
    50    56    57    2
    51     3     4    2
    52    19    18    1
    53    18     9   am
    54    11     8    1
    55    11    12    1
    56    34    33    2
    57    49    47    1
    58    14    12   ar
    59    14    16   ar
    60    47    44    1
    61     8     9    1
    62     8     7    1
    63    12    13   ar
    64     9    10    2
    65    16    17   ar
    66    44    43    1
    67    44    45    1
    68    13    15   ar
    69    17    15   ar
    70    45    46    2
