@<TRIPOS>MOLECULE
tmp/4aotB00.pdb
 203 193 0 0 0
SMALL
GASTEIGER

@<TRIPOS>ATOM
      1  N         21.5360   16.6370   22.3990 N.3    25  LEU25      -0.1245
      2  CA        20.2610   15.9590   22.6250 C.3    25  LEU25       0.1561
      3  C         20.0100   15.6380   24.0980 C.2    25  LEU25       0.2260
      4  O         18.8710   15.3520   24.4840 O.2    25  LEU25      -0.2867
      5  CB        20.2260   14.6690   21.8110 C.3    25  LEU25       0.0270
      6  CG        20.2150   14.8840   20.2990 C.3    25  LEU25       0.0019
      7  CD1       20.4120   13.5600   19.5630 C.3    25  LEU25       0.0001
      8  CD2       18.9270   15.5590   19.8460 C.3    25  LEU25       0.0001
      9  N         25.1890    8.6580   31.3620 N.3    30  PHE30      -0.1241
     10  CA        26.0580    7.9260   30.4470 C.3    30  PHE30       0.1605
     11  C         26.9870    8.8870   29.7040 C.2    30  PHE30       0.2264
     12  O         28.0490    8.4770   29.2290 O.2    30  PHE30      -0.2867
     13  CB        25.2280    7.1060   29.4540 C.3    30  PHE30       0.0534
     14  CG        24.0950    7.8660   28.8310 C.ar   30  PHE30      -0.0203
     15  CD1       22.9000    8.0390   29.5350 C.ar   30  PHE30      -0.0042
     16  CD2       24.2570    8.4160   27.5700 C.ar   30  PHE30      -0.0042
     17  CE1       21.8490    8.7810   28.9570 C.ar   30  PHE30      -0.0003
     18  CE2       23.2250    9.1690   26.9960 C.ar   30  PHE30      -0.0003
     19  CZ        22.0340    9.3380   27.6860 C.ar   30  PHE30      -0.0000
     20  N         25.0340   13.5480   24.9830 N.3    33  VAL33      -0.1245
     21  CA        24.6160   12.9940   23.6840 C.3    33  VAL33       0.1561
     22  C         24.4220   14.1070   22.6770 C.2    33  VAL33       0.2260
     23  O         23.7310   15.0850   22.9600 O.2    33  VAL33      -0.2867
     24  CB        23.2830   12.2210   23.7340 C.3    33  VAL33       0.0252
     25  CG1       22.8850   11.8010   22.3230 C.3    33  VAL33       0.0019
     26  CG2       23.4320   10.9950   24.6260 C.3    33  VAL33       0.0019
     27  N         22.3060    9.9600   16.5060 N.3    46  ALA46      -0.1245
     28  CA        22.5980   10.2900   17.8930 C.3    46  ALA46       0.1562
     29  C         24.0050    9.7910   18.1860 C.2    46  ALA46       0.2260
     30  O         24.3030    8.6220   17.9650 O.2    46  ALA46      -0.2867
     31  CB        21.5900    9.6480   18.8250 C.3    46  ALA46       0.0290
     32  N         27.4410    9.5640   20.6970 N.3    48  LYS48      -0.1245
     33  CA        27.7760    9.5340   22.1250 C.3    48  LYS48       0.1561
     34  C         29.1450    8.9190   22.3970 C.2    48  LYS48       0.2260
     35  O         29.5590    7.9350   21.7410 O.2    48  LYS48      -0.2867
     36  CB        26.6820    8.7100   22.8070 C.3    48  LYS48       0.0271
     37  CG        26.8220    8.4930   24.2950 C.3    48  LYS48       0.0035
     38  CD        26.2390    7.1400   24.6830 C.3    48  LYS48       0.0206
     39  CE        26.5650    6.7370   26.1070 C.3    48  LYS48       0.1093
     40  NZ        25.6660    5.6450   26.5890 N.3    48  LYS48      -0.1314
     41  N         30.9780    6.5710   24.8700 N.3    50  ILE50      -0.1231
     42  CA        30.7170    5.5810   25.8980 C.3    50  ILE50       0.1692
     43  C         31.9530    5.5920   26.7730 C.2    50  ILE50       0.2591
     44  O         33.0590    5.3690   26.2780 O.2    50  ILE50      -0.2718
     45  CB        30.5280    4.1650   25.3200 C.3    50  ILE50       0.0266
     46  CG1       29.3910    4.1410   24.2830 C.3    50  ILE50       0.0019
     47  CG2       30.3030    3.1740   26.4520 C.3    50  ILE50       0.0020
     48  CD1       29.4260    2.9480   23.3430 C.3    50  ILE50       0.0001
     49  N         31.7780    5.8940   28.0580 N.am   51  GLU51      -0.1979
     50  CA        32.9270    6.0200   28.9530 C.3    51  GLU51       0.1602
     51  C         33.4490    4.6090   29.2560 C.2    51  GLU51       0.2287
     52  O         32.6940    3.6300   29.2870 O.2    51  GLU51      -0.2864
     53  CB        32.6010    6.8260   30.2370 C.3    51  GLU51       0.0415
     54  CG        33.0190    8.3070   30.1830 C.3    51  GLU51       0.1163
     55  CD        32.4990    9.0480   28.9660 C.2    51  GLU51       0.3649
     56  OE1       31.4240    8.7560   28.4630 O.co2  51  GLU51      -0.2457
     57  OE2       33.3070    9.9070   28.5410 O.co2  51  GLU51      -0.2457
     58  N         32.6470   -3.7000   25.3610 N.3    61  TYR61      -0.1241
     59  CA        31.6770   -2.8450   24.7030 C.3    61  TYR61       0.1605
     60  C         31.7850   -3.0090   23.2030 C.2    61  TYR61       0.2264
     61  O         30.7740   -3.1170   22.5410 O.2    61  TYR61      -0.2867
     62  CB        31.8130   -1.3840   25.1250 C.3    61  TYR61       0.0534
     63  CG        31.5420   -1.1400   26.6020 C.ar   61  TYR61      -0.0201
     64  CD1       30.8480   -2.0620   27.3780 C.ar   61  TYR61      -0.0009
     65  CD2       31.9990    0.0220   27.2240 C.ar   61  TYR61      -0.0009
     66  CE1       30.6400   -1.8490   28.7220 C.ar   61  TYR61       0.0417
     67  CE2       31.7730    0.2550   28.5690 C.ar   61  TYR61       0.0417
     68  CZ        31.0910   -0.6800   29.3130 C.ar   61  TYR61       0.1957
     69  OH        30.9000   -0.4420   30.6580 O.3    61  TYR61      -0.2866
     70  N         29.9730   -6.0000   21.9590 N.3    64  GLU64      -0.1231
     71  CA        28.5060   -5.7300   21.9510 C.3    64  GLU64       0.1699
     72  C         28.1420   -4.8170   20.8010 C.2    64  GLU64       0.2592
     73  O         27.1410   -5.0610   20.0910 O.2    64  GLU64      -0.2718
     74  CB        27.9960   -5.1360   23.3010 C.3    64  GLU64       0.0402
     75  CG        28.2780   -5.9610   24.5920 C.3    64  GLU64       0.1161
     76  CD        28.3380   -5.1300   25.8850 C.2    64  GLU64       0.3649
     77  OE1       27.7210   -4.0270   25.9190 O.co2  64  GLU64      -0.2457
     78  OE2       28.9980   -5.5770   26.8810 O.co2  64  GLU64      -0.2457
     79  N         28.9510   -3.7890   20.5740 N.am   65  ILE65      -0.1980
     80  CA        28.6990   -2.9130   19.4560 C.3    65  ILE65       0.1595
     81  C         28.7390   -3.7150   18.1410 C.2    65  ILE65       0.2287
     82  O         27.9120   -3.5130   17.2790 O.2    65  ILE65      -0.2864
     83  CB        29.6850   -1.7230   19.4220 C.3    65  ILE65       0.0276
     84  CG1       29.4100   -0.8030   20.5970 C.3    65  ILE65       0.0022
     85  CG2       29.5230   -0.9040   18.1510 C.3    65  ILE65       0.0022
     86  CD1       30.6500   -0.1840   21.2190 C.3    65  ILE65       0.0001
     87  N         17.4760   -0.3140   16.6230 N.3    77  VAL77      -0.1245
     88  CA        18.2660    0.8120   16.1830 C.3    77  VAL77       0.1561
     89  C         19.3940    0.3720   15.2510 C.2    77  VAL77       0.2260
     90  O         19.9300   -0.7140   15.4010 O.2    77  VAL77      -0.2867
     91  CB        18.8480    1.6280   17.3660 C.3    77  VAL77       0.0252
     92  CG1       17.7190    2.1700   18.2660 C.3    77  VAL77       0.0019
     93  CG2       19.8560    0.8290   18.1920 C.3    77  VAL77       0.0019
     94  N         29.8840    6.0580   19.7280 N.3    91  ILE91      -0.1245
     95  CA        28.7840    5.3400   19.0420 C.3    91  ILE91       0.1561
     96  C         27.8880    6.3150   18.2530 C.2    91  ILE91       0.2260
     97  O         27.5220    7.3740   18.7440 O.2    91  ILE91      -0.2867
     98  CB        27.9570    4.4550   20.0500 C.3    91  ILE91       0.0252
     99  CG1       27.3690    3.1870   19.3900 C.3    91  ILE91       0.0019
    100  CG2       26.7970    5.2060   20.6800 C.3    91  ILE91       0.0019
    101  CD1       26.4670    2.3670   20.3240 C.3    91  ILE91       0.0001
    102  N         24.2150    6.1380   16.4400 N.3    93  ILE93      -0.1231
    103  CA        23.0350    5.3670   16.1770 C.3    93  ILE93       0.1692
    104  C         22.1200    6.2180   15.3270 C.2    93  ILE93       0.2592
    105  O         22.0400    7.4300   15.5400 O.2    93  ILE93      -0.2718
    106  CB        22.3240    5.0090   17.5000 C.3    93  ILE93       0.0266
    107  CG1       23.2880    4.2750   18.4490 C.3    93  ILE93       0.0019
    108  CG2       21.0540    4.2240   17.2290 C.3    93  ILE93       0.0020
    109  CD1       23.8110    2.9680   17.8590 C.3    93  ILE93       0.0001
    110  N         21.3910    5.5730   14.4070 N.am   94  GLU94      -0.1966
    111  CA        20.4800    6.2670   13.5060 C.3    94  GLU94       0.1733
    112  C         19.4570    7.0340   14.3140 C.2    94  GLU94       0.2616
    113  O         18.7740    6.4650   15.1690 O.2    94  GLU94      -0.2715
    114  CB        19.7580    5.3120   12.5300 C.3    94  GLU94       0.0429
    115  CG        19.0730    6.0420   11.3700 C.3    94  GLU94       0.1163
    116  CD        18.5230    5.1030   10.2990 C.2    94  GLU94       0.3649
    117  OE1       17.5280    4.3870   10.5460 O.co2  94  GLU94      -0.2457
    118  OE2       19.0760    5.0980    9.1930 O.co2  94  GLU94      -0.2457
    119  N         19.3590    8.3360   14.0280 N.am   95  PHE95      -0.1960
    120  CA        18.5460    9.2570   14.8050 C.3    95  PHE95       0.1771
    121  C         17.0780    8.8440   14.7340 C.2    95  PHE95       0.2620
    122  O         16.5590    8.5530   13.6590 O.2    95  PHE95      -0.2715
    123  CB        18.7560   10.6830   14.3080 C.3    95  PHE95       0.0574
    124  CG        18.0960   11.7360   15.1610 C.ar   95  PHE95      -0.0200
    125  CD1       18.4190   11.8610   16.5180 C.ar   95  PHE95      -0.0042
    126  CD2       17.2030   12.6270   14.6040 C.ar   95  PHE95      -0.0042
    127  CE1       17.8480   12.8440   17.2990 C.ar   95  PHE95      -0.0003
    128  CE2       16.6240   13.6150   15.3770 C.ar   95  PHE95      -0.0003
    129  CZ        16.9520   13.7370   16.7250 C.ar   95  PHE95      -0.0000
    130  N         16.4530    8.7250   15.9080 N.am   96  CYS96      -0.1954
    131  CA        15.0110    8.6080   16.0210 C.3    96  CYS96       0.1828
    132  C         14.4800    9.8910   16.6090 C.2    96  CYS96       0.2467
    133  O         14.6860   10.1560   17.7850 O.2    96  CYS96      -0.2730
    134  CB        14.6630    7.4550   16.9380 C.3    96  CYS96       0.0996
    135  SG        15.3450    5.8930   16.3510 S.3    96  CYS96      -0.0797
    136  N         13.7940   10.7070   15.8040 N.am   97  PRO97      -0.2715
    137  CA        13.4770   12.0660   16.2830 C.3    97  PRO97       0.1536
    138  C         12.3650   12.1400   17.3080 C.2    97  PRO97       0.2599
    139  O         12.1840   13.1690   17.9260 O.2    97  PRO97      -0.2715
    140  CB        13.0620   12.8150   15.0130 C.3    97  PRO97       0.0310
    141  CG        13.0900   11.8160   13.8930 C.3    97  PRO97       0.0237
    142  CD        13.2920   10.4500   14.4480 C.3    97  PRO97       0.0939
    143  N         11.6230   11.0620   17.4840 N.am   98  GLY98      -0.1941
    144  CA        10.5150   11.0740   18.4370 C.3    98  GLY98       0.2014
    145  C         10.9680   10.9170   19.8700 C.2    98  GLY98       0.2639
    146  O         10.2290   11.2470   20.7860 O.2    98  GLY98      -0.2714
    147  N         12.1820   10.4090   20.0740 N.am   99  GLY99      -0.1939
    148  CA        12.7040   10.1910   21.4100 C.3    99  GLY99       0.2014
    149  C         12.1300    8.9200   22.0080 C.2    99  GLY99       0.2638
    150  O         11.4890    8.1210   21.3170 O.2    99  GLY99      -0.2714
    151  N         12.3370    8.7470   23.3120 N.am  100  ALA100     -0.1977
    152  CA        11.8770    7.5500   24.0210 C.3   100  ALA100      0.1597
    153  C         10.4160    7.6810   24.4430 C.2   100  ALA100      0.2287
    154  O          9.9470    8.7660   24.7970 O.2   100  ALA100     -0.2864
    155  CB        12.7550    7.2880   25.2350 C.3   100  ALA100      0.0319
    156  N          9.8920    9.3740   27.8170 N.3   103  ALA103     -0.1245
    157  CA        10.1020   10.8230   27.7250 C.3   103  ALA103      0.1562
    158  C          8.8420   11.4770   27.2100 C.2   103  ALA103      0.2260
    159  O          8.4580   12.5590   27.6620 O.2   103  ALA103     -0.2867
    160  CB        11.2730   11.1550   26.7910 C.3   103  ALA103      0.0290
    161  N         12.4570    3.7990   21.2670 N.3   147  LEU147     -0.1245
    162  CA        12.6130    5.0840   20.5890 C.3   147  LEU147      0.1561
    163  C         11.6400    5.1290   19.4450 C.2   147  LEU147      0.2260
    164  O         11.2640    4.0770   18.8990 O.2   147  LEU147     -0.2867
    165  CB        14.0480    5.3140   20.1000 C.3   147  LEU147      0.0270
    166  CG        15.1530    5.2180   21.1590 C.3   147  LEU147      0.0019
    167  CD1       16.5050    5.5990   20.5750 C.3   147  LEU147      0.0001
    168  CD2       14.7970    6.0390   22.3820 C.3   147  LEU147      0.0001
    169  N         16.4230    0.3740   21.4190 N.3   157  ALA157     -0.1231
    170  CA        17.8070    0.7750   21.7460 C.3   157  ALA157      0.1694
    171  C         18.5100   -0.3840   22.4380 C.2   157  ALA157      0.2592
    172  O         17.8740   -1.0940   23.2330 O.2   157  ALA157     -0.2718
    173  CB        17.8100    2.0210   22.6420 C.3   157  ALA157      0.0304
    174  N         19.8000   -0.5850   22.1450 N.am  158  ASP158     -0.1960
    175  CA        20.5860   -1.6190   22.8440 C.3   158  ASP158      0.1840
    176  C         20.7410   -1.2530   24.3020 C.2   158  ASP158      0.2622
    177  O         20.5740   -2.0810   25.1850 O.2   158  ASP158     -0.2715
    178  CB        21.9840   -1.8260   22.2200 C.3   158  ASP158      0.1450
    179  CG        22.7430   -0.5200   22.0150 C.2   158  ASP158      0.3671
    180  OD1       22.0760    0.5390   21.8690 O.co2 158  ASP158     -0.2456
    181  OD2       24.0040   -0.5550   22.0080 O.co2 158  ASP158     -0.2456
    182  N         20.9820    0.0200   24.5520 N.am  159  PHE159     -0.1960
    183  CA        21.1300    0.5450   25.9000 C.3   159  PHE159      0.1771
    184  C         20.3270    1.8280   25.9940 C.2   159  PHE159      0.2620
    185  O         20.2100    2.5840   25.0150 O.2   159  PHE159     -0.2715
    186  CB        22.6080    0.8040   26.2100 C.3   159  PHE159      0.0574
    187  CG        22.8510    1.4410   27.5690 C.ar  159  PHE159     -0.0200
    188  CD1       22.6500    0.7120   28.7430 C.ar  159  PHE159     -0.0042
    189  CD2       23.2650    2.7720   27.6780 C.ar  159  PHE159     -0.0042
    190  CE1       22.8500    1.3020   29.9970 C.ar  159  PHE159     -0.0003
    191  CE2       23.4730    3.3600   28.9250 C.ar  159  PHE159     -0.0003
    192  CZ        23.2780    2.6230   30.0870 C.ar  159  PHE159     -0.0000
    193  N         19.7730    2.0690   27.1750 N.am  160  GLY160     -0.1954
    194  CA        19.0350    3.2820   27.4220 C.3   160  GLY160      0.1869
    195  C         18.8710    3.5410   28.9040 C.2   160  GLY160      0.2309
    196  O         19.1760    2.6660   29.7450 O.2   160  GLY160     -0.2863
    197  N          6.4000   20.4800   22.5410 N.3   279  VAL279     -0.1245
    198  CA         7.7860   20.8620   22.8800 C.3   279  VAL279      0.1561
    199  C          8.0830   22.3410   22.5840 C.2   279  VAL279      0.2260
    200  O          8.3340   22.7290   21.4430 O.2   279  VAL279     -0.2867
    201  CB         8.8270   19.9700   22.1440 C.3   279  VAL279      0.0252
    202  CG1       10.2500   20.4230   22.4580 C.3   279  VAL279      0.0019
    203  CG2        8.6420   18.4980   22.5030 C.3   279  VAL279      0.0019
@<TRIPOS>BOND
     1   118   116   ar
     2   116   117   ar
     3   116   115    1
     4   115   114    1
     5   114   111    1
     6   111   112    1
     7   111   110    1
     8   122   121    2
     9   141   142    1
    10   141   140    1
    11   119   112   am
    12   119   120    1
    13   123   120    1
    14   123   124    1
    15   112   113    2
    16   110   104   am
    17   142   136    1
    18   126   124   ar
    19   126   128   ar
    20   121   120    1
    21   121   130   am
    22   140   137    1
    23   124   125   ar
    24    89    90    2
    25    89    88    1
    26   104   105    2
    27   104   103    1
    28   128   129   ar
    29   136   137    1
    30   136   132   am
    31   130   131    1
    32   131   132    1
    33   131   134    1
    34   103   102    1
    35   103   106    1
    36    88    87    1
    37    88    91    1
    38   137   138    1
    39   135   134    1
    40    27    28    1
    41   125   127   ar
    42   132   133    2
    43   129   127   ar
    44   108   106    1
    45    82    81    2
    46   138   143   am
    47   138   139    2
    48    91    93    1
    49    91    92    1
    50   143   144    1
    51   106   107    1
    52   109   107    1
    53    28    29    1
    54    28    31    1
    55    30    29    2
    56    81    80    1
    57    85    83    1
    58    96    97    2
    59    96    95    1
    60   144   145    1
    61   164   163    2
    62    95    94    1
    63    95    98    1
    64    99    98    1
    65    99   101    1
    66    83    80    1
    67    83    84    1
    68   163   162    1
    69    80    79    1
    70     7     6    1
    71     8     6    1
    72   145   147   am
    73   145   146    2
    74    98   100    1
    75   147   148    1
    76    73    72    2
    77   165   162    1
    78   165   166    1
    79     6     5    1
    80    79    72   am
    81   167   166    1
    82   162   161    1
    83    84    86    1
    84    32    33    1
    85    72    71    1
    86   166   168    1
    87   150   149    2
    88   148   149    1
    89   169   170    1
    90   200   199    2
    91    35    34    2
    92   170   171    1
    93   170   173    1
    94     5     2    1
    95   180   179   ar
    96    71    70    1
    97    71    74    1
    98   149   151   am
    99   181   179   ar
   100   179   178    1
   101    33    34    1
   102    33    36    1
   103   201   202    1
   104   201   203    1
   105   201   198    1
   106   174   171   am
   107   174   175    1
   108   178   175    1
   109    25    24    1
   110     1     2    1
   111   171   172    2
   112    61    60    2
   113   197   198    1
   114   199   198    1
   115     2     3    1
   116    22    23    2
   117    22    21    1
   118    36    37    1
   119   175   176    1
   120    60    59    1
   121    74    75    1
   122   151   152    1
   123    48    46    1
   124    21    24    1
   125    21    20    1
   126    24    26    1
   127   152   153    1
   128   152   155    1
   129     3     4    2
   130    46    45    1
   131    37    38    1
   132   176   182   am
   133   176   177    2
   134   153   154    2
   135   182   183    1
   136    75    76    1
   137    38    39    1
   138    59    62    1
   139    59    58    1
   140    41    42    1
   141   185   184    2
   142    62    63    1
   143    45    42    1
   144    45    47    1
   145    76    77   ar
   146    76    78   ar
   147    42    43    1
   148   183   184    1
   149   183   186    1
   150   184   193   am
   151    39    40    1
   152   186   187    1
   153    44    43    2
   154    63    65   ar
   155    63    64   ar
   156    43    49   am
   157   160   157    1
   158    18    16   ar
   159    18    19   ar
   160   193   194    1
   161   158   159    2
   162   158   157    1
   163    65    67   ar
   164    64    66   ar
   165   194   195    1
   166   187   189   ar
   167   187   188   ar
   168    16    14   ar
   169   189   191   ar
   170    19    17   ar
   171   157   156    1
   172    49    50    1
   173    56    55   ar
   174    57    55   ar
   175    67    68   ar
   176    66    68   ar
   177   188   190   ar
   178    14    13    1
   179    14    15   ar
   180   195   196    2
   181   191   192   ar
   182    50    51    1
   183    50    53    1
   184    17    15   ar
   185    55    54    1
   186    12    11    2
   187    51    52    2
   188    68    69    1
   189    13    10    1
   190    11    10    1
   191   190   192   ar
   192    54    53    1
   193    10     9    1
