@<TRIPOS>MOLECULE
tmp/4aotA00.pdb
 211 200 0 0 0
SMALL
GASTEIGER

@<TRIPOS>ATOM
      1  N         -6.5850  -18.3540  -15.5470 N.3    27  LEU27      -0.1245
      2  CA        -6.8120  -16.9830  -15.1670 C.3    27  LEU27       0.1561
      3  C         -6.0340  -15.9700  -16.0370 C.2    27  LEU27       0.2260
      4  O         -6.3630  -14.7800  -16.0350 O.2    27  LEU27      -0.2867
      5  CB        -6.4070  -16.8330  -13.7210 C.3    27  LEU27       0.0270
      6  CG        -7.2820  -17.6390  -12.7730 C.3    27  LEU27       0.0019
      7  CD1       -6.6610  -17.5370  -11.4210 C.3    27  LEU27       0.0001
      8  CD2       -8.7460  -17.1390  -12.8400 C.3    27  LEU27       0.0001
      9  N          5.5370  -15.1310  -19.5800 N.3    32  PHE32      -0.1241
     10  CA         6.3310  -15.9890  -18.7140 C.3    32  PHE32       0.1605
     11  C          5.6330  -17.3060  -18.3860 C.2    32  PHE32       0.2264
     12  O          6.3010  -18.3060  -18.0660 O.2    32  PHE32      -0.2867
     13  CB         6.8560  -15.1740  -17.5100 C.3    32  PHE32       0.0534
     14  CG         7.8380  -14.1000  -17.9400 C.ar   32  PHE32      -0.0203
     15  CD1        9.1470  -14.4380  -18.2740 C.ar   32  PHE32      -0.0042
     16  CD2        7.4230  -12.7780  -18.1160 C.ar   32  PHE32      -0.0042
     17  CE1       10.0350  -13.4690  -18.7120 C.ar   32  PHE32      -0.0003
     18  CE2        8.3000  -11.8040  -18.5540 C.ar   32  PHE32      -0.0003
     19  CZ         9.6070  -12.1520  -18.8490 C.ar   32  PHE32      -0.0000
     20  N         -1.2210  -18.6040  -15.7440 N.3    35  VAL35      -0.1245
     21  CA        -1.7510  -18.6220  -14.3950 C.3    35  VAL35       0.1561
     22  C         -3.0300  -19.4520  -14.4050 C.2    35  VAL35       0.2260
     23  O         -3.9570  -19.1800  -15.1790 O.2    35  VAL35      -0.2867
     24  CB        -2.0850  -17.2090  -13.8560 C.3    35  VAL35       0.0252
     25  CG1       -2.5750  -17.3130  -12.4050 C.3    35  VAL35       0.0019
     26  CG2       -0.8910  -16.2670  -13.9840 C.3    35  VAL35       0.0019
     27  N         -4.3750  -19.1840   -6.9000 N.3    48  ALA48      -0.1245
     28  CA        -3.7810  -18.9200   -8.2210 C.3    48  ALA48       0.1562
     29  C         -2.4480  -19.6890   -8.2820 C.2    48  ALA48       0.2260
     30  O         -1.6980  -19.6650   -7.3250 O.2    48  ALA48      -0.2867
     31  CB        -3.5730  -17.4210   -8.4090 C.3    48  ALA48       0.0290
     32  N          0.9590  -19.8150  -10.7250 N.3    50  LYS50      -0.1245
     33  CA         1.6600  -19.1800  -11.8800 C.3    50  LYS50       0.1561
     34  C          2.7230  -20.2080  -12.2220 C.2    50  LYS50       0.2260
     35  O          3.4350  -20.6760  -11.3340 O.2    50  LYS50      -0.2867
     36  CB         2.2620  -17.8280  -11.5140 C.3    50  LYS50       0.0271
     37  CG         3.3110  -17.3390  -12.4860 C.3    50  LYS50       0.0035
     38  CD         2.6290  -16.8770  -13.7490 C.3    50  LYS50       0.0206
     39  CE         3.5880  -16.0910  -14.6440 C.3    50  LYS50       0.1093
     40  NZ         4.0910  -14.7720  -14.1190 N.3    50  LYS50      -0.1314
     41  N          5.8560  -21.4640  -14.6610 N.3    52  ILE52      -0.1245
     42  CA         6.9140  -21.0600  -15.6130 C.3    52  ILE52       0.1561
     43  C          7.8140  -22.2140  -16.0110 C.2    52  ILE52       0.2260
     44  O          8.2400  -22.9700  -15.1280 O.2    52  ILE52      -0.2867
     45  CB         7.8450  -20.0190  -14.9650 C.3    52  ILE52       0.0252
     46  CG1        7.0190  -18.8830  -14.3490 C.3    52  ILE52       0.0019
     47  CG2        8.7700  -19.4540  -16.0330 C.3    52  ILE52       0.0019
     48  CD1        7.7320  -18.0980  -13.2840 C.3    52  ILE52       0.0001
     49  N         13.9560  -15.7500  -10.0570 N.3    63  TYR63      -0.1241
     50  CA        12.5620  -15.8930   -9.6580 C.3    63  TYR63       0.1605
     51  C         12.4240  -16.3010   -8.2190 C.2    63  TYR63       0.2264
     52  O         11.6410  -15.7380   -7.5040 O.2    63  TYR63      -0.2867
     53  CB        11.7860  -16.8280  -10.5920 C.3    63  TYR63       0.0534
     54  CG        11.7880  -16.3800  -12.0450 C.ar   63  TYR63      -0.0201
     55  CD1       12.0710  -15.0780  -12.3990 C.ar   63  TYR63      -0.0009
     56  CD2       11.5500  -17.2870  -13.0670 C.ar   63  TYR63      -0.0009
     57  CE1       12.1630  -14.6930  -13.7350 C.ar   63  TYR63       0.0417
     58  CE2       11.5970  -16.9080  -14.3790 C.ar   63  TYR63       0.0417
     59  CZ        11.9110  -15.6180  -14.7060 C.ar   63  TYR63       0.1957
     60  OH        11.9520  -15.2570  -16.0180 O.3    63  TYR63      -0.2866
     61  N         12.7070  -13.5460   -5.7490 N.3    66  GLU66      -0.1231
     62  CA        11.4130  -12.8450   -5.6660 C.3    66  GLU66       0.1699
     63  C         10.3850  -13.6060   -4.8630 C.2    66  GLU66       0.2592
     64  O          9.6790  -13.0210   -4.0350 O.2    66  GLU66      -0.2718
     65  CB        10.8800  -12.4390   -7.0440 C.3    66  GLU66       0.0402
     66  CG        11.8700  -11.4790   -7.6860 C.3    66  GLU66       0.1161
     67  CD        11.3140  -10.6770   -8.8190 C.2    66  GLU66       0.3649
     68  OE1       10.1150  -10.3200   -8.8110 O.co2  66  GLU66      -0.2457
     69  OE2       12.0860  -10.3480   -9.7180 O.co2  66  GLU66      -0.2457
     70  N         10.3260  -14.9210   -5.0290 N.am   67  ILE67      -0.1980
     71  CA         9.4040  -15.6940   -4.2030 C.3    67  ILE67       0.1595
     72  C          9.7720  -15.5390   -2.7170 C.2    67  ILE67       0.2287
     73  O          8.9330  -15.3190   -1.8660 O.2    67  ILE67      -0.2864
     74  CB         9.3930  -17.1710   -4.6080 C.3    67  ILE67       0.0276
     75  CG1        8.8270  -17.3670   -6.0250 C.3    67  ILE67       0.0022
     76  CG2        8.6990  -17.9890   -3.5590 C.3    67  ILE67       0.0022
     77  CD1        9.3720  -18.6380   -6.7100 C.3    67  ILE67       0.0001
     78  N          8.6500  -12.2380   -1.3900 N.3    70  LEU70      -0.1245
     79  CA         7.2190  -12.2660   -1.1560 C.3    70  LEU70       0.1561
     80  C          6.8950  -13.0280    0.1150 C.2    70  LEU70       0.2260
     81  O          6.0010  -12.6350    0.9090 O.2    70  LEU70      -0.2867
     82  CB         6.4680  -12.8740   -2.3590 C.3    70  LEU70       0.0270
     83  CG         4.9320  -12.8430   -2.3750 C.3    70  LEU70       0.0019
     84  CD1        4.4790  -11.3710   -2.4110 C.3    70  LEU70       0.0001
     85  CD2        4.3640  -13.5270   -3.6250 C.3    70  LEU70       0.0001
     86  N         -0.7020   -9.7640   -1.8970 N.3    79  VAL79      -0.1245
     87  CA        -0.9900  -11.1920   -2.1360 C.3    79  VAL79       0.1561
     88  C         -0.2130  -12.0740   -1.1740 C.2    79  VAL79       0.2260
     89  O          0.8550  -11.7530   -0.7790 O.2    79  VAL79      -0.2867
     90  CB        -0.7300  -11.6460   -3.5710 C.3    79  VAL79       0.0252
     91  CG1       -1.6340  -10.9270   -4.5370 C.3    79  VAL79       0.0019
     92  CG2        0.7280  -11.4290   -3.9610 C.3    79  VAL79       0.0019
     93  N          4.1820  -21.0660   -8.7690 N.3    93  ILE93      -0.1245
     94  CA         4.0230  -20.1130   -7.6670 C.3    93  ILE93       0.1561
     95  C          2.5420  -20.0940   -7.2140 C.2    93  ILE93       0.2260
     96  O          1.6660  -19.6500   -7.9560 O.2    93  ILE93      -0.2867
     97  CB         4.4930  -18.7000   -8.0510 C.3    93  ILE93       0.0252
     98  CG1        5.9280  -18.7730   -8.5330 C.3    93  ILE93       0.0019
     99  CG2        4.4300  -17.7660   -6.8530 C.3    93  ILE93       0.0019
    100  CD1        6.3120  -17.7580   -9.6160 C.3    93  ILE93       0.0001
    101  N         -0.4970  -18.6520   -5.0050 N.3    95  ILE95      -0.1231
    102  CA        -0.9630  -17.4910   -4.2390 C.3    95  ILE95       0.1692
    103  C         -2.4290  -17.7040   -3.8010 C.2    95  ILE95       0.2592
    104  O         -3.2230  -18.3000   -4.5090 O.2    95  ILE95      -0.2718
    105  CB        -0.9650  -16.1980   -5.0840 C.3    95  ILE95       0.0266
    106  CG1        0.3830  -16.0230   -5.7690 C.3    95  ILE95       0.0019
    107  CG2       -1.4180  -14.9990   -4.2190 C.3    95  ILE95       0.0020
    108  CD1        1.5590  -15.9250   -4.8090 C.3    95  ILE95       0.0001
    109  N         -2.7530  -17.2020   -2.6300 N.am   96  GLU96      -0.1966
    110  CA        -4.1270  -17.2330   -2.1410 C.3    96  GLU96       0.1733
    111  C         -5.0720  -16.5810   -3.1610 C.2    96  GLU96       0.2616
    112  O         -4.8250  -15.4290   -3.5530 O.2    96  GLU96      -0.2715
    113  CB        -4.2270  -16.5120   -0.7750 C.3    96  GLU96       0.0429
    114  CG        -5.5180  -16.7940   -0.0390 C.3    96  GLU96       0.1163
    115  CD        -5.5370  -16.2550    1.3640 C.2    96  GLU96       0.3649
    116  OE1       -5.5600  -15.0110    1.5410 O.co2  96  GLU96      -0.2457
    117  OE2       -5.5440  -17.1070    2.2940 O.co2  96  GLU96      -0.2457
    118  N         -6.1160  -17.3320   -3.5810 N.am   97  PHE97      -0.1960
    119  CA        -6.9790  -16.8820   -4.6820 C.3    97  PHE97       0.1771
    120  C         -7.6940  -15.5840   -4.2100 C.2    97  PHE97       0.2620
    121  O         -8.1970  -15.5480   -3.0900 O.2    97  PHE97      -0.2715
    122  CB        -7.9760  -17.9710   -5.1150 C.3    97  PHE97       0.0574
    123  CG        -8.8100  -17.6140   -6.3420 C.ar   97  PHE97      -0.0200
    124  CD1       -8.2080  -17.3630   -7.5650 C.ar   97  PHE97      -0.0042
    125  CD2      -10.1950  -17.5800   -6.2700 C.ar   97  PHE97      -0.0042
    126  CE1       -8.9360  -17.0330   -8.6670 C.ar   97  PHE97      -0.0003
    127  CE2      -10.9600  -17.2360   -7.3690 C.ar   97  PHE97      -0.0003
    128  CZ       -10.3300  -16.9770   -8.5770 C.ar   97  PHE97      -0.0000
    129  N         -7.6150  -14.5320   -5.0290 N.am   98  CYS98      -0.1954
    130  CA        -8.4540  -13.3260   -4.9140 C.3    98  CYS98       0.1828
    131  C         -9.5510  -13.4380   -5.9470 C.2    98  CYS98       0.2467
    132  O         -9.2880  -13.2970   -7.1310 O.2    98  CYS98      -0.2730
    133  CB        -7.6350  -12.0900   -5.2290 C.3    98  CYS98       0.0996
    134  SG        -6.2180  -11.9790   -4.1860 S.3    98  CYS98      -0.0797
    135  N        -10.7790  -13.6710   -5.5210 N.am   99  PRO99      -0.2715
    136  CA       -11.8050  -14.0240   -6.4800 C.3    99  PRO99       0.1536
    137  C        -12.3450  -12.8660   -7.2680 C.2    99  PRO99       0.2599
    138  O        -13.0400  -13.0830   -8.2320 O.2    99  PRO99      -0.2715
    139  CB       -12.9210  -14.6330   -5.6290 C.3    99  PRO99       0.0310
    140  CG       -12.4760  -14.5020   -4.2180 C.3    99  PRO99       0.0237
    141  CD       -11.2770  -13.6450   -4.1390 C.3    99  PRO99       0.0939
    142  N        -12.0430  -11.6500   -6.8760 N.am  100  GLY100     -0.1941
    143  CA       -12.5740  -10.4940   -7.5910 C.3   100  GLY100      0.2014
    144  C        -11.8110  -10.1790   -8.8690 C.2   100  GLY100      0.2639
    145  O        -12.3230   -9.4680   -9.7340 O.2   100  GLY100     -0.2714
    146  N        -10.5990  -10.6840   -8.9920 N.am  101  GLY101     -0.1939
    147  CA        -9.7810  -10.4260  -10.1610 C.3   101  GLY101      0.2014
    148  C         -9.1970   -9.0270  -10.1140 C.2   101  GLY101      0.2638
    149  O         -9.1910   -8.3750   -9.0800 O.2   101  GLY101     -0.2714
    150  N         -8.6650   -8.5920  -11.2480 N.am  102  ALA102     -0.1977
    151  CA        -7.8450   -7.3800  -11.2950 C.3   102  ALA102      0.1597
    152  C         -8.6950   -6.1630  -11.6140 C.2   102  ALA102      0.2287
    153  O         -9.6280   -6.2690  -12.3920 O.2   102  ALA102     -0.2864
    154  CB        -6.7680   -7.5140  -12.3550 C.3   102  ALA102      0.0319
    155  N         -9.2590   -5.4190  -15.3370 N.3   105  ALA105     -0.1231
    156  CA       -10.1540   -6.3900  -15.9720 C.3   105  ALA105      0.1694
    157  C        -11.5770   -6.0260  -15.6480 C.2   105  ALA105      0.2591
    158  O        -12.4450   -6.1500  -16.5000 O.2   105  ALA105     -0.2718
    159  CB        -9.8540   -7.8160  -15.5150 C.3   105  ALA105      0.0304
    160  N        -11.8060   -5.5550  -14.4230 N.am  106  ILE106     -0.1980
    161  CA       -13.1190   -5.0810  -13.9860 C.3   106  ILE106      0.1595
    162  C        -13.5610   -3.8460  -14.7880 C.2   106  ILE106      0.2287
    163  O        -14.6860   -3.7960  -15.2580 O.2   106  ILE106     -0.2864
    164  CB       -13.1310   -4.7490  -12.4940 C.3   106  ILE106      0.0276
    165  CG1      -13.1080   -6.0380  -11.6740 C.3   106  ILE106      0.0022
    166  CG2      -14.3570   -3.9250  -12.1360 C.3   106  ILE106      0.0022
    167  CD1      -12.6100   -5.8760  -10.2330 C.3   106  ILE106      0.0001
    168  N          6.6750   -2.8180  -10.2330 N.3   142  ASP142     -0.1239
    169  CA         5.7160   -3.3830  -11.1950 C.3   142  ASP142      0.1674
    170  C          4.2600   -2.8860  -11.0090 C.2   142  ASP142      0.2266
    171  O          3.2940   -3.5210  -11.4240 O.2   142  ASP142     -0.2867
    172  CB         5.7890   -4.9230  -11.1080 C.3   142  ASP142      0.1410
    173  CG         5.1340   -5.6110  -12.3180 C.2   142  ASP142      0.3668
    174  OD1        5.4340   -5.2200  -13.4670 O.co2 142  ASP142     -0.2456
    175  OD2        4.2810   -6.5080  -12.1210 O.co2 142  ASP142     -0.2456
    176  N         -5.4020   -6.7460   -7.2850 N.3   149  LEU149     -0.1245
    177  CA        -6.3970   -7.8040   -7.2310 C.3   149  LEU149      0.1561
    178  C         -7.3790   -7.4890   -6.1230 C.2   149  LEU149      0.2260
    179  O         -7.0450   -6.7500   -5.1850 O.2   149  LEU149     -0.2867
    180  CB        -5.7620   -9.1850   -7.0330 C.3   149  LEU149      0.0270
    181  CG        -4.6960   -9.5760   -8.0370 C.3   149  LEU149      0.0019
    182  CD1       -4.1990  -10.9990   -7.8480 C.3   149  LEU149      0.0001
    183  CD2       -5.2890   -9.3940   -9.4330 C.3   149  LEU149      0.0001
    184  N         -0.4010   -7.4700   -6.1570 N.3   159  ALA159     -0.1231
    185  CA         0.3500   -8.5660   -6.7290 C.3   159  ALA159      0.1694
    186  C          1.8010   -8.1380   -6.9210 C.2   159  ALA159      0.2592
    187  O          2.0820   -6.9890   -7.3070 O.2   159  ALA159     -0.2718
    188  CB        -0.2580   -8.9990   -8.0560 C.3   159  ALA159      0.0304
    189  N          2.7470   -9.0130   -6.5860 N.am  160  ASP160     -0.1960
    190  CA         4.1440   -8.6580   -6.7940 C.3   160  ASP160      0.1840
    191  C          4.3180   -8.4700   -8.2930 C.2   160  ASP160      0.2622
    192  O          4.9890   -7.5600   -8.7240 O.2   160  ASP160     -0.2715
    193  CB         5.1240   -9.7160   -6.2460 C.3   160  ASP160      0.1450
    194  CG         4.7690  -11.1360   -6.6720 C.2   160  ASP160      0.3671
    195  OD1        3.5740  -11.4190   -6.9270 O.co2 160  ASP160     -0.2456
    196  OD2        5.6960  -11.9810   -6.7440 O.co2 160  ASP160     -0.2456
    197  N          3.7090   -9.3400   -9.0760 N.am  161  PHE161     -0.1960
    198  CA         3.8290   -9.2990  -10.5080 C.3   161  PHE161      0.1771
    199  C          2.4390   -9.5040  -11.0940 C.2   161  PHE161      0.2620
    200  O          1.6140  -10.2400  -10.5540 O.2   161  PHE161     -0.2715
    201  CB         4.7900  -10.3850  -10.9810 C.3   161  PHE161      0.0574
    202  CG         5.0300  -10.3620  -12.4580 C.ar  161  PHE161     -0.0200
    203  CD1        5.7890   -9.3350  -13.0360 C.ar  161  PHE161     -0.0042
    204  CD2        4.4490  -11.3040  -13.2780 C.ar  161  PHE161     -0.0042
    205  CE1        5.9510   -9.2520  -14.4060 C.ar  161  PHE161     -0.0003
    206  CE2        4.6540  -11.2520  -14.6440 C.ar  161  PHE161     -0.0003
    207  CZ         5.4120  -10.2290  -15.2160 C.ar  161  PHE161     -0.0000
    208  N          2.1800   -8.8240  -12.1970 N.am  162  GLY162     -0.1954
    209  CA         0.9070   -8.9010  -12.8650 C.3   162  GLY162      0.1869
    210  C          1.0450   -8.4840  -14.3090 C.2   162  GLY162      0.2309
    211  O          2.0830   -7.9520  -14.7150 O.2   162  GLY162     -0.2863
@<TRIPOS>BOND
     1     9    10    1
     2    19    17   ar
     3    19    18   ar
     4    10    11    1
     5    10    13    1
     6    17    15   ar
     7    18    16   ar
     8    11    12    2
     9    15    14   ar
    10    16    14   ar
    11    14    13    1
    12   158   157    2
    13     3     4    2
    14     3     2    1
    15    47    45    1
    16    60    59    1
    17    43    42    1
    18    43    44    2
    19   156   157    1
    20   156   159    1
    21   156   155    1
    22    20    21    1
    23   157   160   am
    24    42    45    1
    25    42    41    1
    26     1     2    1
    27   163   162    2
    28   207   206   ar
    29   207   205   ar
    30    23    22    2
    31     2     5    1
    32    45    46    1
    33   162   161    1
    34   211   210    2
    35    59    58   ar
    36    59    57   ar
    37   206   204   ar
    38    39    40    1
    39    39    38    1
    40   160   161    1
    41   205   203   ar
    42    22    21    1
    43    21    24    1
    44    58    56   ar
    45    46    48    1
    46   210   209    1
    47   161   164    1
    48    26    24    1
    49    24    25    1
    50    38    37    1
    51    57    55   ar
    52     5     6    1
    53   174   173   ar
    54   204   202   ar
    55    56    54   ar
    56   203   202   ar
    57   209   208    1
    58     8     6    1
    59     6     7    1
    60   164   166    1
    61   164   165    1
    62    37    36    1
    63   202   201    1
    64    55    54   ar
    65   153   152    2
    66   154   151    1
    67   173   175   ar
    68   173   172    1
    69    34    33    1
    70    34    35    2
    71   208   199   am
    72    54    53    1
    73    33    36    1
    74    33    32    1
    75   165   167    1
    76   152   151    1
    77   171   170    2
    78   151   150    1
    79   150   148   am
    80   169   172    1
    81   169   170    1
    82   169   168    1
    83   199   200    2
    84   199   198    1
    85   201   198    1
    86    53    50    1
    87   198   197    1
    88   147   148    1
    89   147   146    1
    90   148   149    2
    91    49    50    1
    92   145   144    2
    93    69    67   ar
    94    50    51    1
    95   100    98    1
    96   183   181    1
    97   197   191   am
    98   146   144   am
    99   144   143    1
   100    67    68   ar
   101    67    66    1
   102    93    94    1
   103   192   191    2
   104   126   128   ar
   105   126   124   ar
   106   128   127   ar
   107    98    97    1
   108    31    28    1
   109   191   190    1
   110    29    28    1
   111    29    30    2
   112   138   137    2
   113    28    27    1
   114    51    52    2
   115   188   185    1
   116    97    94    1
   117    97    99    1
   118   181   182    1
   119   181   180    1
   120    96    95    2
   121    66    65    1
   122    94    95    1
   123   143   142    1
   124   124   123   ar
   125   127   125   ar
   126   187   186    2
   127   176   177    1
   128   137   142   am
   129   137   136    1
   130   177   180    1
   131   177   178    1
   132   132   131    2
   133    65    62    1
   134   195   194   ar
   135   186   185    1
   136   186   189   am
   137   190   189    1
   138   190   193    1
   139   196   194   ar
   140   185   184    1
   141    77    75    1
   142   194   193    1
   143   136   139    1
   144   136   135    1
   145   123   125   ar
   146   123   122    1
   147   178   179    2
   148    75    74    1
   149   131   135   am
   150   131   130    1
   151   106   105    1
   152   106   108    1
   153    61    62    1
   154    62    63    1
   155   139   140    1
   156   135   141    1
   157   133   130    1
   158   133   134    1
   159   122   119    1
   160   105   102    1
   161   105   107    1
   162   129   130    1
   163   129   120   am
   164    70    63   am
   165    70    71    1
   166   101   102    1
   167    63    64    2
   168   119   120    1
   169   119   118    1
   170    74    71    1
   171    74    76    1
   172    91    90    1
   173   104   103    2
   174   102   103    1
   175   140   141    1
   176   120   121    2
   177    71    72    1
   178    92    90    1
   179   103   109   am
   180    85    83    1
   181   118   111   am
   182    90    87    1
   183   112   111    2
   184   111   110    1
   185    72    73    2
   186   109   110    1
   187    84    83    1
   188    83    82    1
   189    82    79    1
   190   110   113    1
   191    87    86    1
   192    87    88    1
   193    78    79    1
   194    88    89    2
   195    79    80    1
   196   113   114    1
   197   114   115    1
   198    80    81    2
   199   115   116   ar
   200   115   117   ar
