@<TRIPOS>MOLECULE
tmp/4aouA00.pdb
 123 113 0 0 0
SMALL
GASTEIGER

@<TRIPOS>ATOM
      1  N        -50.0070   20.6730  -15.0010 N.3    74  THR74      -0.1218
      2  CA       -49.0140   21.4760  -15.6730 C.3    74  THR74       0.1862
      3  C        -48.6800   20.8460  -17.0160 C.2    74  THR74       0.2287
      4  O        -48.9670   19.6790  -17.2240 O.2    74  THR74      -0.2866
      5  CB       -47.7230   21.4850  -14.8760 C.3    74  THR74       0.1770
      6  OG1      -47.3810   20.1250  -14.5660 O.3    74  THR74      -0.2211
      7  CG2      -47.8690   22.3320  -13.5950 C.3    74  THR74       0.0375
      8  N        -46.2430   19.0730  -19.5720 N.3    76  THR76      -0.1218
      9  CA       -44.9360   18.4370  -19.7320 C.3    76  THR76       0.1862
     10  C        -44.4410   18.5590  -21.1760 C.2    76  THR76       0.2287
     11  O        -45.1150   18.1520  -22.1170 O.2    76  THR76      -0.2866
     12  CB       -44.9810   16.9900  -19.3090 C.3    76  THR76       0.1770
     13  OG1      -45.3120   16.9330  -17.9240 O.3    76  THR76      -0.2211
     14  CG2      -43.6370   16.3380  -19.5260 C.3    76  THR76       0.0375
     15  N        -41.0110   16.1380  -16.8140 N.3    93  SER93      -0.1217
     16  CA       -42.2400   16.2610  -16.0810 C.3    93  SER93       0.1889
     17  C        -42.0230   16.8720  -14.7090 C.2    93  SER93       0.2288
     18  O        -41.3130   16.3340  -13.8780 O.2    93  SER93      -0.2866
     19  CB       -42.8720   14.8970  -15.8690 C.3    93  SER93       0.2089
     20  OG       -44.0220   15.0320  -15.0360 O.3    93  SER93      -0.2183
     21  N        -44.2340   16.6200  -12.5550 N.3    95  ASN95      -0.1240
     22  CA       -44.8110   15.6420  -11.6420 C.3    95  ASN95       0.1653
     23  C        -43.8540   14.4910  -11.3880 C.2    95  ASN95       0.2266
     24  O        -43.8040   13.9470  -10.2840 O.2    95  ASN95      -0.2867
     25  CB       -46.1140   15.0830  -12.1940 C.3    95  ASN95       0.1155
     26  CG       -47.1170   16.1680  -12.5120 C.2    95  ASN95       0.2627
     27  OD1      -47.5730   16.9110  -11.6360 O.2    95  ASN95      -0.2716
     28  ND2      -47.4570   16.2690  -13.7750 N.am   95  ASN95      -0.0877
     29  N        -42.5620   13.6950   -7.6740 N.3    99  ARG99      -0.1245
     30  CA       -42.7340   12.3220   -7.2940 C.3    99  ARG99       0.1563
     31  C        -41.3680   11.6600   -6.9900 C.2    99  ARG99       0.2260
     32  O        -41.2720   10.8720   -6.0430 O.2    99  ARG99      -0.2867
     33  CB       -43.5090   11.5440   -8.4040 C.3    99  ARG99       0.0307
     34  CG       -44.9920   11.6950   -8.2990 C.3    99  ARG99       0.0489
     35  CD       -45.6370   11.4590   -9.6220 C.3    99  ARG99       0.2205
     36  NE       -46.9770   12.0190   -9.7070 N.pl3  99  ARG99      -0.0865
     37  CZ       -47.7020   12.0290  -10.8210 C.cat  99  ARG99       0.5346
     38  NH1      -47.2030   11.4890  -11.9070 N.pl3  99  ARG99       0.1354
     39  NH2      -48.9290   12.5610  -10.8400 N.pl3  99  ARG99       0.1354
     40  N        -55.6820    7.2240   -6.5140 N.3   108  ARG108     -0.1245
     41  CA       -56.6900    7.8350   -7.3300 C.3   108  ARG108      0.1563
     42  C        -57.9510    7.0270   -7.2870 C.2   108  ARG108      0.2260
     43  O        -57.9260    5.8250   -7.4630 O.2   108  ARG108     -0.2867
     44  CB       -56.2070    7.9300   -8.7690 C.3   108  ARG108      0.0307
     45  CG       -54.8660    8.6010   -8.8430 C.3   108  ARG108      0.0489
     46  CD       -54.4460    8.9070  -10.2640 C.3   108  ARG108      0.2205
     47  NE       -53.4410    9.9270  -10.1850 N.pl3 108  ARG108     -0.0865
     48  CZ       -52.7180   10.3900  -11.1880 C.cat 108  ARG108      0.5346
     49  NH1      -52.8740    9.8980  -12.4230 N.pl3 108  ARG108      0.1354
     50  NH2      -51.7820   11.3180  -10.9120 N.pl3 108  ARG108      0.1354
     51  N        -51.0030    3.9050   -7.4820 N.3   131  ARG131     -0.1245
     52  CA       -49.9750    3.9630   -8.4990 C.3   131  ARG131      0.1563
     53  C        -48.6290    4.2190   -7.8600 C.2   131  ARG131      0.2260
     54  O        -48.4570    5.1510   -7.0810 O.2   131  ARG131     -0.2867
     55  CB       -50.3430    5.1100   -9.4810 C.3   131  ARG131      0.0307
     56  CG       -49.1790    5.6700  -10.3190 C.3   131  ARG131      0.0489
     57  CD       -49.6150    6.8340  -11.2610 C.3   131  ARG131      0.2205
     58  NE       -48.5320    7.1500  -12.2160 N.pl3 131  ARG131     -0.0865
     59  CZ       -48.4700    8.2310  -12.9980 C.cat 131  ARG131      0.5346
     60  NH1      -49.4410    9.1530  -12.9920 N.pl3 131  ARG131      0.1354
     61  NH2      -47.4180    8.3850  -13.7950 N.pl3 131  ARG131      0.1354
     62  N        -40.4660    6.9210  -15.7490 N.3   138  TYR138     -0.1241
     63  CA       -40.4400    8.2920  -15.2610 C.3   138  TYR138      0.1605
     64  C        -39.0790    8.7470  -14.8210 C.2   138  TYR138      0.2264
     65  O        -38.8880    9.9210  -14.4850 O.2   138  TYR138     -0.2867
     66  CB       -41.4520    8.4530  -14.1510 C.3   138  TYR138      0.0534
     67  CG       -42.8320    8.5880  -14.7600 C.ar  138  TYR138     -0.0201
     68  CD1      -43.5660    7.4710  -15.1240 C.ar  138  TYR138     -0.0009
     69  CD2      -43.3730    9.8500  -15.0360 C.ar  138  TYR138     -0.0009
     70  CE1      -44.8010    7.6180  -15.6950 C.ar  138  TYR138      0.0417
     71  CE2      -44.5980    9.9850  -15.6050 C.ar  138  TYR138      0.0417
     72  CZ       -45.3120    8.8750  -15.9430 C.ar  138  TYR138      0.1957
     73  OH       -46.5720    9.0290  -16.5220 O.3   138  TYR138     -0.2866
     74  N        -50.5380    5.3170  -14.4730 N.3   272  ASP272     -0.1239
     75  CA       -50.8850    6.4680  -15.3020 C.3   272  ASP272      0.1674
     76  C        -52.0050    6.1140  -16.2630 C.2   272  ASP272      0.2266
     77  O        -53.0890    6.7270  -16.2650 O.2   272  ASP272     -0.2867
     78  CB       -49.6890    6.9770  -16.0980 C.3   272  ASP272      0.1410
     79  CG       -50.0680    8.1810  -16.9640 C.2   272  ASP272      0.3668
     80  OD1      -50.7400    9.1390  -16.4700 O.co2 272  ASP272     -0.2456
     81  OD2      -49.7540    8.1730  -18.1550 O.co2 272  ASP272     -0.2456
     82  N        -55.3140    4.9100  -14.3900 N.3   275  SER275     -0.1202
     83  CA       -56.1210    5.9910  -13.7530 C.3   275  SER275      0.2020
     84  C        -56.9700    6.7580  -14.8120 C.2   275  SER275      0.2618
     85  O        -58.1020    7.1690  -14.5320 O.2   275  SER275     -0.2717
     86  CB       -55.2680    6.9360  -12.8860 C.3   275  SER275      0.2103
     87  OG       -54.0700    7.3230  -13.5430 O.3   275  SER275     -0.2182
     88  N        -56.4490    6.9120  -16.0300 N.am  276  ASP276     -0.1973
     89  CA       -57.2670    7.4940  -17.1260 C.3   276  ASP276      0.1709
     90  C        -58.3560    6.5820  -17.6070 C.2   276  ASP276      0.2293
     91  O        -59.5010    6.9900  -17.7870 O.2   276  ASP276     -0.2864
     92  CB       -56.4090    7.9880  -18.2860 C.3   276  ASP276      0.1436
     93  CG       -56.0240    9.4830  -18.1310 C.2   276  ASP276      0.3671
     94  OD1      -56.2420   10.0370  -17.0130 O.co2 276  ASP276     -0.2456
     95  OD2      -55.5370   10.0990  -19.1290 O.co2 276  ASP276     -0.2456
     96  N        -53.5530   16.6560   -6.1190 N.3   302  GLU302     -0.1245
     97  CA       -53.5840   17.1420   -7.5290 C.3   302  GLU302      0.1567
     98  C        -54.8530   16.7510   -8.2100 C.2   302  GLU302      0.2260
     99  O        -55.6460   15.9770   -7.6560 O.2   302  GLU302     -0.2867
    100  CB       -52.4150   16.5760   -8.3560 C.3   302  GLU302      0.0388
    101  CG       -52.5700   15.1460   -8.7470 C.3   302  GLU302      0.1160
    102  CD       -51.2590   14.4800   -9.1300 C.2   302  GLU302      0.3649
    103  OE1      -50.3320   15.1760   -9.6050 O.co2 302  GLU302     -0.2457
    104  OE2      -51.1480   13.2380   -8.9740 O.co2 302  GLU302     -0.2457
    105  N        -56.0640   14.3820  -11.3630 N.3   304  ALA304     -0.1231
    106  CA       -55.4280   13.2760  -12.1370 C.3   304  ALA304      0.1694
    107  C        -55.3420   13.5540  -13.6770 C.2   304  ALA304      0.2592
    108  O        -54.5160   12.9560  -14.3680 O.2   304  ALA304     -0.2718
    109  CB       -56.1240   11.9100  -11.8440 C.3   304  ALA304      0.0304
    110  N        -56.1860   14.4600  -14.1950 N.am  305  HIS305     -0.1962
    111  CA       -56.2090   14.7780  -15.6160 C.3   305  HIS305      0.1787
    112  C        -55.1130   15.7890  -15.8740 C.2   305  HIS305      0.2620
    113  O        -54.4440   16.2070  -14.9310 O.2   305  HIS305     -0.2715
    114  CB       -57.5690   15.3580  -15.9890 C.3   305  HIS305      0.0785
    115  CG       -57.8760   16.6490  -15.3020 C.ar  305  HIS305      0.0821
    116  ND1      -58.8960   16.7830  -14.3820 N.ar  305  HIS305     -0.2267
    117  CD2      -57.3090   17.8710  -15.4160 C.ar  305  HIS305      0.1154
    118  CE1      -58.9280   18.0260  -13.9430 C.ar  305  HIS305      0.1986
    119  NE2      -57.9660   18.7010  -14.5440 N.ar  305  HIS305     -0.2212
    120  N        -54.8930   16.1710  -17.1200 N.am  306  GLY306     -0.1954
    121  CA       -53.8640   17.1740  -17.3980 C.3   306  GLY306      0.1869
    122  C        -54.4260   18.5940  -17.5200 C.2   306  GLY306      0.2309
    123  O        -55.3430   18.9710  -16.7770 O.2   306  GLY306     -0.2863
@<TRIPOS>BOND
     1    11    10    2
     2    10     9    1
     3     9     8    1
     4     9    12    1
     5    14    12    1
     6    12    13    1
     7    95    93   ar
     8    92    93    1
     9    92    89    1
    10    81    79   ar
    11    93    94   ar
    12    91    90    2
    13    90    89    1
    14   122   121    1
    15   122   123    2
    16   121   120    1
    17     4     3    2
    18    89    88    1
    19   120   112   am
    20     3     2    1
    21    79    80   ar
    22    79    78    1
    23    15    16    1
    24    73    72    1
    25    77    76    2
    26    76    75    1
    27    78    75    1
    28    16    19    1
    29    16    17    1
    30    88    84   am
    31   114   111    1
    32   114   115    1
    33    72    70   ar
    34    72    71   ar
    35   112   111    1
    36   112   113    2
    37    19    20    1
    38    62    63    1
    39    70    68   ar
    40     2     1    1
    41     2     5    1
    42   111   110    1
    43    71    69   ar
    44   117   115   ar
    45   117   119   ar
    46    75    74    1
    47   115   116   ar
    48    63    64    1
    49    63    66    1
    50    68    67   ar
    51    69    67   ar
    52     5     6    1
    53     5     7    1
    54    64    65    2
    55    84    85    2
    56    84    83    1
    57    67    66    1
    58    17    18    2
    59   119   118   ar
    60    82    83    1
    61   116   118   ar
    62   108   107    2
    63   110   107   am
    64    61    59    1
    65    28    26   am
    66    83    86    1
    67   107   106    1
    68    87    86    1
    69    59    60    1
    70    59    58    2
    71    21    22    1
    72    26    25    1
    73    26    27    2
    74    49    48    1
    75    58    57    1
    76    25    22    1
    77   106   109    1
    78   106   105    1
    79    38    37    1
    80    22    23    1
    81    23    24    2
    82    57    56    1
    83    48    50    1
    84    48    47    2
    85    39    37    1
    86    37    36    2
    87    56    55    1
    88    46    47    1
    89    46    45    1
    90    36    35    1
    91    35    34    1
    92   103   102   ar
    93    55    52    1
    94   102   104   ar
    95   102   101    1
    96    45    44    1
    97    44    41    1
    98   101   100    1
    99    52    53    1
   100    52    51    1
   101    33    34    1
   102    33    30    1
   103   100    97    1
   104    98    99    2
   105    98    97    1
   106    53    54    2
   107    29    30    1
   108    97    96    1
   109    43    42    2
   110    41    42    1
   111    41    40    1
   112    30    31    1
   113    31    32    2
