@<TRIPOS>MOLECULE
tmp/4aovA01.pdb
 122 113 0 0 0
SMALL
GASTEIGER

@<TRIPOS>ATOM
      1  N          9.4510   -2.9000   17.6410 N.3    74  THR74      -0.1218
      2  CA         8.5180   -4.0250   17.7490 C.3    74  THR74       0.1862
      3  C          8.1390   -4.2340   19.2100 C.2    74  THR74       0.2287
      4  O          8.9320   -3.9370   20.0970 O.2    74  THR74      -0.2866
      5  CB         9.1560   -5.3400   17.2000 C.3    74  THR74       0.1770
      6  OG1       10.5300   -5.4360   17.6280 O.3    74  THR74      -0.2211
      7  CG2        9.1270   -5.3460   15.6690 C.3    74  THR74       0.0375
      8  N          7.8970   -6.6790   22.2280 N.3    76  THR76      -0.1218
      9  CA         8.2710   -7.9680   22.8210 C.3    76  THR76       0.1862
     10  C          7.2170   -8.3230   23.8650 C.2    76  THR76       0.2287
     11  O          7.1240   -7.6520   24.8960 O.2    76  THR76      -0.2866
     12  CB         9.6610   -7.9670   23.5020 C.3    76  THR76       0.1770
     13  OG1       10.6700   -7.5650   22.5730 O.3    76  THR76      -0.2211
     14  CG2        9.9870   -9.3550   24.0330 C.3    76  THR76       0.0375
     15  N         11.9010  -11.5880   21.8650 N.3    93  SER93      -0.1217
     16  CA        12.2030  -10.3290   21.1930 C.3    93  SER93       0.1889
     17  C         12.7260  -10.5480   19.7740 C.2    93  SER93       0.2288
     18  O         13.6880  -11.2990   19.5810 O.2    93  SER93      -0.2866
     19  CB        13.2550   -9.5390   21.9900 C.3    93  SER93       0.2089
     20  OG        13.8400   -8.5170   21.1790 O.3    93  SER93      -0.2183
     21  N         14.3100   -8.2420   18.1980 N.3    95  ASN95      -0.1240
     22  CA        15.6540   -7.6450   18.2960 C.3    95  ASN95       0.1653
     23  C         16.6920   -8.6630   18.7470 C.2    95  ASN95       0.2266
     24  O         17.7660   -8.7860   18.1180 O.2    95  ASN95      -0.2867
     25  CB        15.6200   -6.4570   19.2370 C.3    95  ASN95       0.1155
     26  CG        14.7290   -5.3640   18.7210 C.2    95  ASN95       0.2627
     27  OD1       14.8720   -4.9260   17.5640 O.2    95  ASN95      -0.2716
     28  ND2       13.8010   -4.9040   19.5530 N.am   95  ASN95      -0.0877
     29  N         19.5530   -9.7910   16.3540 N.3    99  ARG99      -0.1245
     30  CA        20.8970   -9.4710   16.8250 C.3    99  ARG99       0.1563
     31  C         21.7440  -10.7360   17.0040 C.2    99  ARG99       0.2260
     32  O         22.9290  -10.7250   16.7040 O.2    99  ARG99      -0.2867
     33  CB        20.8550   -8.6510   18.1190 C.3    99  ARG99       0.0307
     34  CG        20.4320   -7.2080   17.9360 C.3    99  ARG99       0.0489
     35  CD        20.1760   -6.5370   19.3000 C.3    99  ARG99       0.2205
     36  NE        19.5340   -5.2360   19.1460 N.pl3  99  ARG99      -0.0865
     37  CZ        18.7480   -4.6570   20.0550 C.cat  99  ARG99       0.5346
     38  NH1       18.4710   -5.2550   21.2150 N.pl3  99  ARG99       0.1354
     39  NH2       18.2050   -3.4840   19.7870 N.pl3  99  ARG99       0.1354
     40  N         25.1160    3.5500   19.6550 N.3   108  ARG108     -0.1245
     41  CA        24.0040    4.4520   19.9360 C.3   108  ARG108      0.1563
     42  C         24.5080    5.8540   20.3170 C.2   108  ARG108      0.2260
     43  O         25.2620    6.0130   21.2710 O.2   108  ARG108     -0.2867
     44  CB        23.0980    3.8430   21.0210 C.3   108  ARG108      0.0307
     45  CG        22.4760    2.5210   20.5610 C.3   108  ARG108      0.0489
     46  CD        21.2800    2.0840   21.3890 C.3   108  ARG108      0.2205
     47  NE        20.4030    1.1330   20.6890 N.pl3 108  ARG108     -0.0865
     48  CZ        19.4230    0.4570   21.2850 C.cat 108  ARG108      0.5346
     49  NH1       19.1920    0.5900   22.6080 N.pl3 108  ARG108      0.1354
     50  NH2       18.6900   -0.3840   20.5730 N.pl3 108  ARG108      0.1354
     51  N         27.0670   -0.9360   22.5560 N.3   131  ARG131     -0.1245
     52  CA        26.3510   -2.0360   23.2140 C.3   131  ARG131      0.1563
     53  C         26.5970   -3.3980   22.5460 C.2   131  ARG131      0.2260
     54  O         26.2510   -3.6070   21.3770 O.2   131  ARG131     -0.2867
     55  CB        24.8460   -1.7110   23.2340 C.3   131  ARG131      0.0307
     56  CG        23.9710   -2.8380   23.7020 C.3   131  ARG131      0.0489
     57  CD        22.4850   -2.5570   23.3830 C.3   131  ARG131      0.2205
     58  NE        21.6650   -3.6670   23.8480 N.pl3 131  ARG131     -0.0865
     59  CZ        20.3300   -3.7120   23.8120 C.cat 131  ARG131      0.5346
     60  NH1       19.6170   -2.7070   23.3250 N.pl3 131  ARG131      0.1354
     61  NH2       19.7120   -4.7700   24.2780 N.pl3 131  ARG131      0.1354
     62  N         19.7070  -11.8510   26.9240 N.3   138  TYR138     -0.1241
     63  CA        18.9210  -11.8450   25.6870 C.3   138  TYR138      0.1605
     64  C         18.8030  -13.1970   24.9800 C.2   138  TYR138      0.2264
     65  O         18.1880  -13.2840   23.9070 O.2   138  TYR138     -0.2867
     66  CB        19.4600  -10.7900   24.7260 C.3   138  TYR138      0.0534
     67  CG        18.9780   -9.4280   25.1050 C.ar  138  TYR138     -0.0201
     68  CD1       19.6960   -8.6420   26.0140 C.ar  138  TYR138     -0.0009
     69  CD2       17.7780   -8.9380   24.5960 C.ar  138  TYR138     -0.0009
     70  CE1       19.2440   -7.3850   26.3760 C.ar  138  TYR138      0.0417
     71  CE2       17.3130   -7.6870   24.9620 C.ar  138  TYR138      0.0417
     72  CZ        18.0410   -6.9220   25.8500 C.ar  138  TYR138      0.1957
     73  OH        17.5590   -5.6830   26.2000 O.3   138  TYR138     -0.2866
     74  N         21.5180   -1.5600   26.8350 N.3   272  ASP272     -0.1239
     75  CA        20.0950   -1.2490   26.7720 C.3   272  ASP272      0.1674
     76  C         19.7620   -0.1560   27.7650 C.2   272  ASP272      0.2266
     77  O         19.2150    0.8630   27.3860 O.2   272  ASP272     -0.2867
     78  CB        19.2270   -2.4850   27.0780 C.3   272  ASP272      0.1410
     79  CG        17.7480   -2.1700   27.0260 C.2   272  ASP272      0.3668
     80  OD1       17.2960   -1.6430   25.9780 O.co2 272  ASP272     -0.2456
     81  OD2       17.0180   -2.4770   28.0060 O.co2 272  ASP272     -0.2456
     82  N         19.3600    4.3290   26.9000 N.3   276  ASP276     -0.1239
     83  CA        18.1750    5.1130   27.2680 C.3   276  ASP276      0.1674
     84  C         18.5590    6.2700   28.2150 C.2   276  ASP276      0.2266
     85  O         18.1210    7.3970   28.0200 O.2   276  ASP276     -0.2867
     86  CB        17.0440    4.2740   27.8730 C.3   276  ASP276      0.1410
     87  CG        16.0000    3.8150   26.8510 C.2   276  ASP276      0.3668
     88  OD1       16.2690    3.7850   25.6100 O.co2 276  ASP276     -0.2456
     89  OD2       14.8850    3.4540   27.3050 O.co2 276  ASP276     -0.2456
     90  N         18.1360    1.1880   13.1790 N.3   302  GLU302     -0.1231
     91  CA        16.9010    1.1280   13.9800 C.3   302  GLU302      0.1699
     92  C         16.8250    2.3760   14.8630 C.2   302  GLU302      0.2592
     93  O         17.7950    3.1430   14.9790 O.2   302  GLU302     -0.2718
     94  CB        16.9370   -0.1020   14.9000 C.3   302  GLU302      0.0402
     95  CG        18.1360   -0.0330   15.8300 C.3   302  GLU302      0.1161
     96  CD        18.2310   -1.1310   16.8970 C.2   302  GLU302      0.3649
     97  OE1       17.3410   -2.0090   17.0110 O.co2 302  GLU302     -0.2457
     98  OE2       19.2470   -1.1030   17.6110 O.co2 302  GLU302     -0.2457
     99  N         15.6820    2.5710   15.5000 N.am  303  ALA303     -0.1966
    100  CA        15.5680    3.5520   16.5770 C.3   303  ALA303      0.1728
    101  C         16.0600    2.8720   17.8490 C.2   303  ALA303      0.2616
    102  O         16.0440    1.6470   17.9300 O.2   303  ALA303     -0.2715
    103  CB        14.1140    3.9690   16.7230 C.3   303  ALA303      0.0334
    104  N         16.5200    3.6400   18.8370 N.am  304  ALA304     -0.1963
    105  CA        16.9040    3.0440   20.1290 C.3   304  ALA304      0.1728
    106  C         15.7090    2.8760   21.0490 C.2   304  ALA304      0.2616
    107  O         15.6790    1.9960   21.9220 O.2   304  ALA304     -0.2715
    108  CB        18.0210    3.8790   20.8190 C.3   304  ALA304      0.0334
    109  N         14.7090    3.7170   20.8500 N.am  305  HIS305     -0.1959
    110  CA        13.4820    3.6310   21.6150 C.3   305  HIS305      0.1787
    111  C         12.6060    2.4740   21.1080 C.2   305  HIS305      0.2620
    112  O         12.8890    1.8420   20.0710 O.2   305  HIS305     -0.2715
    113  CB        12.7150    4.9700   21.5370 C.3   305  HIS305      0.0785
    114  CG        12.2140    5.3090   20.1630 C.ar  305  HIS305      0.0821
    115  ND1       12.7540    6.3220   19.3950 N.ar  305  HIS305     -0.2267
    116  CD2       11.2080    4.7850   19.4270 C.ar  305  HIS305      0.1154
    117  CE1       12.1070    6.4020   18.2480 C.ar  305  HIS305      0.1986
    118  NE2       11.1540    5.4930   18.2470 N.ar  305  HIS305     -0.2212
    119  N         11.5150    2.2390   21.8230 N.am  306  GLY306     -0.1954
    120  CA        10.5240    1.2280   21.4520 C.3   306  GLY306      0.1869
    121  C          9.3680    1.7520   20.6350 C.2   306  GLY306      0.2309
    122  O          9.5050    2.7490   19.9330 O.2   306  GLY306     -0.2863
@<TRIPOS>BOND
     1    90    91    1
     2    91    92    1
     3    91    94    1
     4    92    93    2
     5    92    99   am
     6    94    95    1
     7    99   100    1
     8     7     5    1
     9    95    96    1
    10    29    30    1
    11   100   103    1
    12   100   101    1
    13    32    31    2
    14    30    31    1
    15    30    33    1
    16    96    97   ar
    17    96    98   ar
    18     5     6    1
    19     5     2    1
    20    27    26    2
    21     1     2    1
    22     2     3    1
    23   101   102    2
    24   101   104   am
    25    34    33    1
    26    34    35    1
    27    24    23    2
    28    21    22    1
    29   118   117   ar
    30   118   116   ar
    31   117   115   ar
    32    22    23    1
    33    22    25    1
    34    26    25    1
    35    26    28   am
    36   104   105    1
    37    36    35    1
    38    36    37    2
    39     3     4    2
    40   115   114   ar
    41   116   114   ar
    42    18    17    2
    43    40    41    1
    44    17    16    1
    45    39    37    1
    46   122   121    2
    47    41    42    1
    48    41    44    1
    49    37    38    1
    50   112   111    2
    51   105   108    1
    52   105   106    1
    53   114   113    1
    54    42    43    2
    55    45    44    1
    56    45    46    1
    57    50    48    1
    58   121   120    1
    59    47    48    2
    60    47    46    1
    61   109   106   am
    62   109   110    1
    63   106   107    2
    64   111   110    1
    65   111   119   am
    66    20    19    1
    67    16    15    1
    68    16    19    1
    69    48    49    1
    70    54    53    2
    71   120   119    1
    72   113   110    1
    73     8     9    1
    74    53    52    1
    75    51    52    1
    76    13    12    1
    77     9    12    1
    78     9    10    1
    79    52    55    1
    80    55    56    1
    81    60    59    1
    82    57    56    1
    83    57    58    1
    84    12    14    1
    85    59    58    2
    86    59    61    1
    87    10    11    2
    88    65    64    2
    89    69    71   ar
    90    69    67   ar
    91    66    67    1
    92    66    63    1
    93    71    72   ar
    94    64    63    1
    95    67    68   ar
    96    88    87   ar
    97    63    62    1
    98    72    73    1
    99    72    70   ar
   100    80    79   ar
   101    68    70   ar
   102    75    74    1
   103    75    78    1
   104    75    76    1
   105    87    89   ar
   106    87    86    1
   107    82    83    1
   108    79    78    1
   109    79    81   ar
   110    83    86    1
   111    83    84    1
   112    77    76    2
   113    85    84    2
