@<TRIPOS>MOLECULE
tmp/4ap3A01.pdb
 109 101 0 0 0
SMALL
GASTEIGER

@<TRIPOS>ATOM
      1  N         11.8350    6.5060  -27.3330 N.3    50  ARG50      -0.1245
      2  CA        11.0030    6.1960  -28.4820 C.3    50  ARG50       0.1563
      3  C          9.6340    5.7070  -28.0130 C.2    50  ARG50       0.2260
      4  O          9.5390    5.0280  -26.9860 O.2    50  ARG50      -0.2867
      5  CB        11.6830    5.0830  -29.2840 C.3    50  ARG50       0.0307
      6  CG        11.0720    4.7820  -30.6370 C.3    50  ARG50       0.0489
      7  CD        11.6790    3.5160  -31.2330 C.3    50  ARG50       0.2205
      8  NE        13.1020    3.6520  -31.5660 N.pl3  50  ARG50      -0.0865
      9  CZ        13.5650    4.2050  -32.6830 C.cat  50  ARG50       0.5346
     10  NH1       12.7160    4.6910  -33.5920 N.pl3  50  ARG50       0.1354
     11  NH2       14.8760    4.2730  -32.8950 N.pl3  50  ARG50       0.1354
     12  N          6.0020    3.5070  -28.2650 N.3    52  ASP52      -0.1239
     13  CA         5.6260    2.0840  -28.2730 C.3    52  ASP52       0.1674
     14  C          4.5810    1.7690  -29.3280 C.2    52  ASP52       0.2266
     15  O          4.4510    0.6280  -29.7760 O.2    52  ASP52      -0.2867
     16  CB         4.9190    1.7800  -26.9440 C.3    52  ASP52       0.1410
     17  CG         5.7970    1.0920  -25.9560 C.2    52  ASP52       0.3668
     18  OD1        6.6770    0.3050  -26.3700 O.co2  52  ASP52      -0.2456
     19  OD2        5.5830    1.3270  -24.7510 O.co2  52  ASP52      -0.2456
     20  N          2.8540    8.8540  -15.9770 N.3   139  LEU139     -0.1245
     21  CA         4.1800    8.3580  -15.6390 C.3   139  LEU139      0.1561
     22  C          5.0040    9.4240  -14.9450 C.2   139  LEU139      0.2260
     23  O          5.2040   10.5070  -15.4790 O.2   139  LEU139     -0.2867
     24  CB         4.9000    7.8810  -16.9080 C.3   139  LEU139      0.0270
     25  CG         4.8810    6.4130  -17.3590 C.3   139  LEU139      0.0019
     26  CD1        3.5520    5.7050  -17.1640 C.3   139  LEU139      0.0001
     27  CD2        5.2770    6.3580  -18.8230 C.3   139  LEU139      0.0001
     28  N         12.6930    0.2830  -19.4240 N.3   182  SER182     -0.1217
     29  CA        12.7240    0.7600  -20.8100 C.3   182  SER182      0.1889
     30  C         13.7780    1.8220  -21.0730 C.2   182  SER182      0.2288
     31  O         14.3670    1.8460  -22.1450 O.2   182  SER182     -0.2866
     32  CB        11.3520    1.2330  -21.2880 C.3   182  SER182      0.2089
     33  OG        10.7920    2.1190  -20.3540 O.3   182  SER182     -0.2183
     34  N         16.4220    1.0360  -23.9540 N.3   186  GLN186     -0.1245
     35  CA        16.5090    1.9320  -25.1170 C.3   186  GLN186      0.1566
     36  C         17.8570    2.6540  -25.2280 C.2   186  GLN186      0.2260
     37  O         18.3050    2.9910  -26.3250 O.2   186  GLN186     -0.2867
     38  CB        15.3470    2.9320  -25.1280 C.3   186  GLN186      0.0367
     39  CG        13.9960    2.2380  -25.1910 C.3   186  GLN186      0.0905
     40  CD        12.8110    3.1700  -25.3750 C.2   186  GLN186      0.2608
     41  OE1       11.8100    2.7770  -25.9610 O.2   186  GLN186     -0.2717
     42  NE2       12.9070    4.3960  -24.8620 N.am  186  GLN186     -0.0878
     43  N          3.9060   -6.7900  -16.9690 N.3   318  LYS318     -0.1231
     44  CA         4.5200   -5.4920  -17.1650 C.3   318  LYS318      0.1693
     45  C          4.5130   -5.2510  -18.6760 C.2   318  LYS318      0.2591
     46  O          4.6370   -6.1990  -19.4630 O.2   318  LYS318     -0.2718
     47  CB         5.9470   -5.4780  -16.6080 C.3   318  LYS318      0.0285
     48  CG         6.6790   -4.1810  -16.7600 C.3   318  LYS318      0.0035
     49  CD         8.1770   -4.4330  -16.6800 C.3   318  LYS318      0.0206
     50  CE         8.9520   -3.1100  -16.7780 C.3   318  LYS318      0.1093
     51  NZ         8.7330   -2.3900  -18.0320 N.3   318  LYS318     -0.1314
     52  N          4.3460   -3.9930  -19.0750 N.am  319  ARG319     -0.1980
     53  CA         4.3380   -3.6200  -20.4870 C.3   319  ARG319      0.1597
     54  C          5.6250   -4.0700  -21.1810 C.2   319  ARG319      0.2287
     55  O          6.7270   -3.8820  -20.6580 O.2   319  ARG319     -0.2864
     56  CB         4.1590   -2.1080  -20.6350 C.3   319  ARG319      0.0334
     57  CG         3.8780   -1.6390  -22.0560 C.3   319  ARG319      0.0492
     58  CD         3.7960   -0.1250  -22.0910 C.3   319  ARG319      0.2205
     59  NE         3.4070    0.4050  -23.3960 N.pl3 319  ARG319     -0.0865
     60  CZ         2.1700    0.7730  -23.7320 C.cat 319  ARG319      0.5346
     61  NH1        1.1690    0.6580  -22.8640 N.pl3 319  ARG319      0.1354
     62  NH2        1.9360    1.2610  -24.9430 N.pl3 319  ARG319      0.1354
     63  N          8.6850   -3.9080  -23.4570 N.3   321  VAL321     -0.1245
     64  CA         9.5520   -2.8480  -23.9680 C.3   321  VAL321      0.1561
     65  C          9.7870   -3.0450  -25.4660 C.2   321  VAL321      0.2260
     66  O          9.7640   -4.1710  -25.9740 O.2   321  VAL321     -0.2867
     67  CB        10.8880   -2.7930  -23.1920 C.3   321  VAL321      0.0252
     68  CG1       11.8070   -1.7020  -23.7310 C.3   321  VAL321      0.0019
     69  CG2       10.6230   -2.5700  -21.7070 C.3   321  VAL321      0.0019
     70  N          9.6330    4.3480  -13.9240 N.3   371  PHE371     -0.1241
     71  CA         8.5040    5.2520  -13.7840 C.3   371  PHE371      0.1605
     72  C          7.4760    4.6760  -12.8370 C.2   371  PHE371      0.2264
     73  O          7.1230    3.4990  -12.9400 O.2   371  PHE371     -0.2867
     74  CB         7.8520    5.5030  -15.1470 C.3   371  PHE371      0.0534
     75  CG         8.8150    5.9640  -16.1950 C.ar  371  PHE371     -0.0203
     76  CD1        9.5100    5.0420  -16.9640 C.ar  371  PHE371     -0.0042
     77  CD2        9.0520    7.3160  -16.3950 C.ar  371  PHE371     -0.0042
     78  CE1       10.4190    5.4560  -17.9230 C.ar  371  PHE371     -0.0003
     79  CE2        9.9580    7.7400  -17.3590 C.ar  371  PHE371     -0.0003
     80  CZ        10.6450    6.8070  -18.1200 C.ar  371  PHE371     -0.0000
     81  N         -2.9560    4.1280  -19.3490 N.3   424  VAL424     -0.1245
     82  CA        -1.8070    3.6260  -20.1280 C.3   424  VAL424      0.1561
     83  C         -2.0890    2.3400  -20.9180 C.2   424  VAL424      0.2260
     84  O         -1.2940    1.9600  -21.7800 O.2   424  VAL424     -0.2867
     85  CB        -0.5500    3.4080  -19.2480 C.3   424  VAL424      0.0252
     86  CG1       -0.1240    4.7120  -18.6150 C.3   424  VAL424      0.0019
     87  CG2       -0.7930    2.3560  -18.1660 C.3   424  VAL424      0.0019
     88  N         -2.5530    6.8210  -25.7540 N.3   428  MET428     -0.1245
     89  CA        -2.7930    7.9710  -24.8730 C.3   428  MET428      0.1570
     90  C         -3.0850    9.2700  -25.5980 C.2   428  MET428      0.2261
     91  O         -3.5900   10.2060  -24.9820 O.2   428  MET428     -0.2867
     92  CB        -1.6320    8.1840  -23.8930 C.3   428  MET428      0.0387
     93  CG        -1.3560    6.9970  -22.9780 C.3   428  MET428      0.0595
     94  SD        -1.6890    7.3030  -21.2370 S.3   428  MET428     -0.1393
     95  CE        -3.4460    7.5650  -21.3080 C.3   428  MET428      0.0692
     96  N          2.7390   -3.5350  -11.9770 N.3   483  TRP483     -0.1241
     97  CA         2.8840   -2.1390  -12.3500 C.3   483  TRP483      0.1605
     98  C          1.6260   -1.3330  -12.1130 C.2   483  TRP483      0.2264
     99  O          1.7010   -0.1590  -11.7490 O.2   483  TRP483     -0.2867
    100  CB         3.2500   -2.0940  -13.8260 C.3   483  TRP483      0.0550
    101  CG         4.2890   -1.0710  -14.1990 C.ar  483  TRP483      0.0003
    102  CD1        5.5900   -0.9550  -13.7060 C.ar  483  TRP483      0.0946
    103  CD2        4.1640   -0.0050  -15.2010 C.ar  483  TRP483      0.0152
    104  NE1        6.2480    0.0910  -14.3040 N.ar  483  TRP483     -0.2442
    105  CE2        5.4520    0.7030  -15.2100 C.ar  483  TRP483      0.0810
    106  CE3        3.1480    0.4260  -16.0520 C.ar  483  TRP483      0.0012
    107  CZ2        5.6880    1.7880  -16.0420 C.ar  483  TRP483      0.0191
    108  CZ3        3.4000    1.5220  -16.8860 C.ar  483  TRP483      0.0001
    109  CH2        4.6400    2.1840  -16.8780 C.ar  483  TRP483      0.0015
@<TRIPOS>BOND
     1    10     9    1
     2    11     9    1
     3     9     8    2
     4     8     7    1
     5     7     6    1
     6     6     5    1
     7    15    14    2
     8    14    13    1
     9     5     2    1
    10     2     3    1
    11     2     1    1
    12    13    12    1
    13    13    16    1
    14     3     4    2
    15    16    17    1
    16    18    17   ar
    17    37    36    2
    18    66    65    2
    19    41    40    2
    20    17    19   ar
    21    88    89    1
    22    90    91    2
    23    90    89    1
    24    65    64    1
    25    40    39    1
    26    40    42   am
    27    36    35    1
    28    39    38    1
    29    38    35    1
    30    35    34    1
    31    62    60    1
    32    89    92    1
    33    64    63    1
    34    64    67    1
    35    92    93    1
    36    60    59    2
    37    60    61    1
    38    68    67    1
    39    59    58    1
    40    67    69    1
    41    93    94    1
    42    31    30    2
    43    58    57    1
    44    57    56    1
    45    84    83    2
    46    95    94    1
    47    32    29    1
    48    32    33    1
    49    54    55    2
    50    54    53    1
    51    30    29    1
    52    83    82    1
    53    29    28    1
    54    56    53    1
    55    53    52    1
    56    82    81    1
    57    82    85    1
    58    46    45    2
    59    85    86    1
    60    85    87    1
    61    52    45   am
    62    27    25    1
    63    45    44    1
    64    80    78   ar
    65    80    79   ar
    66    51    50    1
    67    78    76   ar
    68    25    26    1
    69    25    24    1
    70    79    77   ar
    71    44    43    1
    72    44    47    1
    73    76    75   ar
    74    24    21    1
    75   108   109   ar
    76   108   106   ar
    77   109   107   ar
    78    50    49    1
    79    48    49    1
    80    48    47    1
    81    77    75   ar
    82    75    74    1
    83   106   103   ar
    84   107   105   ar
    85    20    21    1
    86    21    22    1
    87    23    22    2
    88   105   103   ar
    89   105   104   ar
    90   103   101   ar
    91    74    71    1
    92   104   102   ar
    93   101   100    1
    94   101   102   ar
    95    70    71    1
    96   100    97    1
    97    71    72    1
    98    73    72    2
    99    97    98    1
   100    97    96    1
   101    98    99    2
