@<TRIPOS>MOLECULE
tmp/4ap6A00.pdb
 175 168 0 0 0
SMALL
GASTEIGER

@<TRIPOS>ATOM
      1  N         17.2240   -2.6350   23.9070 N.3    13  PRO13      -0.2102
      2  CA        17.1260   -4.0530   23.5580 C.3    13  PRO13       0.1504
      3  C         17.3530   -4.3270   22.0490 C.2    13  PRO13       0.2576
      4  O         17.5830   -5.4660   21.6720 O.2    13  PRO13      -0.2718
      5  CB        15.6940   -4.4090   23.9670 C.3    13  PRO13       0.0282
      6  CG        15.3020   -3.3480   24.9680 C.3    13  PRO13       0.0208
      7  CD        15.9910   -2.1080   24.5120 C.3    13  PRO13       0.0893
      8  N         17.2870   -3.3010   21.2010 N.am   14  ALA14      -0.1966
      9  CA        17.2020   -3.5050   19.7580 C.3    14  ALA14       0.1728
     10  C         18.3890   -4.2630   19.2590 C.2    14  ALA14       0.2617
     11  O         19.5060   -3.9970   19.6770 O.2    14  ALA14      -0.2715
     12  CB        17.0840   -2.1810   19.0210 C.3    14  ALA14       0.0334
     13  N         18.1400   -5.1990   18.3480 N.am   15  GLY15      -0.1940
     14  CA        19.1890   -5.9990   17.7470 C.3    15  GLY15       0.2014
     15  C         19.9370   -5.2820   16.6480 C.2    15  GLY15       0.2639
     16  O         19.4700   -4.2870   16.1020 O.2    15  GLY15      -0.2714
     17  N         21.1150   -5.7940   16.3260 N.am   16  PHE16      -0.1959
     18  CA        21.9010   -5.2800   15.2130 C.3    16  PHE16       0.1771
     19  C         21.0690   -5.1110   13.9430 C.2    16  PHE16       0.2620
     20  O         21.1080   -4.0680   13.2940 O.2    16  PHE16      -0.2715
     21  CB        23.0420   -6.2410   14.9270 C.3    16  PHE16       0.0574
     22  CG        23.8770   -5.8490   13.7490 C.ar   16  PHE16      -0.0200
     23  CD1       24.5910   -4.6660   13.7450 C.ar   16  PHE16      -0.0042
     24  CD2       23.9780   -6.6720   12.6540 C.ar   16  PHE16      -0.0042
     25  CE1       25.3770   -4.3120   12.6700 C.ar   16  PHE16      -0.0003
     26  CE2       24.7620   -6.3120   11.5710 C.ar   16  PHE16      -0.0003
     27  CZ        25.4570   -5.1380   11.5810 C.ar   16  PHE16      -0.0000
     28  N         20.3130   -6.1520   13.6050 N.am   17  ASN17      -0.1958
     29  CA        19.5540   -6.1970   12.3680 C.3    17  ASN17       0.1819
     30  C         18.3440   -5.2640   12.3350 C.2    17  ASN17       0.2621
     31  O         17.8640   -4.8760   11.2700 O.2    17  ASN17      -0.2715
     32  CB        19.1600   -7.6360   12.1030 C.3    17  ASN17       0.1195
     33  CG        20.3100   -8.4350   11.5590 C.2    17  ASN17       0.2630
     34  OD1       20.9920   -7.9880   10.6390 O.2    17  ASN17      -0.2716
     35  ND2       20.5430   -9.6160   12.1230 N.am   17  ASN17      -0.0877
     36  N         17.8590   -4.9070   13.5110 N.am   18  LEU18      -0.1977
     37  CA        16.7840   -3.9490   13.6030 C.3    18  LEU18       0.1596
     38  C         17.3180   -2.5440   13.4960 C.2    18  LEU18       0.2287
     39  O         16.7400   -1.6840   12.8610 O.2    18  LEU18      -0.2864
     40  CB        16.0600   -4.1340   14.9210 C.3    18  LEU18       0.0297
     41  CG        14.6450   -3.6000   15.0410 C.3    18  LEU18       0.0022
     42  CD1       14.0450   -4.1450   16.3120 C.3    18  LEU18       0.0001
     43  CD2       14.7240   -2.1450   15.0960 C.3    18  LEU18       0.0001
     44  N         26.5060   -1.4690   22.3230 N.3    48  ARG48      -0.1245
     45  CA        25.2380   -1.3440   23.0200 C.3    48  ARG48       0.1563
     46  C         25.2920   -1.2800   24.5490 C.2    48  ARG48       0.2260
     47  O         26.1750   -1.8550   25.1820 O.2    48  ARG48      -0.2867
     48  CB        24.3120   -2.4620   22.5780 C.3    48  ARG48       0.0307
     49  CG        25.0370   -3.7080   22.2460 C.3    48  ARG48       0.0489
     50  CD        24.0530   -4.6400   21.6480 C.3    48  ARG48       0.2205
     51  NE        22.7880   -4.4990   22.3380 N.pl3  48  ARG48      -0.0865
     52  CZ        21.7640   -5.3200   22.1610 C.cat  48  ARG48       0.5346
     53  NH1       21.8900   -6.3350   21.3040 N.pl3  48  ARG48       0.1354
     54  NH2       20.6270   -5.1240   22.8360 N.pl3  48  ARG48       0.1354
     55  N         24.4450   -8.5860   26.1320 N.3    53  GLN53      -0.1245
     56  CA        23.6330   -9.0920   25.0410 C.3    53  GLN53       0.1566
     57  C         24.5790   -9.7600   24.0470 C.2    53  GLN53       0.2260
     58  O         24.4210  -10.9410   23.6890 O.2    53  GLN53      -0.2867
     59  CB        22.8440   -7.9650   24.3770 C.3    53  GLN53       0.0367
     60  CG        21.7670   -7.3480   25.2720 C.3    53  GLN53       0.0905
     61  CD        20.6850   -8.3390   25.6770 C.2    53  GLN53       0.2608
     62  OE1       20.7630   -8.9620   26.7370 O.2    53  GLN53      -0.2717
     63  NE2       19.6690   -8.4850   24.8330 N.am   53  GLN53      -0.0878
     64  N         19.1270  -20.3690    7.9840 N.3   252  HIS252     -0.1241
     65  CA        19.3720  -19.5650    9.1440 C.3   252  HIS252      0.1621
     66  C         18.4510  -19.9860   10.2500 C.2   252  HIS252      0.2264
     67  O         17.2370  -19.7850   10.1500 O.2   252  HIS252     -0.2867
     68  CB        19.1000  -18.1160    8.8350 C.3   252  HIS252      0.0745
     69  CG        19.0130  -17.2800   10.0650 C.ar  252  HIS252      0.0817
     70  ND1       17.8690  -16.6060   10.4250 N.ar  252  HIS252     -0.2268
     71  CD2       19.9120  -17.0560   11.0510 C.ar  252  HIS252      0.1154
     72  CE1       18.0770  -15.9820   11.5690 C.ar  252  HIS252      0.1986
     73  NE2       19.3110  -16.2350   11.9660 N.ar  252  HIS252     -0.2212
     74  N         17.3660  -19.4640   13.9980 N.3   254  ARG254     -0.1245
     75  CA        17.4890  -18.5150   15.0860 C.3   254  ARG254      0.1563
     76  C         16.9430  -19.1500   16.3700 C.2   254  ARG254      0.2260
     77  O         15.7650  -19.3350   16.5190 O.2   254  ARG254     -0.2867
     78  CB        16.7350  -17.2480   14.7020 C.3   254  ARG254      0.0307
     79  CG        16.3920  -16.3410   15.8580 C.3   254  ARG254      0.0489
     80  CD        17.3110  -15.1410   15.9790 C.3   254  ARG254      0.2205
     81  NE        16.8880  -14.3450   17.1190 N.pl3 254  ARG254     -0.0865
     82  CZ        16.9410  -14.8000   18.3690 C.cat 254  ARG254      0.5346
     83  NH1       17.4150  -16.0230   18.6130 N.pl3 254  ARG254      0.1354
     84  NH2       16.5280  -14.0420   19.3810 N.pl3 254  ARG254      0.1354
     85  N         15.9680  -17.4700   21.5090 N.3   257  ASP257     -0.1239
     86  CA        14.6580  -17.0590   22.0090 C.3   257  ASP257      0.1674
     87  C         13.8970  -18.2210   22.6590 C.2   257  ASP257      0.2266
     88  O         12.9380  -18.0180   23.4060 O.2   257  ASP257     -0.2867
     89  CB        13.8210  -16.4910   20.8420 C.3   257  ASP257      0.1410
     90  CG        13.7850  -17.4310   19.6070 C.2   257  ASP257      0.3668
     91  OD1       13.7350  -18.6740   19.7790 O.co2 257  ASP257     -0.2456
     92  OD2       13.8010  -16.9210   18.4590 O.co2 257  ASP257     -0.2456
     93  N         23.6210  -20.6850    9.2170 N.3   291  ALA291     -0.1231
     94  CA        23.8110  -19.5420   10.0940 C.3   291  ALA291      0.1694
     95  C         22.8960  -19.7610   11.2820 C.2   291  ALA291      0.2593
     96  O         21.6730  -19.8580   11.1250 O.2   291  ALA291     -0.2718
     97  CB        23.4540  -18.2610    9.3750 C.3   291  ALA291      0.0304
     98  N         23.4880  -19.8750   12.4630 N.am  292  THR292     -0.1939
     99  CA        22.7140  -20.1890   13.6520 C.3   292  THR292      0.2028
    100  C         23.3080  -19.5590   14.8850 C.2   292  THR292      0.2642
    101  O         24.5260  -19.5030   15.0370 O.2   292  THR292     -0.2714
    102  CB        22.6530  -21.7010   13.8970 C.3   292  THR292      0.1808
    103  OG1       21.8990  -21.9570   15.0750 O.3   292  THR292     -0.2208
    104  CG2       24.0130  -22.2420   14.1100 C.3   292  THR292      0.0379
    105  N         22.4350  -19.0930   15.7700 N.am  293  ASP293     -0.1971
    106  CA        22.8460  -18.5520   17.0590 C.3   293  ASP293      0.1709
    107  C         22.7890  -19.6150   18.1680 C.2   293  ASP293      0.2293
    108  O         22.8660  -19.3080   19.3480 O.2   293  ASP293     -0.2864
    109  CB        22.0830  -17.2750   17.4140 C.3   293  ASP293      0.1436
    110  CG        20.6760  -17.5450   17.7800 C.2   293  ASP293      0.3671
    111  OD1       20.2340  -18.6770   17.5070 O.co2 293  ASP293     -0.2456
    112  OD2       20.0210  -16.6390   18.3410 O.co2 293  ASP293     -0.2456
    113  N         30.5530   -8.3820   16.3760 N.3   324  ASP324     -0.1225
    114  CA        29.4760   -9.3440   16.3900 C.3   324  ASP324      0.1805
    115  C         28.7270   -9.2200   15.0930 C.2   324  ASP324      0.2598
    116  O         28.3960  -10.2120   14.4480 O.2   324  ASP324     -0.2718
    117  CB        28.5460   -9.1220   17.5860 C.3   324  ASP324      0.1424
    118  CG        27.6320  -10.3180   17.8590 C.2   324  ASP324      0.3668
    119  OD1       27.1420  -10.9460   16.8950 O.co2 324  ASP324     -0.2456
    120  OD2       27.4030  -10.6290   19.0460 O.co2 324  ASP324     -0.2456
    121  N         28.4670   -7.9800   14.7050 N.am  325  GLY325     -0.1957
    122  CA        27.6870   -7.7250   13.5140 C.3   325  GLY325      0.1869
    123  C         28.5280   -8.0340   12.2960 C.2   325  GLY325      0.2309
    124  O         27.9900   -8.1740   11.2000 O.2   325  GLY325     -0.2863
    125  N         30.6430  -10.7560   12.0180 N.3   327  VAL327     -0.1231
    126  CA        30.3680  -12.1690   11.8240 C.3   327  VAL327      0.1692
    127  C         28.9360  -12.3430   11.3880 C.2   327  VAL327      0.2591
    128  O         28.6430  -13.1330   10.5100 O.2   327  VAL327     -0.2718
    129  CB        30.5510  -12.9480   13.1100 C.3   327  VAL327      0.0266
    130  CG1       30.0140  -14.3330   12.9490 C.3   327  VAL327      0.0020
    131  CG2       32.0000  -12.9820   13.4860 C.3   327  VAL327      0.0020
    132  N         28.0400  -11.5950   12.0140 N.am  328  ALA328     -0.1980
    133  CA        26.6430  -11.6220   11.6310 C.3   328  ALA328      0.1597
    134  C         26.4990  -11.3520   10.1390 C.2   328  ALA328      0.2287
    135  O         25.7480  -12.0330    9.4460 O.2   328  ALA328     -0.2864
    136  CB        25.8470  -10.6070   12.4500 C.3   328  ALA328      0.0319
    137  N         27.8470  -14.2380    7.9650 N.3   331  ASP331     -0.1239
    138  CA        26.8570  -15.2970    7.9660 C.3   331  ASP331      0.1674
    139  C         25.7350  -14.9670    6.9900 C.2   331  ASP331      0.2266
    140  O         25.3230  -15.8190    6.2230 O.2   331  ASP331     -0.2867
    141  CB        26.3330  -15.5750    9.3760 C.3   331  ASP331      0.1410
    142  CG        27.1300  -16.6640   10.0970 C.2   331  ASP331      0.3668
    143  OD1       27.6730  -17.5740    9.4280 O.co2 331  ASP331     -0.2456
    144  OD2       27.2180  -16.6160   11.3410 O.co2 331  ASP331     -0.2456
    145  N          9.9320  -14.7730   11.5180 N.3   346  VAL346     -0.1231
    146  CA         9.9780  -13.4410   12.1430 C.3   346  VAL346      0.1692
    147  C         11.2790  -13.0700   12.8000 C.2   346  VAL346      0.2593
    148  O         11.2770  -12.4670   13.8580 O.2   346  VAL346     -0.2718
    149  CB         8.9390  -13.2800   13.2310 C.3   346  VAL346      0.0266
    150  CG1        8.4010  -11.8800   13.1780 C.3   346  VAL346      0.0020
    151  CG2        7.8440  -14.2700   13.0460 C.3   346  VAL346      0.0020
    152  N         12.3800  -13.4440   12.1770 N.am  347  SER347     -0.1938
    153  CA        13.7060  -13.1130   12.6660 C.3   347  SER347      0.2055
    154  C         14.2820  -12.0210   11.8030 C.2   347  SER347      0.2644
    155  O         14.5380  -12.2340   10.6200 O.2   347  SER347     -0.2714
    156  CB        14.6190  -14.3340   12.5860 C.3   347  SER347      0.2130
    157  OG        15.9480  -13.9740   12.8900 O.3   347  SER347     -0.2179
    158  N         14.5130  -10.8560   12.3820 N.am  348  THR348     -0.1936
    159  CA        14.9170   -9.7480   11.5460 C.3   348  THR348      0.2028
    160  C         16.2900   -9.9720   10.8950 C.2   348  THR348      0.2642
    161  O         16.6520   -9.2590    9.9580 O.2   348  THR348     -0.2714
    162  CB        14.8360   -8.4250   12.2840 C.3   348  THR348      0.1808
    163  OG1       16.1180   -8.0980   12.8170 O.3   348  THR348     -0.2208
    164  CG2       13.8210   -8.5370   13.4040 C.3   348  THR348      0.0379
    165  N         17.0330  -10.9730   11.3680 N.am  349  PHE349     -0.1973
    166  CA        18.2410  -11.4690   10.6850 C.3   349  PHE349      0.1639
    167  C         17.8760  -12.0280    9.3180 C.2   349  PHE349      0.2290
    168  O         18.4010  -11.5930    8.2990 O.2   349  PHE349     -0.2864
    169  CB        18.8400  -12.5770   11.5370 C.3   349  PHE349      0.0560
    170  CG        20.1730  -13.1100   11.0640 C.ar  349  PHE349     -0.0200
    171  CD1       20.2490  -14.0050    9.9990 C.ar  349  PHE349     -0.0042
    172  CD2       21.3450  -12.7770   11.7570 C.ar  349  PHE349     -0.0042
    173  CE1       21.4640  -14.5030    9.6040 C.ar  349  PHE349     -0.0003
    174  CE2       22.5620  -13.2760   11.3650 C.ar  349  PHE349     -0.0003
    175  CZ        22.6240  -14.1370   10.2920 C.ar  349  PHE349     -0.0000
@<TRIPOS>BOND
     1   140   139    2
     2   139   138    1
     3   137   138    1
     4   138   141    1
     5    64    65    1
     6   168   167    2
     7    68    65    1
     8    68    69    1
     9    65    66    1
    10    93    94    1
    11   167   166    1
    12    97    94    1
    13   141   142    1
    14   143   142   ar
    15   135   134    2
    16   173   171   ar
    17   173   175   ar
    18   161   160    2
    19   171   170   ar
    20    69    70   ar
    21    69    71   ar
    22    94    95    1
    23   142   144   ar
    24   134   133    1
    25    67    66    2
    26   175   174   ar
    27    70    72   ar
    28   128   127    2
    29   155   154    2
    30    34    33    2
    31   166   165    1
    32   166   169    1
    33   160   165   am
    34   160   159    1
    35    71    73   ar
    36   170   169    1
    37   170   172   ar
    38    96    95    2
    39   124   123    2
    40    31    30    2
    41    95    98   am
    42   174   172   ar
    43   127   126    1
    44   127   132   am
    45   145   146    1
    46   159   162    1
    47   159   158    1
    48    33    32    1
    49    33    35   am
    50    72    73   ar
    51    26    27   ar
    52    26    24   ar
    53    27    25   ar
    54   133   132    1
    55   133   136    1
    56   154   158   am
    57   154   153    1
    58   126   125    1
    59   126   129    1
    60    32    29    1
    61   146   147    1
    62   146   149    1
    63   152   153    1
    64   152   147   am
    65   162   163    1
    66   162   164    1
    67   123   122    1
    68    30    29    1
    69    30    36   am
    70    29    28    1
    71    98    99    1
    72   156   153    1
    73   156   157    1
    74    24    22   ar
    75    25    23   ar
    76   147   148    2
    77    39    38    2
    78   130   129    1
    79   151   149    1
    80   129   131    1
    81   150   149    1
    82    20    19    2
    83    38    37    1
    84    36    37    1
    85   122   121    1
    86    37    40    1
    87    28    19   am
    88    99   102    1
    89    99   100    1
    90    23    22   ar
    91    22    21    1
    92   102   104    1
    93   102   103    1
    94    19    18    1
    95    74    75    1
    96   116   115    2
    97    78    75    1
    98    78    79    1
    99   121   115   am
   100   100   101    2
   101   100   105   am
   102    40    41    1
   103    21    18    1
   104    41    43    1
   105    41    42    1
   106    75    76    1
   107   115   114    1
   108    18    17    1
   109   105   106    1
   110    79    80    1
   111    80    81    1
   112    16    15    2
   113    17    15   am
   114    76    77    2
   115   113   114    1
   116   114   117    1
   117    15    14    1
   118   119   118   ar
   119   106   109    1
   120   106   107    1
   121    81    82    2
   122   109   110    1
   123   111   110   ar
   124   117   118    1
   125    14    13    1
   126   110   112   ar
   127   118   120   ar
   128   107   108    2
   129    13    10   am
   130    82    83    1
   131    82    84    1
   132    92    90   ar
   133    12     9    1
   134    10    11    2
   135    10     9    1
   136    90    91   ar
   137    90    89    1
   138     9     8    1
   139    89    86    1
   140     8     3   am
   141    53    52    1
   142    85    86    1
   143    50    49    1
   144    50    51    1
   145     4     3    2
   146    86    87    1
   147     3     2    1
   148    52    51    2
   149    52    54    1
   150    49    48    1
   151    44    45    1
   152    48    45    1
   153    87    88    2
   154    45    46    1
   155     2     1    1
   156     2     5    1
   157    58    57    2
   158     1     7    1
   159     5     6    1
   160    57    56    1
   161    59    56    1
   162    59    60    1
   163     7     6    1
   164    46    47    2
   165    63    61   am
   166    56    55    1
   167    60    61    1
   168    61    62    2
