@<TRIPOS>MOLECULE
tmp/4ap7A00.pdb
 163 154 0 0 0
SMALL
GASTEIGER

@<TRIPOS>ATOM
      1  N         21.5710    5.3170   46.4760 N.3    33  ILE33      -0.1231
      2  CA        22.0560    6.6360   46.0770 C.3    33  ILE33       0.1692
      3  C         20.9350    7.4710   45.4740 C.2    33  ILE33       0.2593
      4  O         21.1720    8.5010   44.8320 O.2    33  ILE33      -0.2718
      5  CB        23.2150    6.5210   45.0670 C.3    33  ILE33       0.0266
      6  CG1       22.7820    5.6940   43.8530 C.3    33  ILE33       0.0019
      7  CG2       24.4090    5.8770   45.7380 C.3    33  ILE33       0.0020
      8  CD1       23.8740    5.5240   42.8100 C.3    33  ILE33       0.0001
      9  N         19.7080    7.0120   45.6930 N.am   34  GLY34      -0.1942
     10  CA        18.5430    7.7360   45.2310 C.3    34  GLY34       0.2014
     11  C         17.2880    6.9780   45.6030 C.2    34  GLY34       0.2638
     12  O         17.3120    5.7560   45.7590 O.2    34  GLY34      -0.2714
     13  N         16.1880    7.7040   45.7520 N.am   35  ARG35      -0.1977
     14  CA        14.9260    7.0920   46.1320 C.3    35  ARG35       0.1597
     15  C         13.8070    7.6370   45.2660 C.2    35  ARG35       0.2287
     16  O         13.5630    8.8410   45.2350 O.2    35  ARG35      -0.2864
     17  CB        14.6210    7.3750   47.6040 C.3    35  ARG35       0.0334
     18  CG        15.6650    6.8320   48.5600 C.3    35  ARG35       0.0492
     19  CD        15.2060    6.9240   50.0090 C.3    35  ARG35       0.2205
     20  NE        16.0070    6.0560   50.8640 N.pl3  35  ARG35      -0.0865
     21  CZ        15.7790    4.7570   51.0270 C.cat  35  ARG35       0.5346
     22  NH1       14.7670    4.1730   50.3950 N.pl3  35  ARG35       0.1354
     23  NH2       16.5690    4.0370   51.8120 N.pl3  35  ARG35       0.1354
     24  N         17.5560    3.7700   43.7310 N.3    41  VAL41      -0.1245
     25  CA        18.7210    3.7080   42.8580 C.3    41  VAL41       0.1561
     26  C         19.8920    3.1860   43.6730 C.2    41  VAL41       0.2260
     27  O         20.0830    3.5880   44.8200 O.2    41  VAL41      -0.2867
     28  CB        19.0830    5.1040   42.2960 C.3    41  VAL41       0.0252
     29  CG1       20.1950    4.9720   41.2590 C.3    41  VAL41       0.0019
     30  CG2       17.8510    5.7520   41.6770 C.3    41  VAL41       0.0019
     31  N         24.9590    3.6090   38.0590 N.3    53  ALA53      -0.1245
     32  CA        23.7950    3.7980   38.9150 C.3    53  ALA53       0.1562
     33  C         22.6580    2.9410   38.3870 C.2    53  ALA53       0.2260
     34  O         22.2690    3.0560   37.2230 O.2    53  ALA53      -0.2867
     35  CB        23.3780    5.2560   38.9120 C.3    53  ALA53       0.0290
     36  N         21.8530   13.4110   30.5930 N.3    85  LEU85      -0.1245
     37  CA        22.1590   12.1160   31.1950 C.3    85  LEU85       0.1561
     38  C         21.9230   11.0060   30.1730 C.2    85  LEU85       0.2260
     39  O         20.8730   10.9500   29.5390 O.2    85  LEU85      -0.2867
     40  CB        21.2790   11.8690   32.4230 C.3    85  LEU85       0.0270
     41  CG        21.6270   10.5990   33.2140 C.3    85  LEU85       0.0019
     42  CD1       22.9570   10.7950   33.9400 C.3    85  LEU85       0.0001
     43  CD2       20.5170   10.2880   34.2130 C.3    85  LEU85       0.0001
     44  N         22.3430    3.4500   34.5420 N.3   102  LEU102     -0.1231
     45  CA        22.6870    4.8260   34.2020 C.3   102  LEU102      0.1678
     46  C         24.1240    5.0880   34.6160 C.2   102  LEU102      0.2434
     47  O         24.6590    4.4110   35.4900 O.2   102  LEU102     -0.2733
     48  CB        21.7550    5.7960   34.9370 C.3   102  LEU102      0.0284
     49  CG        20.2520    5.6090   34.7120 C.3   102  LEU102      0.0019
     50  CD1       19.4670    6.3840   35.7570 C.3   102  LEU102      0.0001
     51  CD2       19.8890    6.0660   33.3090 C.3   102  LEU102      0.0001
     52  N         24.7700    6.0800   33.9950 N.am  103  PRO103     -0.2718
     53  CA        26.1140    6.4310   34.4540 C.3   103  PRO103      0.1535
     54  C         26.0890    6.9430   35.8910 C.2   103  PRO103      0.2599
     55  O         25.1680    7.6640   36.2910 O.2   103  PRO103     -0.2715
     56  CB        26.5740    7.4960   33.4550 C.3   103  PRO103      0.0310
     57  CG        25.3130    8.0420   32.8650 C.3   103  PRO103      0.0237
     58  CD        24.3170    6.9200   32.8720 C.3   103  PRO103      0.0939
     59  N         27.0960    6.5570   36.6640 N.am  104  TYR104     -0.1960
     60  CA        27.2110    7.0040   38.0430 C.3   104  TYR104      0.1771
     61  C         27.5730    8.4860   38.0800 C.2   104  TYR104      0.2619
     62  O         28.4510    8.9390   37.3460 O.2   104  TYR104     -0.2715
     63  CB        28.2790    6.1870   38.7720 C.3   104  TYR104      0.0574
     64  CG        28.5600    6.6610   40.1780 C.ar  104  TYR104     -0.0198
     65  CD1       27.5900    6.5670   41.1720 C.ar  104  TYR104     -0.0009
     66  CD2       29.7940    7.2050   40.5140 C.ar  104  TYR104     -0.0009
     67  CE1       27.8430    7.0050   42.4600 C.ar  104  TYR104      0.0417
     68  CE2       30.0570    7.6410   41.7960 C.ar  104  TYR104      0.0417
     69  CZ        29.0800    7.5410   42.7650 C.ar  104  TYR104      0.1957
     70  OH        29.3420    7.9830   44.0400 O.3   104  TYR104     -0.2866
     71  N         26.8810    9.2390   38.9280 N.am  105  MET105     -0.1977
     72  CA        27.1340   10.6680   39.0530 C.3   105  MET105      0.1605
     73  C         27.7880   10.9400   40.4010 C.2   105  MET105      0.2287
     74  O         27.1200   10.9590   41.4330 O.2   105  MET105     -0.2864
     75  CB        25.8220   11.4440   38.9290 C.3   105  MET105      0.0413
     76  CG        25.1750   11.3270   37.5550 C.3   105  MET105      0.0598
     77  SD        26.0750   12.2680   36.2900 S.3   105  MET105     -0.1393
     78  CE        26.6050   10.9610   35.1850 C.3   105  MET105      0.0692
     79  N         26.2770   13.5430   42.7000 N.3   108  GLY108     -0.1210
     80  CA        24.8540   13.4880   42.9830 C.3   108  GLY108      0.1956
     81  C         24.0490   14.5470   42.2550 C.2   108  GLY108      0.2611
     82  O         24.4170   14.9770   41.1580 O.2   108  GLY108     -0.2717
     83  N         22.9420   14.9670   42.8590 N.am  109  ASP109     -0.1973
     84  CA        22.0680   15.9470   42.2210 C.3   109  ASP109      0.1709
     85  C         22.5200   17.3670   42.5150 C.2   109  ASP109      0.2293
     86  O         23.1040   17.6540   43.5600 O.2   109  ASP109     -0.2864
     87  CB        20.6240   15.7740   42.6910 C.3   109  ASP109      0.1436
     88  CG        20.4530   16.0850   44.1570 C.2   109  ASP109      0.3671
     89  OD1       20.9190   15.2820   44.9900 O.co2 109  ASP109     -0.2456
     90  OD2       19.8550   17.1350   44.4760 O.co2 109  ASP109     -0.2456
     91  N         21.3760   19.2880   46.0080 N.3   112  ASN112     -0.1240
     92  CA        22.0890   18.9580   47.2390 C.3   112  ASN112      0.1653
     93  C         23.5360   19.4280   47.1740 C.2   112  ASN112      0.2266
     94  O         24.1310   19.7810   48.1970 O.2   112  ASN112     -0.2867
     95  CB        22.0250   17.4480   47.5150 C.3   112  ASN112      0.1155
     96  CG        20.7010   17.0270   48.1400 C.2   112  ASN112      0.2627
     97  OD1       20.2460   17.6270   49.1150 O.2   112  ASN112     -0.2716
     98  ND2       20.0760   15.9990   47.5770 N.am  112  ASN112     -0.0877
     99  N         16.9130   19.6970   41.4850 N.3   153  ARG153     -0.1231
    100  CA        16.9660   18.3600   42.0670 C.3   153  ARG153      0.1694
    101  C         17.1120   17.3170   40.9600 C.2   153  ARG153      0.2592
    102  O         17.5110   16.1800   41.2210 O.2   153  ARG153     -0.2718
    103  CB        15.6910   18.0640   42.8720 C.3   153  ARG153      0.0321
    104  CG        14.4500   17.9970   42.0080 C.3   153  ARG153      0.0489
    105  CD        13.1740   17.6390   42.7700 C.3   153  ARG153      0.2205
    106  NE        12.0360   17.8470   41.8800 N.pl3 153  ARG153     -0.0865
    107  CZ        11.3920   19.0040   41.7580 C.cat 153  ARG153      0.5346
    108  NH1       11.7590   20.0490   42.4890 N.pl3 153  ARG153      0.1354
    109  NH2       10.4330   19.1390   40.8500 N.pl3 153  ARG153      0.1354
    110  N         16.7800   17.7030   39.7310 N.am  154  ASN154     -0.1974
    111  CA        16.7040   16.7450   38.6280 C.3   154  ASN154      0.1688
    112  C         17.8220   16.9200   37.6050 C.2   154  ASN154      0.2292
    113  O         17.7190   16.4530   36.4710 O.2   154  ASN154     -0.2864
    114  CB        15.3430   16.8540   37.9330 C.3   154  ASN154      0.1181
    115  CG        14.2220   16.2660   38.7700 C.2   154  ASN154      0.2629
    116  OD1       14.4530   15.3810   39.5980 O.2   154  ASN154     -0.2716
    117  ND2       13.0050   16.7550   38.5630 N.am  154  ASN154     -0.0877
    118  N         22.0620   16.1870   37.4850 N.3   156  MET156     -0.1245
    119  CA        23.1250   15.5030   38.2140 C.3   156  MET156      0.1570
    120  C         24.4910   16.0860   37.8430 C.2   156  MET156      0.2261
    121  O         24.6390   16.7310   36.7980 O.2   156  MET156     -0.2867
    122  CB        23.0960   14.0030   37.9000 C.3   156  MET156      0.0387
    123  CG        21.7140   13.3520   38.0310 C.3   156  MET156      0.0595
    124  SD        21.0740   13.3290   39.7220 S.3   156  MET156     -0.1393
    125  CE        22.1940   12.1410   40.5020 C.3   156  MET156      0.0692
    126  N         18.6620   15.4890   33.8390 N.3   166  ALA166     -0.1231
    127  CA        18.2960   14.1230   34.1860 C.3   166  ALA166      0.1694
    128  C         16.8110   14.0050   34.5170 C.2   166  ALA166      0.2592
    129  O         16.0080   14.8320   34.0910 O.2   166  ALA166     -0.2718
    130  CB        19.1630   13.6360   35.3640 C.3   166  ALA166      0.0304
    131  N         16.4460   12.9740   35.2700 N.am  167  ASP167     -0.1974
    132  CA        15.0410   12.6800   35.5570 C.3   167  ASP167      0.1709
    133  C         14.1320   12.8260   34.3360 C.2   167  ASP167      0.2293
    134  O         13.1440   13.5740   34.3540 O.2   167  ASP167     -0.2864
    135  CB        14.5090   13.5770   36.6820 C.3   167  ASP167      0.1436
    136  CG        13.2100   13.0460   37.2750 C.2   167  ASP167      0.3671
    137  OD1       12.7450   11.9840   36.8180 O.co2 167  ASP167     -0.2456
    138  OD2       12.6510   13.6760   38.1920 O.co2 167  ASP167     -0.2456
    139  N         14.8720    7.2480   33.2710 N.3   171  ALA171     -0.1245
    140  CA        15.2990    7.7070   34.5900 C.3   171  ALA171      0.1562
    141  C         14.1810    8.4630   35.3170 C.2   171  ALA171      0.2260
    142  O         14.3490    8.8840   36.4650 O.2   171  ALA171     -0.2867
    143  CB        16.5350    8.5980   34.4600 C.3   171  ALA171      0.0290
    144  N         12.0570   12.0130   42.8550 N.3   175  TYR175     -0.1227
    145  CA        13.1830   11.7030   43.7260 C.3   175  TYR175      0.1736
    146  C         13.1790   12.5360   44.9990 C.2   175  TYR175      0.2595
    147  O         13.9770   12.2940   45.9050 O.2   175  TYR175     -0.2718
    148  CB        14.5030   11.9070   42.9750 C.3   175  TYR175      0.0548
    149  CG        14.7240   10.9080   41.8620 C.ar  175  TYR175     -0.0200
    150  CD1       15.2050    9.6330   42.1350 C.ar  175  TYR175     -0.0009
    151  CD2       14.4610   11.2420   40.5360 C.ar  175  TYR175     -0.0009
    152  CE1       15.4200    8.7130   41.1190 C.ar  175  TYR175      0.0417
    153  CE2       14.6720   10.3310   39.5130 C.ar  175  TYR175      0.0417
    154  CZ        15.1510    9.0670   39.8110 C.ar  175  TYR175      0.1957
    155  OH        15.3560    8.1520   38.8000 O.3   175  TYR175     -0.2866
    156  N         12.2900   13.5250   45.0570 N.am  176  ASP176     -0.1974
    157  CA        11.9920   14.2250   46.3040 C.3   176  ASP176      0.1709
    158  C         10.5020   14.5430   46.3910 C.2   176  ASP176      0.2293
    159  O         10.0370   15.5640   45.8800 O.2   176  ASP176     -0.2864
    160  CB        12.8040   15.5200   46.4140 C.3   176  ASP176      0.1436
    161  CG        12.7020   16.1530   47.7970 C.2   176  ASP176      0.3671
    162  OD1       11.8000   15.7560   48.5680 O.co2 176  ASP176     -0.2456
    163  OD2       13.5190   17.0430   48.1120 O.co2 176  ASP176     -0.2456
@<TRIPOS>BOND
     1    39    38    2
     2    38    37    1
     3    36    37    1
     4    37    40    1
     5    40    41    1
     6    57    58    1
     7    57    56    1
     8    58    52    1
     9    41    42    1
    10    41    43    1
    11   139   140    1
    12    51    49    1
    13    56    53    1
    14   126   127    1
    15    52    53    1
    16    52    46   am
    17   129   128    2
    18   127   128    1
    19   127   130    1
    20    45    44    1
    21    45    46    1
    22    45    48    1
    23   133   134    2
    24   133   132    1
    25    53    54    1
    26   143   140    1
    27   128   131   am
    28   140   141    1
    29    46    47    2
    30    49    48    1
    31    49    50    1
    32    78    77    1
    33   131   132    1
    34   141   142    2
    35   132   135    1
    36    54    55    2
    37    54    59   am
    38    77    76    1
    39   113   112    2
    40    59    60    1
    41   135   136    1
    42   121   120    2
    43   137   136   ar
    44    34    33    2
    45   136   138   ar
    46    62    61    2
    47   118   119    1
    48    76    75    1
    49   112   111    1
    50   120   119    1
    51   122   123    1
    52   122   119    1
    53   114   111    1
    54   114   115    1
    55   123   124    1
    56    60    61    1
    57    60    63    1
    58    31    32    1
    59    61    71   am
    60    33    32    1
    61   117   115   am
    62   111   110    1
    63   115   116    2
    64    63    64    1
    65   155   154    1
    66    35    32    1
    67    71    72    1
    68    75    72    1
    69    72    73    1
    70   153   154   ar
    71   153   151   ar
    72   124   125    1
    73   110   101   am
    74   154   152   ar
    75    64    66   ar
    76    64    65   ar
    77    73    74    2
    78    66    68   ar
    79   151   149   ar
    80   109   107    1
    81   101   102    2
    82   101   100    1
    83   152   150   ar
    84    82    81    2
    85    65    67   ar
    86    29    28    1
    87    99   100    1
    88    30    28    1
    89   107   106    2
    90   107   108    1
    91    68    69   ar
    92   149   150   ar
    93   149   148    1
    94   106   105    1
    95   104   105    1
    96   104   103    1
    97   100   103    1
    98    84    85    1
    99    84    87    1
   100    84    83    1
   101    81    83   am
   102    81    80    1
   103    28    25    1
   104    67    69   ar
   105    85    86    2
   106    87    88    1
   107    79    80    1
   108    69    70    1
   109     8     6    1
   110   144   145    1
   111    25    26    1
   112    25    24    1
   113   148   145    1
   114    26    27    2
   115   145   146    1
   116     6     5    1
   117    88    90   ar
   118    88    89   ar
   119     4     3    2
   120   146   156   am
   121   146   147    2
   122   156   157    1
   123     5     7    1
   124     5     2    1
   125    10    11    1
   126    10     9    1
   127    16    15    2
   128    15    14    1
   129     3     9   am
   130     3     2    1
   131    11    13   am
   132    11    12    2
   133    13    14    1
   134   159   158    2
   135    91    92    1
   136     2     1    1
   137    14    17    1
   138   157   158    1
   139   157   160    1
   140   160   161    1
   141    93    92    1
   142    93    94    2
   143    92    95    1
   144    95    96    1
   145    98    96   am
   146    17    18    1
   147   161   163   ar
   148   161   162   ar
   149    96    97    2
   150    18    19    1
   151    19    20    1
   152    22    21    1
   153    20    21    2
   154    21    23    1
