@<TRIPOS>MOLECULE
tmp/4ap9C00.pdb
 111 108 0 0 0
SMALL
GASTEIGER

@<TRIPOS>ATOM
      1  N        -46.9980   48.6680   23.3070 N.3    42  GLY42      -0.1210
      2  CA       -47.6240   48.9430   22.0250 C.3    42  GLY42       0.1956
      3  C        -49.0990   48.5830   21.9840 C.2    42  GLY42       0.2611
      4  O        -49.9310   49.3880   21.5690 O.2    42  GLY42      -0.2717
      5  N        -49.4240   47.3570   22.3900 N.am   43  LEU43      -0.1979
      6  CA       -50.7880   46.8580   22.3230 C.3    43  LEU43       0.1596
      7  C        -51.7300   47.6600   23.2220 C.2    43  LEU43       0.2287
      8  O        -52.9200   47.8010   22.9180 O.2    43  LEU43      -0.2864
      9  CB       -50.8360   45.3830   22.7120 C.3    43  LEU43       0.0297
     10  CG       -50.0700   44.4380   21.7820 C.3    43  LEU43       0.0022
     11  CD1      -49.8840   43.0580   22.4060 C.3    43  LEU43       0.0001
     12  CD2      -50.7790   44.3290   20.4360 C.3    43  LEU43       0.0001
     13  N        -51.2910   50.8120   23.9380 N.3    45  GLY45      -0.1225
     14  CA       -51.2660   52.1990   23.5170 C.3    45  GLY45       0.1811
     15  C        -50.4320   53.1090   24.4110 C.2    45  GLY45       0.2280
     16  O        -50.4860   54.3300   24.2630 O.2    45  GLY45      -0.2866
     17  N        -47.3730   53.0450   18.2660 N.3    49  TRP49      -0.1241
     18  CA       -47.1720   51.7070   17.7150 C.3    49  TRP49       0.1605
     19  C        -45.8720   51.5590   16.9260 C.2    49  TRP49       0.2264
     20  O        -45.1120   50.6060   17.1420 O.2    49  TRP49      -0.2867
     21  CB       -48.3530   51.2460   16.8580 C.3    49  TRP49       0.0550
     22  CG       -48.1220   49.8750   16.3120 C.ar   49  TRP49       0.0003
     23  CD1      -47.6840   49.5460   15.0530 C.ar   49  TRP49       0.0946
     24  CD2      -48.2670   48.6390   17.0230 C.ar   49  TRP49       0.0152
     25  NE1      -47.5740   48.1790   14.9370 N.ar   49  TRP49      -0.2442
     26  CE2      -47.9280   47.6040   16.1300 C.ar   49  TRP49       0.0810
     27  CE3      -48.6700   48.3130   18.3250 C.ar   49  TRP49       0.0012
     28  CZ2      -47.9750   46.2580   16.5010 C.ar   49  TRP49       0.0191
     29  CZ3      -48.7210   46.9790   18.6910 C.ar   49  TRP49       0.0001
     30  CH2      -48.3740   45.9640   17.7800 C.ar   49  TRP49       0.0015
     31  N        -49.3070   42.4140   10.2470 N.3   100  GLY100     -0.1225
     32  CA       -48.1980   43.3350   10.4210 C.3   100  GLY100      0.1811
     33  C        -46.9110   42.5970   10.7410 C.2   100  GLY100      0.2280
     34  O        -45.8540   43.2200   10.8960 O.2   100  GLY100     -0.2866
     35  N        -47.0460   48.5270    4.3160 N.3   134  PHE134     -0.1227
     36  CA       -48.2560   49.3300    4.3880 C.3   134  PHE134      0.1736
     37  C        -48.1710   50.1560    5.6730 C.2   134  PHE134      0.2595
     38  O        -47.4680   49.7690    6.6040 O.2   134  PHE134     -0.2718
     39  CB       -49.5120   48.4510    4.3470 C.3   134  PHE134      0.0547
     40  CG       -49.5330   47.3500    5.3900 C.ar  134  PHE134     -0.0202
     41  CD1      -48.9830   46.1120    5.1220 C.ar  134  PHE134     -0.0042
     42  CD2      -50.1260   47.5560    6.6230 C.ar  134  PHE134     -0.0042
     43  CE1      -49.0020   45.1120    6.0770 C.ar  134  PHE134     -0.0003
     44  CE2      -50.1570   46.5560    7.5740 C.ar  134  PHE134     -0.0003
     45  CZ       -49.5930   45.3350    7.3040 C.ar  134  PHE134     -0.0000
     46  N        -48.8400   51.3030    5.7130 N.am  135  ARG135     -0.1966
     47  CA       -48.6930   52.1960    6.8550 C.3   135  ARG135      0.1729
     48  C        -49.2660   51.5700    8.1110 C.2   135  ARG135      0.2616
     49  O        -48.6370   51.5850    9.1740 O.2   135  ARG135     -0.2715
     50  CB       -49.3920   53.5200    6.5980 C.3   135  ARG135      0.0348
     51  CG       -48.9490   54.5920    7.5700 C.3   135  ARG135      0.0492
     52  CD       -50.1310   55.3060    8.1500 C.3   135  ARG135      0.2205
     53  NE       -50.2740   56.6580    7.6350 N.pl3 135  ARG135     -0.0865
     54  CZ       -51.1150   57.5550    8.1440 C.cat 135  ARG135      0.5346
     55  NH1      -51.8820   57.2350    9.1780 N.pl3 135  ARG135      0.1354
     56  NH2      -51.1900   58.7670    7.6260 N.pl3 135  ARG135      0.1354
     57  N        -50.4800   51.0430    7.9690 N.am  136  ASP136     -0.1957
     58  CA       -51.1970   50.3420    9.0300 C.3   136  ASP136      0.1840
     59  C        -52.3730   49.6040    8.3680 C.2   136  ASP136      0.2621
     60  O        -52.6340   49.7780    7.1730 O.2   136  ASP136     -0.2715
     61  CB       -51.6780   51.3160   10.1210 C.3   136  ASP136      0.1450
     62  CG       -52.5830   52.4190    9.5760 C.2   136  ASP136      0.3671
     63  OD1      -53.6780   52.1130    9.0550 O.co2 136  ASP136     -0.2456
     64  OD2      -52.2110   53.6070    9.6890 O.co2 136  ASP136     -0.2456
     65  N        -53.0850   48.7780    9.1200 N.am  137  LYS137     -0.1977
     66  CA       -54.0730   47.9040    8.4840 C.3   137  LYS137      0.1596
     67  C        -55.2610   48.6590    7.9100 C.2   137  LYS137      0.2287
     68  O        -55.8500   48.2370    6.9080 O.2   137  LYS137     -0.2864
     69  CB       -54.5120   46.8050    9.4450 C.3   137  LYS137      0.0298
     70  CG       -53.3880   45.8230    9.7240 C.3   137  LYS137      0.0038
     71  CD       -53.6160   45.0300   10.9980 C.3   137  LYS137      0.0206
     72  CE       -52.3970   44.1650   11.2940 C.3   137  LYS137      0.1093
     73  NZ       -52.4460   43.4950   12.6320 N.3   137  LYS137     -0.1314
     74  N        -56.2970   40.7190   18.6350 N.3   154  GLY154     -0.1210
     75  CA       -55.4570   41.6240   19.3670 C.3   154  GLY154      0.1956
     76  C        -54.5600   42.6040   18.6280 C.2   154  GLY154      0.2612
     77  O        -54.3600   43.7170   19.1040 O.2   154  GLY154     -0.2717
     78  N        -54.0230   42.1790   17.4810 N.am  155  TYR155     -0.1962
     79  CA       -53.2140   43.0360   16.6550 C.3   155  TYR155      0.1771
     80  C        -53.9490   44.0160   15.7130 C.2   155  TYR155      0.2619
     81  O        -53.3290   44.7330   14.9300 O.2   155  TYR155     -0.2715
     82  CB       -52.1770   42.1870   15.8950 C.3   155  TYR155      0.0574
     83  CG       -51.1640   41.5300   16.8120 C.ar  155  TYR155     -0.0198
     84  CD1      -51.5200   40.4350   17.5930 C.ar  155  TYR155     -0.0009
     85  CD2      -49.8550   42.0170   16.9150 C.ar  155  TYR155     -0.0009
     86  CE1      -50.6110   39.8380   18.4480 C.ar  155  TYR155      0.0417
     87  CE2      -48.9330   41.4210   17.7740 C.ar  155  TYR155      0.0417
     88  CZ       -49.3180   40.3340   18.5340 C.ar  155  TYR155      0.1957
     89  OH       -48.4250   39.7340   19.3890 O.3   155  TYR155     -0.2866
     90  N        -55.2750   44.0570   15.8060 N.am  156  ALA156     -0.1963
     91  CA       -56.0320   45.0150   15.0000 C.3   156  ALA156      0.1728
     92  C        -56.4560   46.1750   15.8970 C.2   156  ALA156      0.2616
     93  O        -56.2390   46.1270   17.1080 O.2   156  ALA156     -0.2715
     94  CB       -57.2430   44.3440   14.3660 C.3   156  ALA156      0.0334
     95  N        -57.0370   47.2180   15.3110 N.am  157  ASP157     -0.1971
     96  CA       -57.5140   48.3590   16.0950 C.3   157  ASP157      0.1709
     97  C        -58.7010   49.0410   15.4200 C.2   157  ASP157      0.2293
     98  O        -59.2120   48.5730   14.4010 O.2   157  ASP157     -0.2864
     99  CB       -56.4020   49.3820   16.3190 C.3   157  ASP157      0.1436
    100  CG       -55.8820   49.9800   15.0110 C.2   157  ASP157      0.3671
    101  OD1      -56.4140   49.6420   13.9240 O.co2 157  ASP157     -0.2456
    102  OD2      -54.9380   50.7930   15.0750 O.co2 157  ASP157     -0.2456
    103  N        -58.7750   51.6520   13.6920 N.3   159  LYS159     -0.1245
    104  CA       -58.4370   52.1310   12.3520 C.3   159  LYS159      0.1561
    105  C        -58.8400   51.1110   11.2890 C.2   159  LYS159      0.2260
    106  O        -59.4390   51.4480   10.2680 O.2   159  LYS159     -0.2867
    107  CB       -56.9380   52.3890   12.2480 C.3   159  LYS159      0.0271
    108  CG       -56.5490   53.8450   12.1460 C.3   159  LYS159      0.0035
    109  CD       -55.0740   53.9770   11.7920 C.3   159  LYS159      0.0206
    110  CE       -54.8760   54.8980   10.6010 C.3   159  LYS159      0.1093
    111  NZ       -55.5230   54.4040    9.3450 N.3   159  LYS159     -0.1314
@<TRIPOS>BOND
     1    35    36    1
     2    39    36    1
     3    39    40    1
     4    36    37    1
     5    41    40   ar
     6    41    43   ar
     7    40    42   ar
     8    37    46   am
     9    37    38    2
    10    46    47    1
    11    43    45   ar
    12    50    47    1
    13    50    51    1
    14    42    44   ar
    15    47    48    1
    16    68    67    2
    17    60    59    2
    18    45    44   ar
    19    51    52    1
    20    56    54    1
    21    53    54    2
    22    53    52    1
    23    67    66    1
    24    57    48   am
    25    57    58    1
    26    48    49    2
    27    54    55    1
    28    59    58    1
    29    59    65   am
    30    66    65    1
    31    66    69    1
    32    58    61    1
    33    63    62   ar
    34   111   110    1
    35    69    70    1
    36    62    64   ar
    37    62    61    1
    38    70    71    1
    39    31    32    1
    40   106   105    2
    41    32    33    1
    42   110   109    1
    43    33    34    2
    44    71    72    1
    45   105   104    1
    46    72    73    1
    47   109   108    1
    48   108   107    1
    49   107   104    1
    50   104   103    1
    51   101   100   ar
    52    94    91    1
    53    98    97    2
    54    81    80    2
    55    25    23   ar
    56    25    26   ar
    57    91    90    1
    58    91    92    1
    59   100   102   ar
    60   100    99    1
    61    23    22   ar
    62    95    92   am
    63    95    96    1
    64    97    96    1
    65    80    90   am
    66    80    79    1
    67    82    79    1
    68    82    83    1
    69    92    93    2
    70    96    99    1
    71    26    28   ar
    72    26    24   ar
    73    22    21    1
    74    22    24   ar
    75    28    30   ar
    76    79    78    1
    77    83    85   ar
    78    83    84   ar
    79    21    18    1
    80    85    87   ar
    81    19    20    2
    82    19    18    1
    83    24    27   ar
    84    78    76   am
    85    84    86   ar
    86    18    17    1
    87    87    88   ar
    88    30    29   ar
    89    27    29   ar
    90    86    88   ar
    91    88    89    1
    92    76    77    2
    93    76    75    1
    94    74    75    1
    95    12    10    1
    96     4     3    2
    97    10    11    1
    98    10     9    1
    99     3     2    1
   100     3     5   am
   101     2     1    1
   102     6     5    1
   103     6     9    1
   104     6     7    1
   105     8     7    2
   106    14    13    1
   107    14    15    1
   108    16    15    2
