@<TRIPOS>MOLECULE
tmp/4apjA03.pdb
 94 91 0 0 0
SMALL
GASTEIGER

@<TRIPOS>ATOM
      1  N         13.0700  -12.9930  -47.7520 N.3   211  TYR211     -0.1241
      2  CA        14.1860  -13.9230  -47.8260 C.3   211  TYR211      0.1605
      3  C         13.9590  -15.1550  -46.9480 C.2   211  TYR211      0.2264
      4  O         14.1410  -16.2890  -47.4030 O.2   211  TYR211     -0.2867
      5  CB        15.4770  -13.2070  -47.4230 C.3   211  TYR211      0.0534
      6  CG        16.7170  -14.0560  -47.5390 C.ar  211  TYR211     -0.0201
      7  CD1       17.3610  -14.2190  -48.7700 C.ar  211  TYR211     -0.0009
      8  CD2       17.2570  -14.6950  -46.4200 C.ar  211  TYR211     -0.0009
      9  CE1       18.5040  -14.9940  -48.8830 C.ar  211  TYR211      0.0417
     10  CE2       18.4030  -15.4790  -46.5260 C.ar  211  TYR211      0.0417
     11  CZ        19.0200  -15.6210  -47.7580 C.ar  211  TYR211      0.1957
     12  OH        20.1540  -16.3930  -47.8730 O.3   211  TYR211     -0.2866
     13  N         11.2400  -17.6000  -48.0790 N.3   214  ARG214     -0.1231
     14  CA        11.6970  -18.4860  -49.1420 C.3   214  ARG214      0.1694
     15  C         12.4900  -19.6720  -48.5920 C.2   214  ARG214      0.2591
     16  O         12.3300  -20.8020  -49.0600 O.2   214  ARG214     -0.2718
     17  CB        12.5280  -17.7120  -50.1750 C.3   214  ARG214      0.0321
     18  CG        13.2500  -18.5860  -51.2080 C.3   214  ARG214      0.0489
     19  CD        12.3140  -19.2180  -52.2190 C.3   214  ARG214      0.2205
     20  NE        11.6870  -18.1990  -53.0520 N.pl3 214  ARG214     -0.0865
     21  CZ        10.9840  -18.4490  -54.1510 C.cat 214  ARG214      0.5346
     22  NH1       10.8150  -19.7010  -54.5680 N.pl3 214  ARG214      0.1354
     23  NH2       10.4500  -17.4420  -54.8390 N.pl3 214  ARG214      0.1354
     24  N         13.3410  -19.4000  -47.6040 N.am  215  ALA215     -0.1980
     25  CA        14.1400  -20.4300  -46.9510 C.3   215  ALA215      0.1597
     26  C         13.2530  -21.4500  -46.2440 C.2   215  ALA215      0.2287
     27  O         13.5370  -22.6510  -46.2710 O.2   215  ALA215     -0.2864
     28  CB        15.1140  -19.7960  -45.9710 C.3   215  ALA215      0.0319
     29  N         11.6150  -23.6860  -48.7030 N.3   218  ARG218     -0.1245
     30  CA        12.5350  -24.7410  -49.1110 C.3   218  ARG218      0.1563
     31  C         12.5770  -25.8980  -48.1080 C.2   218  ARG218      0.2260
     32  O         12.6290  -27.0590  -48.5050 O.2   218  ARG218     -0.2867
     33  CB        13.9350  -24.1650  -49.3410 C.3   218  ARG218      0.0307
     34  CG        14.9880  -25.2020  -49.7300 C.3   218  ARG218      0.0489
     35  CD        16.0590  -24.6110  -50.6340 C.3   218  ARG218      0.2205
     36  NE        16.5100  -23.3060  -50.1560 N.pl3 218  ARG218     -0.0865
     37  CZ        17.5190  -22.6210  -50.6820 C.cat 218  ARG218      0.5346
     38  NH1       18.2060  -23.1070  -51.7120 N.pl3 218  ARG218      0.1354
     39  NH2       17.8440  -21.4450  -50.1700 N.pl3 218  ARG218      0.1354
     40  N         18.8110  -22.5000  -40.9610 N.3   250  LEU250     -0.1231
     41  CA        17.8820  -22.6030  -42.0810 C.3   250  LEU250      0.1693
     42  C         18.0800  -21.5120  -43.1290 C.2   250  LEU250      0.2592
     43  O         17.7260  -21.6980  -44.2940 O.2   250  LEU250     -0.2718
     44  CB        16.4300  -22.5840  -41.5840 C.3   250  LEU250      0.0284
     45  CG        15.8930  -23.8080  -40.8350 C.3   250  LEU250      0.0019
     46  CD1       14.4210  -23.6250  -40.5390 C.3   250  LEU250      0.0001
     47  CD2       16.1110  -25.0980  -41.6160 C.3   250  LEU250      0.0001
     48  N         18.6450  -20.3810  -42.7160 N.am  251  VAL251     -0.1966
     49  CA        18.6910  -19.1930  -43.5720 C.3   251  VAL251      0.1727
     50  C         20.0950  -18.7080  -43.9110 C.2   251  VAL251      0.2616
     51  O         20.2500  -17.8500  -44.7810 O.2   251  VAL251     -0.2715
     52  CB        17.8940  -18.0020  -42.9650 C.3   251  VAL251      0.0290
     53  CG1       16.4300  -18.3740  -42.7550 C.3   251  VAL251      0.0023
     54  CG2       18.5210  -17.5390  -41.6640 C.3   251  VAL251      0.0023
     55  N         21.1030  -19.2370  -43.2180 N.am  252  VAL252     -0.1964
     56  CA        22.4980  -18.8300  -43.4280 C.3   252  VAL252      0.1712
     57  C         22.8460  -18.8060  -44.9240 C.2   252  VAL252      0.2458
     58  O         22.7840  -19.8390  -45.5880 O.2   252  VAL252     -0.2730
     59  CB        23.4960  -19.7100  -42.6070 C.3   252  VAL252      0.0289
     60  CG1       23.1890  -21.2030  -42.7670 C.3   252  VAL252      0.0023
     61  CG2       24.9460  -19.3990  -42.9710 C.3   252  VAL252      0.0023
     62  N         23.1830  -17.6120  -45.4560 N.am  253  PRO253     -0.2727
     63  CA        23.4240  -17.3920  -46.8860 C.3   253  PRO253      0.1402
     64  C         24.5530  -18.2560  -47.4270 C.2   253  PRO253      0.2269
     65  O         24.4710  -18.7490  -48.5510 O.2   253  PRO253     -0.2865
     66  CB        23.8320  -15.9190  -46.9530 C.3   253  PRO253      0.0296
     67  CG        23.2920  -15.3130  -45.7290 C.3   253  PRO253      0.0237
     68  CD        23.3610  -16.3720  -44.6830 C.3   253  PRO253      0.0939
     69  N         26.3890  -21.4660  -46.0450 N.3   255  PRO255     -0.2116
     70  CA        26.8870  -22.6240  -45.3070 C.3   255  PRO255      0.1372
     71  C         28.2170  -23.0520  -45.9270 C.2   255  PRO255      0.2244
     72  O         28.9790  -23.8030  -45.3150 O.2   255  PRO255     -0.2868
     73  CB        25.8040  -23.6830  -45.5290 C.3   255  PRO255      0.0268
     74  CG        25.1000  -23.2680  -46.7750 C.3   255  PRO255      0.0207
     75  CD        25.1600  -21.7750  -46.8020 C.3   255  PRO255      0.0892
     76  N         15.4990  -13.7730  -57.3670 N.3   567  HIS567     -0.1241
     77  CA        14.6760  -14.9590  -57.1090 C.3   567  HIS567      0.1621
     78  C         13.1830  -14.7320  -57.3710 C.2   567  HIS567      0.2264
     79  O         12.3840  -15.6680  -57.3000 O.2   567  HIS567     -0.2867
     80  CB        14.9170  -15.4990  -55.6960 C.3   567  HIS567      0.0745
     81  CG        16.2710  -16.1060  -55.5130 C.ar  567  HIS567      0.0817
     82  ND1       17.2280  -15.5580  -54.6860 N.ar  567  HIS567     -0.2268
     83  CD2       16.8400  -17.1990  -56.0740 C.ar  567  HIS567      0.1154
     84  CE1       18.3230  -16.2960  -54.7360 C.ar  567  HIS567      0.1986
     85  NE2       18.1140  -17.2970  -55.5710 N.ar  567  HIS567     -0.2212
     86  N         11.0150  -12.6950  -55.7140 N.3   569  GLU569     -0.1245
     87  CA        10.1920  -12.5240  -54.5250 C.3   569  GLU569      0.1567
     88  C          9.3270  -11.2820  -54.6590 C.2   569  GLU569      0.2260
     89  O          9.7670  -10.2640  -55.1900 O.2   569  GLU569     -0.2867
     90  CB        11.0560  -12.3980  -53.2610 C.3   569  GLU569      0.0388
     91  CG        12.2210  -13.3870  -53.1430 C.3   569  GLU569      0.1160
     92  CD        11.7960  -14.8420  -52.9410 C.2   569  GLU569      0.3649
     93  OE1       10.5780  -15.1480  -52.9250 O.co2 569  GLU569     -0.2457
     94  OE2       12.7020  -15.6910  -52.7970 O.co2 569  GLU569     -0.2457
@<TRIPOS>BOND
     1    78    79    2
     2    78    77    1
     3    76    77    1
     4    77    80    1
     5    83    85   ar
     6    83    81   ar
     7    86    87    1
     8    80    81    1
     9    85    84   ar
    10    81    82   ar
    11    89    88    2
    12    23    21    1
    13    84    82   ar
    14    88    87    1
    15    22    21    1
    16    87    90    1
    17    21    20    2
    18    90    91    1
    19    91    92    1
    20    20    19    1
    21    92    93   ar
    22    92    94   ar
    23    19    18    1
    24    38    37    1
    25    18    17    1
    26    37    39    1
    27    37    36    2
    28    35    36    1
    29    35    34    1
    30    17    14    1
    31    34    33    1
    32    33    30    1
    33    14    15    1
    34    14    13    1
    35    30    29    1
    36    30    31    1
    37    16    15    2
    38     9     7   ar
    39     9    11   ar
    40     7     6   ar
    41    15    24   am
    42    65    64    2
    43    32    31    2
    44    12    11    1
    45     2     1    1
    46     2     5    1
    47     2     3    1
    48    11    10   ar
    49    24    25    1
    50     6     5    1
    51     6     8   ar
    52    64    63    1
    53     4     3    2
    54    66    63    1
    55    66    67    1
    56    25    26    1
    57    25    28    1
    58    63    62    1
    59    75    74    1
    60    75    69    1
    61    74    73    1
    62    10     8   ar
    63    27    26    2
    64    69    70    1
    65    71    72    2
    66    71    70    1
    67    67    68    1
    68    58    57    2
    69    73    70    1
    70    62    57   am
    71    62    68    1
    72    57    56    1
    73    51    50    2
    74    43    42    2
    75    50    49    1
    76    50    55   am
    77    49    52    1
    78    49    48    1
    79    56    55    1
    80    56    59    1
    81    42    48   am
    82    42    41    1
    83    61    59    1
    84    52    53    1
    85    52    54    1
    86    60    59    1
    87    41    44    1
    88    41    40    1
    89    47    45    1
    90    44    45    1
    91    45    46    1
