@<TRIPOS>MOLECULE
tmp/4apnB04.pdb
 83 78 0 0 0
SMALL
GASTEIGER

@<TRIPOS>ATOM
      1  N        -58.8270   24.2370  -19.6900 N.3    21  TRP21      -0.1241
      2  CA       -58.0140   23.4350  -20.6000 C.3    21  TRP21       0.1605
      3  C        -58.6810   22.1070  -20.9470 C.2    21  TRP21       0.2264
      4  O        -58.8540   21.7860  -22.1220 O.2    21  TRP21      -0.2867
      5  CB       -56.6230   23.1990  -19.9990 C.3    21  TRP21       0.0550
      6  CG       -55.8370   22.1020  -20.6610 C.ar   21  TRP21       0.0003
      7  CD1      -55.7900   20.7860  -20.2910 C.ar   21  TRP21       0.0946
      8  CD2      -54.9870   22.2280  -21.8040 C.ar   21  TRP21       0.0152
      9  NE1      -54.9670   20.0840  -21.1370 N.ar   21  TRP21      -0.2442
     10  CE2      -54.4590   20.9440  -22.0740 C.ar   21  TRP21       0.0810
     11  CE3      -54.6190   23.2990  -22.6290 C.ar   21  TRP21       0.0012
     12  CZ2      -53.5820   20.7020  -23.1360 C.ar   21  TRP21       0.0191
     13  CZ3      -53.7470   23.0590  -23.6860 C.ar   21  TRP21       0.0001
     14  CH2      -53.2390   21.7680  -23.9290 C.ar   21  TRP21       0.0015
     15  N        -51.3900   30.9150   -7.2780 N.3    52  CYS52      -0.1221
     16  CA       -50.3180   29.9210   -7.3470 C.3    52  CYS52       0.1808
     17  C        -49.0910   30.4280   -8.1070 C.2    52  CYS52       0.2601
     18  O        -47.9870   30.4710   -7.5580 O.2    52  CYS52      -0.2717
     19  CB       -50.8360   28.6300   -7.9860 C.3    52  CYS52       0.0970
     20  SG       -49.5630   27.3960   -8.3820 S.3    52  CYS52      -0.0800
     21  N        -49.3020   30.8210   -9.3620 N.am   53  VAL53      -0.1979
     22  CA       -48.2250   31.2500  -10.2560 C.3    53  VAL53       0.1595
     23  C        -47.6960   32.6400   -9.9000 C.2    53  VAL53       0.2287
     24  O        -46.4870   32.8430   -9.7840 O.2    53  VAL53      -0.2864
     25  CB       -48.6960   31.2390  -11.7370 C.3    53  VAL53       0.0276
     26  CG1      -47.6600   31.8770  -12.6540 C.3    53  VAL53       0.0022
     27  CG2      -49.0000   29.8260  -12.1900 C.3    53  VAL53       0.0022
     28  N        -45.5090   29.4090   -6.3400 N.3    58  VAL58      -0.1245
     29  CA       -44.3160   29.4690   -7.1840 C.3    58  VAL58       0.1561
     30  C        -43.2860   30.5060   -6.7060 C.2    58  VAL58       0.2260
     31  O        -42.1580   30.1280   -6.3730 O.2    58  VAL58      -0.2867
     32  CB       -44.6730   29.6410   -8.6900 C.3    58  VAL58       0.0252
     33  CG1      -43.4130   29.7720   -9.5360 C.3    58  VAL58       0.0019
     34  CG2      -45.5170   28.4690   -9.1760 C.3    58  VAL58       0.0019
     35  N        -43.7960   32.2780  -17.0000 N.3   106  ILE106     -0.1245
     36  CA       -44.9650   31.4050  -16.8860 C.3   106  ILE106      0.1561
     37  C        -46.2130   32.1500  -17.3600 C.2   106  ILE106      0.2260
     38  O        -47.1030   31.5530  -17.9670 O.2   106  ILE106     -0.2867
     39  CB       -45.1570   30.8490  -15.4480 C.3   106  ILE106      0.0252
     40  CG1      -43.8670   30.1910  -14.9520 C.3   106  ILE106      0.0019
     41  CG2      -46.2880   29.8200  -15.4120 C.3   106  ILE106      0.0019
     42  CD1      -43.8570   29.8580  -13.4720 C.3   106  ILE106      0.0001
     43  N        -46.1920   31.6980  -21.1510 N.3   109  SER109     -0.1202
     44  CA       -46.5130   30.3580  -21.6450 C.3   109  SER109      0.2020
     45  C        -48.0080   30.0450  -21.5540 C.2   109  SER109      0.2618
     46  O        -48.5290   29.2510  -22.3390 O.2   109  SER109     -0.2717
     47  CB       -45.7000   29.2960  -20.9070 C.3   109  SER109      0.2103
     48  OG       -46.0110   29.2980  -19.5250 O.3   109  SER109     -0.2182
     49  N        -48.6890   30.6610  -20.5910 N.am  110  TYR110     -0.1975
     50  CA       -50.1420   30.5530  -20.4960 C.3   110  TYR110      0.1639
     51  C        -50.8090   31.3860  -21.5850 C.2   110  TYR110      0.2290
     52  O        -51.8780   31.0260  -22.0820 O.2   110  TYR110     -0.2864
     53  CB       -50.6440   30.9880  -19.1160 C.3   110  TYR110      0.0560
     54  CG       -50.6500   29.8890  -18.0740 C.ar  110  TYR110     -0.0198
     55  CD1      -51.5870   28.8590  -18.1250 C.ar  110  TYR110     -0.0009
     56  CD2      -49.7290   29.8880  -17.0310 C.ar  110  TYR110     -0.0009
     57  CE1      -51.5970   27.8490  -17.1690 C.ar  110  TYR110      0.0417
     58  CE2      -49.7330   28.8850  -16.0680 C.ar  110  TYR110      0.0417
     59  CZ       -50.6690   27.8700  -16.1430 C.ar  110  TYR110      0.1957
     60  OH       -50.6760   26.8770  -15.1920 O.3   110  TYR110     -0.2866
     61  N        -50.5760   29.4620  -24.7300 N.3   113  MET113     -0.1245
     62  CA       -51.4630   28.3010  -24.6310 C.3   113  MET113      0.1570
     63  C        -52.8250   28.6150  -25.2400 C.2   113  MET113      0.2261
     64  O        -53.4000   27.7850  -25.9440 O.2   113  MET113     -0.2867
     65  CB       -51.6310   27.8600  -23.1730 C.3   113  MET113      0.0387
     66  CG       -52.6560   26.7390  -22.9680 C.3   113  MET113      0.0595
     67  SD       -53.3170   26.6080  -21.2890 S.3   113  MET113     -0.1393
     68  CE       -54.2480   28.1260  -21.1380 C.3   113  MET113      0.0692
     69  N        -53.3940   24.4470   -3.8830 N.3   335  THR335     -0.1218
     70  CA       -53.3350   24.4160   -5.3470 C.3   335  THR335      0.1862
     71  C        -53.7240   23.0580   -5.9520 C.2   335  THR335      0.2287
     72  O        -54.5570   23.0180   -6.8580 O.2   335  THR335     -0.2866
     73  CB       -51.9610   24.9150   -5.8760 C.3   335  THR335      0.1770
     74  OG1      -51.9220   26.3440   -5.8030 O.3   335  THR335     -0.2211
     75  CG2      -51.7190   24.4860   -7.3210 C.3   335  THR335      0.0375
     76  N        -56.9810   22.0250   -8.4010 N.3   339  ILE339     -0.1245
     77  CA       -56.7340   21.3320   -9.6640 C.3   339  ILE339      0.1561
     78  C        -57.5810   20.0680   -9.7490 C.2   339  ILE339      0.2260
     79  O        -58.2430   19.8300  -10.7570 O.2   339  ILE339     -0.2867
     80  CB       -55.2290   21.0090   -9.8600 C.3   339  ILE339      0.0252
     81  CG1      -54.4480   22.2960  -10.1480 C.3   339  ILE339      0.0019
     82  CG2      -55.0230   19.9940  -10.9900 C.3   339  ILE339      0.0019
     83  CD1      -52.9370   22.1400  -10.1370 C.3   339  ILE339      0.0001
@<TRIPOS>BOND
     1    64    63    2
     2    63    62    1
     3    61    62    1
     4    62    65    1
     5    14    13   ar
     6    14    12   ar
     7    13    11   ar
     8    65    66    1
     9    12    10   ar
    10    66    67    1
    11    11     8   ar
    12    46    45    2
    13     4     3    2
    14    52    51    2
    15    10     8   ar
    16    10     9   ar
    17     8     6   ar
    18    44    45    1
    19    44    43    1
    20    44    47    1
    21    51    50    1
    22    45    49   am
    23    67    68    1
    24     9     7   ar
    25     3     2    1
    26    47    48    1
    27     6     7   ar
    28     6     5    1
    29     2     5    1
    30     2     1    1
    31    49    50    1
    32    50    53    1
    33    53    54    1
    34    55    54   ar
    35    55    57   ar
    36    54    56   ar
    37    38    37    2
    38    37    36    1
    39    57    59   ar
    40    56    58   ar
    41    35    36    1
    42    36    39    1
    43    59    58   ar
    44    59    60    1
    45    39    41    1
    46    39    40    1
    47    40    42    1
    48    26    25    1
    49    27    25    1
    50    25    22    1
    51    82    80    1
    52    79    78    2
    53    22    23    1
    54    22    21    1
    55    81    83    1
    56    81    80    1
    57    23    24    2
    58    80    77    1
    59    78    77    1
    60    77    76    1
    61    33    32    1
    62    21    17   am
    63    34    32    1
    64    32    29    1
    65    20    19    1
    66    17    18    2
    67    17    16    1
    68    19    16    1
    69    16    15    1
    70    75    73    1
    71    29    30    1
    72    29    28    1
    73    72    71    2
    74    30    31    2
    75    71    70    1
    76    73    74    1
    77    73    70    1
    78    70    69    1
