@<TRIPOS>MOLECULE
tmp/4apoB01.pdb
 103 97 0 0 0
SMALL
GASTEIGER

@<TRIPOS>ATOM
      1  N         34.0410    0.5330   20.9920 N.3    32  TYR32      -0.1241
      2  CA        33.8940    1.6180   20.0410 C.3    32  TYR32       0.1605
      3  C         35.2380    1.9150   19.3710 C.2    32  TYR32       0.2264
      4  O         35.3150    2.0500   18.1530 O.2    32  TYR32      -0.2867
      5  CB        33.3800    2.8590   20.7700 C.3    32  TYR32       0.0534
      6  CG        33.0460    4.0510   19.8910 C.ar   32  TYR32      -0.0201
      7  CD1       34.0240    4.9770   19.5280 C.ar   32  TYR32      -0.0009
      8  CD2       31.7400    4.2660   19.4500 C.ar   32  TYR32      -0.0009
      9  CE1       33.7060    6.0810   18.7500 C.ar   32  TYR32       0.0417
     10  CE2       31.4170    5.3540   18.6700 C.ar   32  TYR32       0.0417
     11  CZ        32.4070    6.2570   18.3200 C.ar   32  TYR32       0.1957
     12  OH        32.0720    7.3360   17.5520 O.3    32  TYR32      -0.2866
     13  N         36.2000   -1.0050   17.0210 N.3    35  ILE35      -0.1231
     14  CA        35.4140   -0.9170   15.8090 C.3    35  ILE35       0.1692
     15  C         35.8930    0.2260   14.9110 C.2    35  ILE35       0.2591
     16  O         35.9240    0.0910   13.7000 O.2    35  ILE35      -0.2718
     17  CB        33.9300   -0.7110   16.1320 C.3    35  ILE35       0.0266
     18  CG1       33.3830   -1.9350   16.8850 C.3    35  ILE35       0.0019
     19  CG2       33.1440   -0.4640   14.8610 C.3    35  ILE35       0.0020
     20  CD1       32.1970   -1.6060   17.8060 C.3    35  ILE35       0.0001
     21  N         36.2510    1.3560   15.5050 N.am   36  ALA36      -0.1980
     22  CA        36.7360    2.4850   14.7160 C.3    36  ALA36       0.1597
     23  C         38.0140    2.1310   13.9310 C.2    36  ALA36       0.2287
     24  O         38.1360    2.4610   12.7500 O.2    36  ALA36      -0.2864
     25  CB        36.9480    3.7120   15.6190 C.3    36  ALA36       0.0319
     26  N         36.9860   -0.1010   11.0700 N.3    39  LYS39      -0.1231
     27  CA        36.2880    0.6410   10.0270 C.3    39  LYS39       0.1693
     28  C         37.2460    1.4840    9.1790 C.2    39  LYS39       0.2592
     29  O         37.0880    1.5980    7.9560 O.2    39  LYS39      -0.2718
     30  CB        35.1690    1.4960   10.6220 C.3    39  LYS39       0.0285
     31  CG        34.1370    0.6700   11.3760 C.3    39  LYS39       0.0035
     32  CD        32.7880    1.3710   11.4900 C.3    39  LYS39       0.0206
     33  CE        32.9260    2.7930   11.9690 C.3    39  LYS39       0.1093
     34  NZ        31.6010    3.3960   12.2990 N.3    39  LYS39      -0.1314
     35  N         38.2530    2.0650    9.8150 N.am   40  ASN40      -0.1974
     36  CA        39.2340    2.8400    9.0620 C.3    40  ASN40       0.1688
     37  C         40.0510    1.9740    8.1000 C.2    40  ASN40       0.2292
     38  O         40.3880    2.4110    7.0030 O.2    40  ASN40      -0.2864
     39  CB        40.1400    3.6410    9.9970 C.3    40  ASN40       0.1181
     40  CG        39.4020    4.7880   10.6710 C.2    40  ASN40       0.2629
     41  OD1       38.4220    5.3030   10.1380 O.2    40  ASN40      -0.2716
     42  ND2       39.8700    5.1880   11.8420 N.am   40  ASN40      -0.0877
     43  N         34.3810   -7.0890   12.4990 N.3    59  ILE59      -0.1245
     44  CA        33.6030   -6.0390   13.1740 C.3    59  ILE59       0.1561
     45  C         32.3890   -6.5890   13.9290 C.2    59  ILE59       0.2260
     46  O         32.0810   -6.1470   15.0400 O.2    59  ILE59      -0.2867
     47  CB        33.1610   -4.9220   12.1730 C.3    59  ILE59       0.0252
     48  CG1       34.3530   -4.0410   11.7980 C.3    59  ILE59       0.0019
     49  CG2       32.0470   -4.0480   12.7660 C.3    59  ILE59       0.0019
     50  CD1       34.0800   -3.0930   10.6150 C.3    59  ILE59       0.0001
     51  N         30.8720   -5.1880   17.4090 N.3    63  LEU63      -0.1245
     52  CA        29.7180   -4.2940   17.3460 C.3    63  LEU63       0.1561
     53  C         28.5760   -4.8310   18.2290 C.2    63  LEU63       0.2260
     54  O         27.8900   -4.0670   18.9180 O.2    63  LEU63      -0.2867
     55  CB        29.2740   -4.0960   15.8880 C.3    63  LEU63       0.0270
     56  CG        28.0930   -3.1710   15.5720 C.3    63  LEU63       0.0019
     57  CD1       28.2940   -1.7970   16.1820 C.3    63  LEU63       0.0001
     58  CD2       27.8960   -3.0600   14.0520 C.3    63  LEU63       0.0001
     59  N         29.4580   -3.9910   21.7690 N.3    66  TYR66      -0.1241
     60  CA        29.0900   -2.5970   21.9710 C.3    66  TYR66       0.1605
     61  C         27.5790   -2.5300   22.2260 C.2    66  TYR66       0.2264
     62  O         27.1210   -1.8570   23.1510 O.2    66  TYR66      -0.2867
     63  CB        29.4980   -1.7800   20.7280 C.3    66  TYR66       0.0534
     64  CG        29.1250   -0.3080   20.7720 C.ar   66  TYR66      -0.0201
     65  CD1       29.8460    0.6010   21.5580 C.ar   66  TYR66      -0.0009
     66  CD2       28.0780    0.1740   20.0130 C.ar   66  TYR66      -0.0009
     67  CE1       29.5140    1.9520   21.5900 C.ar   66  TYR66       0.0417
     68  CE2       27.7390    1.5180   20.0310 C.ar   66  TYR66       0.0417
     69  CZ        28.4540    2.4010   20.8230 C.ar   66  TYR66       0.1957
     70  OH        28.1060    3.7270   20.8150 O.3    66  TYR66      -0.2866
     71  N         20.5260    2.9850   19.3000 N.3    78  GLU78      -0.1245
     72  CA        21.6540    2.4760   18.5050 C.3    78  GLU78       0.1567
     73  C         21.6120    0.9590   18.4190 C.2    78  GLU78       0.2260
     74  O         22.0200    0.3960   17.4210 O.2    78  GLU78      -0.2867
     75  CB        23.0350    2.9330   19.0180 C.3    78  GLU78       0.0388
     76  CG        23.2960    4.4190   18.8470 C.3    78  GLU78       0.1160
     77  CD        24.7590    4.8090   19.0160 C.2    78  GLU78       0.3649
     78  OE1       25.5820    3.9480   19.3970 O.co2  78  GLU78      -0.2457
     79  OE2       25.0850    5.9910   18.7670 O.co2  78  GLU78      -0.2457
     80  N         19.5060    0.0290   15.4780 N.3    81  ASP81      -0.1225
     81  CA        20.1390    0.3100   14.1820 C.3    81  ASP81       0.1805
     82  C         21.3160   -0.6070   13.8740 C.2    81  ASP81       0.2597
     83  O         21.4100   -1.1550   12.7690 O.2    81  ASP81      -0.2718
     84  CB        20.5380    1.7840   14.0730 C.3    81  ASP81       0.1424
     85  CG        19.3400    2.6830   13.9180 C.2    81  ASP81       0.3668
     86  OD1       18.3000    2.1840   13.4460 O.co2  81  ASP81      -0.2456
     87  OD2       19.4230    3.8720   14.2720 O.co2  81  ASP81      -0.2456
     88  N         22.1970   -0.8060   14.8500 N.am   82  HIS82      -0.1975
     89  CA        23.3600   -1.6650   14.6310 C.3    82  HIS82       0.1656
     90  C         22.9920   -3.1230   14.4130 C.2    82  HIS82       0.2291
     91  O         23.5640   -3.7800   13.5400 O.2    82  HIS82      -0.2864
     92  CB        24.3690   -1.5370   15.7710 C.3    82  HIS82       0.0771
     93  CG        25.0080   -0.1870   15.8580 C.ar   82  HIS82       0.0820
     94  ND1       25.4440    0.5040   14.7470 N.ar   82  HIS82      -0.2267
     95  CD2       25.2940    0.5970   16.9260 C.ar   82  HIS82       0.1154
     96  CE1       25.9680    1.6560   15.1270 C.ar   82  HIS82       0.1986
     97  NE2       25.8930    1.7340   16.4440 N.ar   82  HIS82      -0.2212
     98  N         21.5250   -3.4090   10.9480 N.3    85  SER85      -0.1217
     99  CA        22.6060   -3.3600    9.9730 C.3    85  SER85       0.1889
    100  C         23.2860   -4.7220    9.8540 C.2    85  SER85       0.2288
    101  O         23.4750   -5.2470    8.7490 O.2    85  SER85      -0.2866
    102  CB        23.6280   -2.2700   10.3440 C.3    85  SER85       0.2089
    103  OG        24.7760   -2.3750    9.5230 O.3    85  SER85      -0.2183
@<TRIPOS>BOND
     1    38    37    2
     2    29    28    2
     3    37    36    1
     4   101   100    2
     5    36    35    1
     6    36    39    1
     7    28    35   am
     8    28    27    1
     9   103   102    1
    10   100    99    1
    11    99   102    1
    12    99    98    1
    13    39    40    1
    14    27    30    1
    15    27    26    1
    16    41    40    2
    17    50    48    1
    18    30    31    1
    19    40    42   am
    20    31    32    1
    21    32    33    1
    22    48    47    1
    23    33    34    1
    24    47    49    1
    25    47    44    1
    26    43    44    1
    27    24    23    2
    28    83    82    2
    29    44    45    1
    30    86    85   ar
    31    91    90    2
    32    16    15    2
    33    82    81    1
    34    82    88   am
    35    85    84    1
    36    85    87   ar
    37    45    46    2
    38    23    22    1
    39    58    56    1
    40    84    81    1
    41    81    80    1
    42    90    89    1
    43    89    88    1
    44    89    92    1
    45    22    21    1
    46    22    25    1
    47    94    96   ar
    48    94    93   ar
    49    19    17    1
    50    15    21   am
    51    15    14    1
    52    96    97   ar
    53    56    55    1
    54    56    57    1
    55    92    93    1
    56    14    17    1
    57    14    13    1
    58    93    95   ar
    59    55    52    1
    60    17    18    1
    61    97    95   ar
    62    18    20    1
    63    52    51    1
    64    52    53    1
    65    74    73    2
    66    12    11    1
    67     4     3    2
    68    53    54    2
    69    11    10   ar
    70    11     9   ar
    71    73    72    1
    72    72    75    1
    73    72    71    1
    74    10     8   ar
    75     9     7   ar
    76    79    77   ar
    77    76    77    1
    78    76    75    1
    79    77    78   ar
    80     3     2    1
    81     8     6   ar
    82     7     6   ar
    83     6     5    1
    84    66    68   ar
    85    66    64   ar
    86    68    69   ar
    87     2     5    1
    88     2     1    1
    89    63    64    1
    90    63    60    1
    91    64    65   ar
    92    70    69    1
    93    69    67   ar
    94    65    67   ar
    95    59    60    1
    96    60    61    1
    97    61    62    2
