@<TRIPOS>MOLECULE
tmp/4appA00.pdb
 216 205 0 0 0
SMALL
GASTEIGER

@<TRIPOS>ATOM
      1  N         52.3760   16.4400   18.7820 N.3    29  ILE29      -0.1245
      2  CA        51.1760   15.6310   18.5970 C.3    29  ILE29       0.1561
      3  C         50.5180   15.9150   17.2530 C.2    29  ILE29       0.2260
      4  O         49.6170   15.1960   16.8290 O.2    29  ILE29      -0.2867
      5  CB        50.1310   15.9010   19.6980 C.3    29  ILE29       0.0252
      6  CG1       49.7200   17.3980   19.7290 C.3    29  ILE29       0.0019
      7  CG2       50.7380   15.4680   21.0240 C.3    29  ILE29       0.0019
      8  CD1       48.5780   17.7080   20.6860 C.3    29  ILE29       0.0001
      9  N         50.1620   19.3020   13.9490 N.3    31  GLU31      -0.1231
     10  CA        50.5680   20.5780   13.3780 C.3    31  GLU31       0.1699
     11  C         49.3890   21.3390   12.7860 C.2    31  GLU31       0.2593
     12  O         48.2910   20.7960   12.6440 O.2    31  GLU31      -0.2718
     13  CB        51.6620   20.3650   12.3120 C.3    31  GLU31       0.0402
     14  CG        51.5530   19.3970   11.1550 C.3    31  GLU31       0.1161
     15  CD        52.8930   19.1820   10.4710 C.2    31  GLU31       0.3649
     16  OE1       53.8420   18.7300   11.1480 O.co2  31  GLU31      -0.2457
     17  OE2       52.9990   19.4690    9.2600 O.co2  31  GLU31      -0.2457
     18  N         49.6260   22.6040   12.4540 N.am   32  GLY32      -0.1942
     19  CA        48.5730   23.4260   11.8950 C.3    32  GLY32       0.2014
     20  C         48.9470   24.1460   10.6160 C.2    32  GLY32       0.2640
     21  O         49.9260   23.8040    9.9470 O.2    32  GLY32      -0.2714
     22  N         48.1510   25.1580   10.2890 N.am   33  SER33      -0.1935
     23  CA        48.3350   25.9560    9.0870 C.3    33  SER33       0.2055
     24  C         49.6940   26.6480    8.9640 C.2    33  SER33       0.2644
     25  O         50.0820   27.0570    7.8680 O.2    33  SER33      -0.2714
     26  CB        47.2020   27.0140    8.9970 C.3    33  SER33       0.2130
     27  OG        47.3740   27.8690    7.8820 O.3    33  SER33      -0.2179
     28  N         50.4270   26.7760   10.0650 N.am   34  THR34      -0.1936
     29  CA        51.7150   27.4530    9.9870 C.3    34  THR34       0.2028
     30  C         52.6800   27.1250   11.1310 C.2    34  THR34       0.2643
     31  O         53.5520   27.9260   11.4730 O.2    34  THR34      -0.2714
     32  CB        51.4880   28.9820    9.9180 C.3    34  THR34       0.1808
     33  OG1       52.7340   29.6520    9.6950 O.3    34  THR34      -0.2208
     34  CG2       50.8610   29.4680   11.2220 C.3    34  THR34       0.0379
     35  N         52.5270   25.9410   11.7140 N.am   35  GLY35      -0.1939
     36  CA        53.3950   25.5440   12.8060 C.3    35  GLY35       0.2014
     37  C         53.0640   24.1540   13.3110 C.2    35  GLY35       0.2639
     38  O         52.4780   23.3460   12.5880 O.2    35  GLY35      -0.2714
     39  N         53.4320   23.8740   14.5560 N.am   36  ILE36      -0.1963
     40  CA        53.1650   22.5700   15.1470 C.3    36  ILE36       0.1727
     41  C         52.4760   22.6780   16.5080 C.2    36  ILE36       0.2616
     42  O         52.4580   23.7440   17.1320 O.2    36  ILE36      -0.2715
     43  CB        54.4990   21.7270   15.3220 C.3    36  ILE36       0.0290
     44  CG1       55.5000   22.3540   16.3070 C.3    36  ILE36       0.0022
     45  CG2       55.1440   21.6160   13.9460 C.3    36  ILE36       0.0023
     46  CD1       56.6900   21.4590   16.6190 C.3    36  ILE36       0.0001
     47  N         51.8970   21.5670   16.9520 N.am   37  VAL37      -0.1977
     48  CA        51.2210   21.5140   18.2390 C.3    37  VAL37       0.1596
     49  C         51.9000   20.4420   19.0690 C.2    37  VAL37       0.2287
     50  O         52.2030   19.3600   18.5730 O.2    37  VAL37      -0.2864
     51  CB        49.7780   21.0600   18.1360 C.3    37  VAL37       0.0276
     52  CG1       49.1660   21.2910   19.5060 C.3    37  VAL37       0.0022
     53  CG2       49.0030   21.7770   17.0810 C.3    37  VAL37       0.0022
     54  N         48.5840   22.1110   26.1810 N.3    50  ALA50      -0.1245
     55  CA        48.9470   22.0330   24.7750 C.3    50  ALA50       0.1562
     56  C         49.7010   23.2950   24.3890 C.2    50  ALA50       0.2260
     57  O         49.3380   24.3890   24.8120 O.2    50  ALA50      -0.2867
     58  CB        47.7000   21.8830   23.9120 C.3    50  ALA50       0.0290
     59  N         51.1460   25.5610   21.1400 N.3    52  LYS52      -0.1231
     60  CA        51.1280   25.8210   19.7150 C.3    52  LYS52       0.1693
     61  C         52.3720   26.6340   19.3560 C.2    52  LYS52       0.2592
     62  O         52.5000   27.7900   19.7580 O.2    52  LYS52      -0.2718
     63  CB        49.8630   26.5950   19.3490 C.3    52  LYS52       0.0285
     64  CG        49.7490   27.0150   17.9020 C.3    52  LYS52       0.0035
     65  CD        48.3940   27.6340   17.5760 C.3    52  LYS52       0.0206
     66  CE        48.1060   28.8860   18.3790 C.3    52  LYS52       0.1093
     67  NZ        46.7800   29.4700   18.0250 N.3    52  LYS52      -0.1314
     68  N         53.2920   26.0200   18.6180 N.am   53  LYS53      -0.1966
     69  CA        54.5190   26.6920   18.1900 C.3    53  LYS53       0.1728
     70  C         54.3550   27.1430   16.7400 C.2    53  LYS53       0.2616
     71  O         54.2480   26.3170   15.8350 O.2    53  LYS53      -0.2715
     72  CB        55.7210   25.7460   18.3040 C.3    53  LYS53       0.0311
     73  CG        56.0410   25.3010   19.7170 C.3    53  LYS53       0.0038
     74  CD        57.3070   24.4690   19.7820 C.3    53  LYS53       0.0206
     75  CE        57.6480   24.0330   21.1960 C.3    53  LYS53       0.1093
     76  NZ        58.9540   23.3130   21.2480 N.3    53  LYS53      -0.1314
     77  N         54.3430   28.4560   16.5270 N.am   54  MET54      -0.1977
     78  CA        54.1610   29.0180   15.1930 C.3    54  MET54       0.1605
     79  C         55.4200   29.6300   14.5850 C.2    54  MET54       0.2287
     80  O         56.1310   30.3960   15.2350 O.2    54  MET54      -0.2864
     81  CB        53.0630   30.0790   15.2360 C.3    54  MET54       0.0413
     82  CG        51.8360   29.4100   15.8100 C.3    54  MET54       0.0598
     83  SD        50.5340   30.5920   16.1040 S.3    54  MET54      -0.1393
     84  CE        49.8410   30.6970   14.4480 C.3    54  MET54       0.0692
     85  N         37.9960   27.8560   23.5910 N.3    81  VAL81      -0.1245
     86  CA        39.2530   27.3090   24.0980 C.3    81  VAL81       0.1561
     87  C         40.0350   28.4170   24.7990 C.2    81  VAL81       0.2260
     88  O         40.1560   29.5280   24.2830 O.2    81  VAL81      -0.2867
     89  CB        40.1200   26.7140   22.9560 C.3    81  VAL81       0.0252
     90  CG1       41.4480   26.1530   23.4700 C.3    81  VAL81       0.0019
     91  CG2       39.2910   25.6040   22.2990 C.3    81  VAL81       0.0019
     92  N         48.0310   26.6490   25.6690 N.3    97  MET97      -0.1230
     93  CA        46.5770   26.5940   25.7760 C.3    97  MET97       0.1702
     94  C         46.1050   25.3210   26.4580 C.2    97  MET97       0.2592
     95  O         46.8950   24.4120   26.7060 O.2    97  MET97      -0.2718
     96  CB        45.9670   26.6460   24.4030 C.3    97  MET97       0.0401
     97  CG        46.4870   27.8120   23.5880 C.3    97  MET97       0.0596
     98  SD        45.8300   27.7550   21.9330 S.3    97  MET97      -0.1393
     99  CE        44.2340   28.5150   22.1920 C.3    97  MET97       0.0692
    100  N         44.8090   25.2540   26.7480 N.am   98  GLU98      -0.1966
    101  CA        44.2590   24.0700   27.3850 C.3    98  GLU98       0.1733
    102  C         44.3090   22.8920   26.4260 C.2    98  GLU98       0.2616
    103  O         44.2190   23.0520   25.2080 O.2    98  GLU98      -0.2715
    104  CB        42.7830   24.3040   27.8440 C.3    98  GLU98       0.0429
    105  CG        41.7740   24.7410   26.8140 C.3    98  GLU98       0.1163
    106  CD        40.3560   24.7670   27.3580 C.2    98  GLU98       0.3649
    107  OE1       39.9910   23.8640   28.1440 O.co2  98  GLU98      -0.2457
    108  OE2       39.6020   25.6900   26.9860 O.co2  98  GLU98      -0.2457
    109  N         44.4730   21.7070   26.9910 N.am   99  PHE99      -0.1960
    110  CA        44.5110   20.4960   26.2010 C.3    99  PHE99       0.1771
    111  C         43.1040   19.9060   26.1910 C.2    99  PHE99       0.2619
    112  O         42.5350   19.6300   27.2480 O.2    99  PHE99      -0.2715
    113  CB        45.5180   19.4830   26.8200 C.3    99  PHE99       0.0574
    114  CG        45.5600   18.1560   26.1140 C.ar   99  PHE99      -0.0200
    115  CD1       45.7700   18.0900   24.7400 C.ar   99  PHE99      -0.0042
    116  CD2       45.3800   16.9720   26.8210 C.ar   99  PHE99      -0.0042
    117  CE1       45.7960   16.8610   24.0760 C.ar   99  PHE99      -0.0003
    118  CE2       45.4040   15.7350   26.1660 C.ar   99  PHE99      -0.0003
    119  CZ        45.6110   15.6820   24.7930 C.ar   99  PHE99      -0.0000
    120  N         42.5410   19.7440   24.9960 N.am  100  LEU100     -0.1963
    121  CA        41.2120   19.1630   24.8530 C.3   100  LEU100      0.1728
    122  C         41.3320   17.7430   24.3060 C.2   100  LEU100      0.2616
    123  O         41.6810   17.5320   23.1430 O.2   100  LEU100     -0.2715
    124  CB        40.3370   20.0270   23.9430 C.3   100  LEU100      0.0311
    125  CG        39.7810   21.3000   24.6280 C.3   100  LEU100      0.0022
    126  CD1       40.7200   22.4710   24.4000 C.3   100  LEU100      0.0001
    127  CD2       38.4140   21.6090   24.0690 C.3   100  LEU100      0.0001
    128  N         41.0310   16.7810   25.1720 N.am  101  GLU101     -0.1963
    129  CA        41.1300   15.3570   24.8700 C.3   101  GLU101      0.1733
    130  C         40.2520   14.8090   23.7480 C.2   101  GLU101      0.2617
    131  O         40.6410   13.8620   23.0670 O.2   101  GLU101     -0.2715
    132  CB        40.8660   14.5400   26.1610 C.3   101  GLU101      0.0429
    133  CG        41.6620   15.1010   27.3290 C.3   101  GLU101      0.1163
    134  CD        40.8820   16.1210   28.1500 C.2   101  GLU101      0.3649
    135  OE1       40.0010   16.8160   27.5920 O.co2 101  GLU101     -0.2457
    136  OE2       41.1630   16.2380   29.3620 O.co2 101  GLU101     -0.2457
    137  N         39.0770   15.3970   23.5590 N.am  102  GLY102     -0.1940
    138  CA        38.1620   14.9240   22.5360 C.3   102  GLY102      0.2014
    139  C         38.5450   15.1350   21.0830 C.2   102  GLY102      0.2639
    140  O         37.8950   14.5870   20.1980 O.2   102  GLY102     -0.2714
    141  N         39.5830   15.9220   20.8200 N.am  103  GLY103     -0.1939
    142  CA        39.9890   16.1550   19.4440 C.3   103  GLY103      0.2014
    143  C         39.0980   17.1430   18.7040 C.2   103  GLY103      0.2638
    144  O         38.2760   17.8240   19.3230 O.2   103  GLY103     -0.2714
    145  N         39.2660   17.2200   17.3830 N.am  104  ALA104     -0.1977
    146  CA        38.4830   18.1290   16.5490 C.3   104  ALA104      0.1597
    147  C         37.2800   17.4440   15.9040 C.2   104  ALA104      0.2287
    148  O         37.2660   16.2320   15.7090 O.2   104  ALA104     -0.2864
    149  CB        39.3680   18.7470   15.4670 C.3   104  ALA104      0.0319
    150  N         37.5880   14.9540   12.5630 N.3   107  ASP107     -0.1239
    151  CA        37.7830   13.5090   12.6520 C.3   107  ASP107      0.1674
    152  C         36.4710   12.7520   12.8370 C.2   107  ASP107      0.2266
    153  O         36.3630   11.5800   12.4760 O.2   107  ASP107     -0.2867
    154  CB        38.7580   13.1670   13.8290 C.3   107  ASP107      0.1410
    155  CG        39.0920   11.6850   13.7150 C.2   107  ASP107      0.3668
    156  OD1       39.6790   11.2920   12.6850 O.co2 107  ASP107     -0.2456
    157  OD2       38.7670   10.9160   14.6460 O.co2 107  ASP107     -0.2456
    158  N         34.6270   26.1240   11.0130 N.3   144  LYS144     -0.1245
    159  CA        34.6390   24.8690   10.2610 C.3   144  LYS144      0.1561
    160  C         34.9090   23.7690   11.2820 C.2   144  LYS144      0.2260
    161  O         35.3650   24.0510   12.3910 O.2   144  LYS144     -0.2867
    162  CB        35.7750   24.8780    9.1390 C.3   144  LYS144      0.0271
    163  CG        37.2010   25.0220    9.6610 C.3   144  LYS144      0.0035
    164  CD        38.2390   25.1350    8.5410 C.3   144  LYS144      0.0206
    165  CE        39.6610   25.2620    9.0830 C.3   144  LYS144      0.1093
    166  NZ        40.6860   25.4450    8.0200 N.3   144  LYS144     -0.1314
    167  N         37.2640   21.7160   11.7340 N.3   146  ASP146     -0.1239
    168  CA        38.6390   21.7260   12.2490 C.3   146  ASP146      0.1674
    169  C         38.8270   22.6790   13.4230 C.2   146  ASP146      0.2266
    170  O         39.6530   22.4330   14.3010 O.2   146  ASP146     -0.2867
    171  CB        39.6190   22.1450   11.1680 C.3   146  ASP146      0.1410
    172  CG        39.4810   21.4260    9.8560 C.2   146  ASP146      0.3668
    173  OD1       38.4140   21.5600    9.2170 O.co2 146  ASP146     -0.2456
    174  OD2       40.4420   20.7290    9.4680 O.co2 146  ASP146     -0.2456
    175  N         36.8570   21.9590   18.9170 N.3   149  LEU149     -0.1245
    176  CA        37.4960   20.9470   19.7560 C.3   149  LEU149      0.1561
    177  C         36.5550   20.4400   20.8430 C.2   149  LEU149      0.2260
    178  O         35.6010   21.1210   21.2130 O.2   149  LEU149     -0.2867
    179  CB        38.8060   21.5220   20.4010 C.3   149  LEU149      0.0270
    180  CG        39.8920   21.9190   19.3830 C.3   149  LEU149      0.0019
    181  CD1       41.1540   22.3980   20.1050 C.3   149  LEU149      0.0001
    182  CD2       40.2090   20.7240   18.5090 C.3   149  LEU149      0.0001
    183  N         37.8860   27.1320   18.6920 N.3   159  SER159     -0.1202
    184  CA        39.2960   27.4920   18.7210 C.3   159  SER159      0.2020
    185  C         39.7270   28.0540   17.3720 C.2   159  SER159      0.2618
    186  O         38.8940   28.3230   16.5050 O.2   159  SER159     -0.2717
    187  CB        40.1630   26.2600   19.0730 C.3   159  SER159      0.2103
    188  OG        40.0790   25.2770   18.0560 O.3   159  SER159     -0.2182
    189  N         41.0360   28.2190   17.2110 N.am  160  ASP160     -0.1973
    190  CA        41.6220   28.7490   15.9870 C.3   160  ASP160      0.1709
    191  C         41.1120   30.1270   15.6040 C.2   160  ASP160      0.2293
    192  O         40.4880   30.2930   14.5550 O.2   160  ASP160     -0.2864
    193  CB        41.4020   27.7670   14.7870 C.3   160  ASP160      0.1436
    194  CG        42.3950   26.6330   14.9120 C.2   160  ASP160      0.3671
    195  OD1       43.4520   26.8420   15.5460 O.co2 160  ASP160     -0.2456
    196  OD2       42.1260   25.5410   14.3660 O.co2 160  ASP160     -0.2456
    197  N         37.0860    9.3830   18.5480 N.3   287  ARG287     -0.1231
    198  CA        37.8220    8.2550   17.9790 C.3   287  ARG287      0.1694
    199  C         38.1580    7.1940   19.0230 C.2   287  ARG287      0.2591
    200  O         37.9730    6.0050   18.7900 O.2   287  ARG287     -0.2718
    201  CB        39.1370    8.7510   17.2970 C.3   287  ARG287      0.0321
    202  CG        39.9760    7.6200   16.6820 C.3   287  ARG287      0.0489
    203  CD        41.2210    8.1310   15.9550 C.3   287  ARG287      0.2205
    204  NE        40.9230    8.7380   14.6560 N.pl3 287  ARG287     -0.0865
    205  CZ        40.7960    8.0600   13.5190 C.cat 287  ARG287      0.5346
    206  NH1       40.9410    6.7410   13.5040 N.pl3 287  ARG287      0.1354
    207  NH2       40.5340    8.7000   12.3900 N.pl3 287  ARG287      0.1354
    208  N         38.6480    7.6270   20.1770 N.am  288  GLN288     -0.1979
    209  CA        39.0030    6.6910   21.2340 C.3   288  GLN288      0.1601
    210  C         37.8040    5.8930   21.7490 C.2   288  GLN288      0.2287
    211  O         37.9770    4.8840   22.4290 O.2   288  GLN288     -0.2864
    212  CB        39.6970    7.4460   22.4310 C.3   288  GLN288      0.0394
    213  CG        39.0920    8.6990   23.0670 C.3   288  GLN288      0.0908
    214  CD        39.4430    9.9720   22.3130 C.2   288  GLN288      0.2608
    215  OE1       39.0570   10.1530   21.1580 O.2   288  GLN288     -0.2717
    216  NE2       40.1860   10.8620   22.9660 N.am  288  GLN288     -0.0878
@<TRIPOS>BOND
     1    25    24    2
     2    27    26    1
     3   166   165    1
     4   164   165    1
     5   164   163    1
     6    24    23    1
     7    24    28   am
     8    26    23    1
     9    23    22    1
    10   162   163    1
    11   162   159    1
    12   173   172   ar
    13    17    15   ar
    14   174   172   ar
    15    33    32    1
    16   172   171    1
    17    32    29    1
    18    32    34    1
    19    21    20    2
    20    29    28    1
    21    29    30    1
    22   159   158    1
    23   159   160    1
    24    22    20   am
    25    15    16   ar
    26    15    14    1
    27    20    19    1
    28    30    31    2
    29    30    35   am
    30    14    13    1
    31   171   168    1
    32   160   161    2
    33    35    36    1
    34   167   168    1
    35    19    18    1
    36   168   169    1
    37    13    10    1
    38   207   205    1
    39    18    11   am
    40   153   152    2
    41   150   151    1
    42    38    37    2
    43    12    11    2
    44   151   152    1
    45   151   154    1
    46   156   155   ar
    47    11    10    1
    48    36    37    1
    49    37    39   am
    50    10     9    1
    51   169   170    2
    52   206   205    1
    53   205   204    2
    54   155   154    1
    55   155   157   ar
    56    45    43    1
    57   196   194   ar
    58    84    83    1
    59   192   191    2
    60    39    40    1
    61    79    78    1
    62    79    80    2
    63   204   203    1
    64   193   194    1
    65   193   190    1
    66   194   195   ar
    67    40    43    1
    68    40    41    1
    69    78    81    1
    70    78    77    1
    71    81    82    1
    72    43    44    1
    73   149   146    1
    74   191   190    1
    75   148   147    2
    76    82    83    1
    77    71    70    2
    78   147   146    1
    79   203   202    1
    80   190   189    1
    81    44    46    1
    82   186   185    2
    83    41    47   am
    84    41    42    2
    85    77    70   am
    86   146   145    1
    87   202   201    1
    88    70    69    1
    89     4     3    2
    90    47    48    1
    91    53    51    1
    92   189   185   am
    93     3     2    1
    94   201   198    1
    95   185   184    1
    96   145   143   am
    97    65    64    1
    98    65    66    1
    99    64    63    1
   100   198   197    1
   101   198   199    1
   102    67    66    1
   103   188   187    1
   104    51    48    1
   105    51    52    1
   106    69    72    1
   107    69    68    1
   108    48    49    1
   109    72    73    1
   110   182   180    1
   111    50    49    2
   112     2     1    1
   113     2     5    1
   114    68    61   am
   115   183   184    1
   116   143   144    2
   117   143   142    1
   118   184   187    1
   119   200   199    2
   120   175   176    1
   121   199   208   am
   122    63    60    1
   123    61    60    1
   124    61    62    2
   125   180   181    1
   126   180   179    1
   127   142   141    1
   128     5     6    1
   129     5     7    1
   130    60    59    1
   131    73    74    1
   132     6     8    1
   133   176   179    1
   134   176   177    1
   135    74    75    1
   136   208   209    1
   137   140   139    2
   138   141   139   am
   139   177   178    2
   140   139   138    1
   141   215   214    2
   142    75    76    1
   143   209   210    1
   144   209   212    1
   145   210   211    2
   146    98    99    1
   147    98    97    1
   148    91    89    1
   149   214   216   am
   150   214   213    1
   151   212   213    1
   152   138   137    1
   153    89    90    1
   154    89    86    1
   155   131   130    2
   156   123   122    2
   157   137   130   am
   158    97    96    1
   159    85    86    1
   160   130   129    1
   161    58    55    1
   162   124   125    1
   163   124   121    1
   164   127   125    1
   165   117   115   ar
   166   117   119   ar
   167    86    87    1
   168    88    87    2
   169   122   121    1
   170   122   128   am
   171    56    55    1
   172    56    57    2
   173   126   125    1
   174    96    93    1
   175   115   114   ar
   176    55    54    1
   177   119   118   ar
   178   121   120    1
   179   129   128    1
   180   129   132    1
   181   120   111   am
   182   103   102    2
   183    92    93    1
   184    93    94    1
   185   114   113    1
   186   114   116   ar
   187   132   133    1
   188   118   116   ar
   189   111   110    1
   190   111   112    2
   191   110   113    1
   192   110   109    1
   193   102   109   am
   194   102   101    1
   195    94    95    2
   196    94   100   am
   197   100   101    1
   198   105   106    1
   199   105   104    1
   200   108   106   ar
   201   133   134    1
   202   106   107   ar
   203   101   104    1
   204   135   134   ar
   205   134   136   ar
