@<TRIPOS>MOLECULE
tmp/4apqA03.pdb
 93 87 0 0 0
SMALL
GASTEIGER

@<TRIPOS>ATOM
      1  N          7.8740  -94.1150  -51.9000 N.3    64  MET64      -0.1245
      2  CA         6.6780  -94.5690  -52.5940 C.3    64  MET64       0.1570
      3  C          5.7040  -95.0920  -51.5370 C.2    64  MET64       0.2261
      4  O          4.6530  -94.4800  -51.3320 O.2    64  MET64      -0.2867
      5  CB         7.0900  -95.6430  -53.6070 C.3    64  MET64       0.0387
      6  CG         6.1250  -95.8750  -54.7260 C.3    64  MET64       0.0595
      7  SD         4.8780  -97.1170  -54.3550 S.3    64  MET64      -0.1393
      8  CE         5.8930  -98.5520  -53.7950 C.3    64  MET64       0.0692
      9  N          4.2910  -92.5190  -48.7540 N.3    67  VAL67      -0.1231
     10  CA         3.1690  -91.7840  -49.3420 C.3    67  VAL67       0.1692
     11  C          1.9110  -92.6550  -49.3620 C.2    67  VAL67       0.2592
     12  O          0.8520  -92.1980  -48.9410 O.2    67  VAL67      -0.2718
     13  CB         3.5560  -91.3040  -50.7650 C.3    67  VAL67       0.0266
     14  CG1        2.3340  -91.0200  -51.6400 C.3    67  VAL67       0.0020
     15  CG2        4.4830  -90.0950  -50.7080 C.3    67  VAL67       0.0020
     16  N          2.0360  -93.9070  -49.8420 N.am   68  TYR68      -0.1976
     17  CA         0.9430  -94.8720  -49.9570 C.3    68  TYR68       0.1639
     18  C          0.2030  -95.0790  -48.6150 C.2    68  TYR68       0.2290
     19  O         -1.0320  -95.0420  -48.5950 O.2    68  TYR68      -0.2864
     20  CB         1.4710  -96.2240  -50.4960 C.3    68  TYR68       0.0560
     21  CG         0.6300  -97.4210  -50.0920 C.ar   68  TYR68      -0.0198
     22  CD1       -0.5800  -97.6940  -50.7280 C.ar   68  TYR68      -0.0009
     23  CD2        1.0250  -98.2620  -49.0440 C.ar   68  TYR68      -0.0009
     24  CE1       -1.3730  -98.7770  -50.3440 C.ar   68  TYR68       0.0417
     25  CE2        0.2310  -99.3390  -48.6400 C.ar   68  TYR68       0.0417
     26  CZ        -0.9580  -99.6060  -49.3110 C.ar   68  TYR68       0.1957
     27  OH        -1.7460 -100.6820  -48.9740 O.3    68  TYR68      -0.2866
     28  N         -2.1810  -92.3940  -47.7160 N.3    71  SER71      -0.1202
     29  CA        -3.1930  -92.3280  -48.7530 C.3    71  SER71       0.2020
     30  C         -4.2230  -93.4170  -48.5400 C.2    71  SER71       0.2618
     31  O         -5.4180  -93.1300  -48.5550 O.2    71  SER71      -0.2717
     32  CB        -2.5480  -92.4230  -50.1300 C.3    71  SER71       0.2103
     33  OG        -1.4600  -91.5160  -50.2340 O.3    71  SER71      -0.2182
     34  N         -3.7620  -94.6420  -48.2540 N.am   72  PHE72      -0.1975
     35  CA        -4.5920  -95.8250  -47.9860 C.3    72  PHE72       0.1639
     36  C         -5.5010  -95.6060  -46.7680 C.2    72  PHE72       0.2290
     37  O         -6.7010  -95.8980  -46.8450 O.2    72  PHE72      -0.2864
     38  CB        -3.6890  -97.0590  -47.7740 C.3    72  PHE72       0.0560
     39  CG        -4.4270  -98.2710  -47.2850 C.ar   72  PHE72      -0.0200
     40  CD1       -4.6430  -98.4730  -45.9290 C.ar   72  PHE72      -0.0042
     41  CD2       -4.8960  -99.2190  -48.1730 C.ar   72  PHE72      -0.0042
     42  CE1       -5.3660  -99.5760  -45.4780 C.ar   72  PHE72      -0.0003
     43  CE2       -5.5900 -100.3420  -47.7180 C.ar   72  PHE72      -0.0003
     44  CZ        -5.8200 -100.5130  -46.3750 C.ar   72  PHE72      -0.0000
     45  N         -8.1540  -93.1050  -47.7030 N.3    75  ASP75      -0.1239
     46  CA        -9.0860  -93.6830  -48.6810 C.3    75  ASP75       0.1674
     47  C        -10.1010  -94.6140  -48.0000 C.2    75  ASP75       0.2266
     48  O        -11.2960  -94.4930  -48.2740 O.2    75  ASP75      -0.2867
     49  CB        -8.3530  -94.3880  -49.8180 C.3    75  ASP75       0.1410
     50  CG        -7.5410  -93.4790  -50.7370 C.2    75  ASP75       0.3668
     51  OD1       -7.6310  -92.2220  -50.5910 O.co2  75  ASP75      -0.2456
     52  OD2       -6.7980  -94.0140  -51.5850 O.co2  75  ASP75      -0.2456
     53  N         -8.9760  -94.8670  -60.7430 N.3   148  ASP148     -0.1239
     54  CA        -7.5730  -94.4020  -60.6100 C.3   148  ASP148      0.1674
     55  C         -6.6550  -95.2400  -61.5020 C.2   148  ASP148      0.2266
     56  O         -6.4090  -96.4000  -61.1980 O.2   148  ASP148     -0.2867
     57  CB        -7.0730  -94.4120  -59.1340 C.3   148  ASP148      0.1410
     58  CG        -5.7600  -93.6600  -58.8180 C.2   148  ASP148      0.3668
     59  OD1       -4.7910  -93.7580  -59.6210 O.co2 148  ASP148     -0.2456
     60  OD2       -5.6830  -93.0220  -57.7400 O.co2 148  ASP148     -0.2456
     61  N         -3.4230  -94.3440  -62.2390 N.3   150  GLY150     -0.1210
     62  CA        -2.0640  -94.1930  -61.7020 C.3   150  GLY150      0.1956
     63  C         -1.6650  -95.3050  -60.7460 C.2   150  GLY150      0.2612
     64  O         -0.5970  -95.9090  -60.8790 O.2   150  GLY150     -0.2717
     65  N         -2.5390  -95.5870  -59.7860 N.am  151  THR151     -0.1952
     66  CA        -2.3600  -96.6700  -58.8490 C.3   151  THR151      0.1897
     67  C         -2.2170  -97.9600  -59.6120 C.2   151  THR151      0.2313
     68  O         -1.2950  -98.7270  -59.3180 O.2   151  THR151     -0.2863
     69  CB        -3.5210  -96.7280  -57.9000 C.3   151  THR151      0.1794
     70  OG1       -3.4630  -95.5640  -57.1110 O.3   151  THR151     -0.2208
     71  CG2       -3.4580  -97.9220  -56.9850 C.3   151  THR151      0.0378
     72  N          1.2310  -98.0850  -61.0900 N.3   154  THR154     -0.1203
     73  CA         2.1990  -98.1860  -59.9930 C.3   154  THR154      0.1994
     74  C          2.2420  -99.6480  -59.5040 C.2   154  THR154      0.2617
     75  O          3.3140 -100.2340  -59.4200 O.2   154  THR154     -0.2717
     76  CB         1.8450  -97.1670  -58.8610 C.3   154  THR154      0.1784
     77  OG1        2.0320  -95.8230  -59.3110 O.3   154  THR154     -0.2211
     78  CG2        2.6680  -97.3700  -57.5950 C.3   154  THR154      0.0376
     79  N          1.0630 -100.2300  -59.2350 N.am  155  VAL155     -0.1979
     80  CA         0.8780 -101.5940  -58.7590 C.3   155  VAL155      0.1595
     81  C          1.3970 -102.5660  -59.8390 C.2   155  VAL155      0.2287
     82  O          2.3110 -103.3400  -59.5390 O.2   155  VAL155     -0.2864
     83  CB        -0.5990 -101.8260  -58.3370 C.3   155  VAL155      0.0276
     84  CG1       -0.9590 -103.2900  -58.2940 C.3   155  VAL155      0.0022
     85  CG2       -0.8860 -101.1890  -56.9810 C.3   155  VAL155      0.0022
     86  N          5.0500 -102.8820  -59.7630 N.3   158  LEU158     -0.1245
     87  CA         5.5830 -103.5790  -58.6080 C.3   158  LEU158      0.1561
     88  C          5.4730 -105.0770  -58.7860 C.2   158  LEU158      0.2260
     89  O          6.5060 -105.7440  -58.8810 O.2   158  LEU158     -0.2867
     90  CB         4.8890 -103.1250  -57.3200 C.3   158  LEU158      0.0270
     91  CG         5.2380 -101.7140  -56.8490 C.3   158  LEU158      0.0019
     92  CD1        4.0390 -101.0240  -56.2330 C.3   158  LEU158      0.0001
     93  CD2        6.3500 -101.7490  -55.8540 C.3   158  LEU158      0.0001
@<TRIPOS>BOND
     1    61    62    1
     2    62    63    1
     3    55    56    2
     4    55    54    1
     5    72    73    1
     6    64    63    2
     7    63    65   am
     8    53    54    1
     9    54    57    1
    10    73    74    1
    11    73    76    1
    12    81    82    2
    13    81    80    1
    14    65    66    1
    15    86    87    1
    16    59    58   ar
    17    67    68    2
    18    67    66    1
    19    74    75    2
    20    74    79   am
    21    77    76    1
    22    79    80    1
    23    57    58    1
    24    89    88    2
    25    76    78    1
    26    66    69    1
    27    58    60   ar
    28    88    87    1
    29    80    83    1
    30    87    90    1
    31    83    84    1
    32    83    85    1
    33    69    70    1
    34    69    71    1
    35    90    91    1
    36    91    92    1
    37    91    93    1
    38     6     7    1
    39     6     5    1
    40     7     8    1
    41     5     2    1
    42     2     1    1
    43     2     3    1
    44    14    13    1
    45    52    50   ar
    46     3     4    2
    47    13    15    1
    48    13    10    1
    49    50    51   ar
    50    50    49    1
    51    22    24   ar
    52    22    21   ar
    53    20    21    1
    54    20    17    1
    55    24    26   ar
    56    33    32    1
    57    32    29    1
    58    21    23   ar
    59    17    16    1
    60    17    18    1
    61    16    11   am
    62    49    46    1
    63    11    10    1
    64    11    12    2
    65    10     9    1
    66    26    27    1
    67    26    25   ar
    68    23    25   ar
    69    29    30    1
    70    29    28    1
    71    46    47    1
    72    46    45    1
    73    18    19    2
    74    31    30    2
    75    30    34   am
    76    48    47    2
    77    34    35    1
    78    41    43   ar
    79    41    39   ar
    80    35    38    1
    81    35    36    1
    82    38    39    1
    83    43    44   ar
    84    39    40   ar
    85    37    36    2
    86    44    42   ar
    87    40    42   ar
