@<TRIPOS>MOLECULE
tmp/4apuB00.pdb
 249 235 0 0 0
SMALL
GASTEIGER

@<TRIPOS>ATOM
      1  N          2.6930   11.9820   46.5480 N.3    33  LEU33      -0.1245
      2  CA         2.6240   10.5390   46.4100 C.3    33  LEU33       0.1561
      3  C          1.5220   10.1720   45.4130 C.2    33  LEU33       0.2260
      4  O          1.6870    9.2250   44.6670 O.2    33  LEU33      -0.2867
      5  CB         2.4220    9.8760   47.7700 C.3    33  LEU33       0.0270
      6  CG         3.6020    9.8130   48.7510 C.3    33  LEU33       0.0019
      7  CD1        3.1610    9.2060   50.0730 C.3    33  LEU33       0.0001
      8  CD2        4.7570    9.0080   48.1850 C.3    33  LEU33       0.0001
      9  N          3.1310   10.8620   41.9380 N.3    36  LEU36      -0.1231
     10  CA         4.0720    9.8010   41.6640 C.3    36  LEU36       0.1693
     11  C          3.3450    8.5290   41.2330 C.2    36  LEU36       0.2592
     12  O          3.7830    7.8870   40.3060 O.2    36  LEU36      -0.2718
     13  CB         4.9840    9.5340   42.8760 C.3    36  LEU36       0.0284
     14  CG         6.0300   10.6210   43.1610 C.3    36  LEU36       0.0019
     15  CD1        6.8330   10.3570   44.4380 C.3    36  LEU36       0.0001
     16  CD2        6.9550   10.7100   41.9640 C.3    36  LEU36       0.0001
     17  N          2.2290    8.1850   41.8780 N.am   37  ASN37      -0.1974
     18  CA         1.4420    7.0270   41.4260 C.3    37  ASN37       0.1688
     19  C          0.8310    7.2160   40.0620 C.2    37  ASN37       0.2292
     20  O          0.7910    6.2680   39.2520 O.2    37  ASN37      -0.2864
     21  CB         0.3390    6.6730   42.4230 C.3    37  ASN37       0.1181
     22  CG         0.9030    6.1370   43.7280 C.2    37  ASN37       0.2629
     23  OD1        2.0640    5.7600   43.7860 O.2    37  ASN37      -0.2716
     24  ND2        0.0900    6.1100   44.7710 N.am   37  ASN37      -0.0877
     25  N          2.0480    9.1660   37.7900 N.3    39  LEU39      -0.1231
     26  CA         3.2000    9.0660   36.9050 C.3    39  LEU39       0.1693
     27  C          3.5800    7.5950   36.7180 C.2    39  LEU39       0.2592
     28  O          3.8480    7.1820   35.6050 O.2    39  LEU39      -0.2718
     29  CB         4.4050    9.8910   37.4370 C.3    39  LEU39       0.0284
     30  CG         5.6460    9.9720   36.5370 C.3    39  LEU39       0.0019
     31  CD1        5.3450   10.6740   35.2140 C.3    39  LEU39       0.0001
     32  CD2        6.7910   10.6640   37.2750 C.3    39  LEU39       0.0001
     33  N          3.5830    6.7990   37.7940 N.am   40  GLY40      -0.1957
     34  CA         3.9960    5.3890   37.7060 C.3    40  GLY40       0.1869
     35  C          3.0820    4.5840   36.8020 C.2    40  GLY40       0.2309
     36  O          3.5310    3.7210   36.0540 O.2    40  GLY40      -0.2863
     37  N          3.9490    5.5340   33.2240 N.3    43  GLN43      -0.1245
     38  CA         5.2030    4.8570   32.9170 C.3    43  GLN43       0.1566
     39  C          5.0560    3.3400   32.6990 C.2    43  GLN43       0.2260
     40  O          5.7270    2.7790   31.8070 O.2    43  GLN43      -0.2867
     41  CB         6.2750    5.2020   33.9470 C.3    43  GLN43       0.0367
     42  CG         6.6590    6.6780   33.8730 C.3    43  GLN43       0.0905
     43  CD         7.7030    7.1050   34.8840 C.2    43  GLN43       0.2608
     44  OE1        7.9980    6.3820   35.8380 O.2    43  GLN43      -0.2717
     45  NE2        8.2430    8.3120   34.7030 N.am   43  GLN43      -0.0878
     46  N          5.3550   -7.2100   35.8550 N.3    70  GLN70      -0.1245
     47  CA         4.8700   -6.9330   37.2020 C.3    70  GLN70       0.1566
     48  C          5.9450   -7.0160   38.2930 C.2    70  GLN70       0.2260
     49  O          6.0170   -6.1380   39.1780 O.2    70  GLN70      -0.2867
     50  CB         3.6480   -7.8010   37.4980 C.3    70  GLN70       0.0367
     51  CG         2.4950   -7.3240   36.6220 C.3    70  GLN70       0.0905
     52  CD         1.1860   -8.0030   36.8870 C.2    70  GLN70       0.2608
     53  OE1        1.0820   -8.9250   37.6970 O.2    70  GLN70      -0.2717
     54  NE2        0.1670   -7.5690   36.1550 N.am   70  GLN70      -0.0878
     55  N          8.6170   -4.0340   37.6010 N.3    73  TRP73      -0.1227
     56  CA         8.0940   -2.6740   37.5500 C.3    73  TRP73       0.1737
     57  C          8.8080   -1.6760   38.4170 C.2    73  TRP73       0.2595
     58  O          9.3350   -0.6700   37.9140 O.2    73  TRP73      -0.2718
     59  CB         6.6080   -2.7120   37.8810 C.3    73  TRP73       0.0564
     60  CG         5.8850   -1.4200   37.6880 C.ar   73  TRP73       0.0003
     61  CD1        6.3730   -0.2200   37.1510 C.ar   73  TRP73       0.0946
     62  CD2        4.4740   -1.1470   38.0090 C.ar   73  TRP73       0.0152
     63  NE1        5.3920    0.7420   37.1430 N.ar   73  TRP73      -0.2442
     64  CE2        4.2270    0.2460   37.6350 C.ar   73  TRP73       0.0810
     65  CE3        3.4320   -1.8950   38.5410 C.ar   73  TRP73       0.0012
     66  CZ2        2.9740    0.8410   37.7970 C.ar   73  TRP73       0.0191
     67  CZ3        2.1760   -1.2810   38.7030 C.ar   73  TRP73       0.0001
     68  CH2        1.9560    0.0530   38.3270 C.ar   73  TRP73       0.0015
     69  N          8.8600   -1.9270   39.7200 N.am   74  MET74      -0.1979
     70  CA         9.5770   -1.0440   40.6170 C.3    74  MET74       0.1605
     71  C         11.0310   -0.8110   40.1680 C.2    74  MET74       0.2287
     72  O         11.5120    0.3420   40.1640 O.2    74  MET74      -0.2864
     73  CB         9.5440   -1.5780   42.0510 C.3    74  MET74       0.0413
     74  CG        10.0440   -0.6010   43.1040 C.3    74  MET74       0.0598
     75  SD         8.9900    0.8620   43.3280 S.3    74  MET74      -0.1393
     76  CE         7.5360    0.1020   44.0780 C.3    74  MET74       0.0692
     77  N         11.2740    1.5480   37.1400 N.3    77  MET77      -0.1230
     78  CA        10.8950    2.9290   37.4520 C.3    77  MET77       0.1702
     79  C         12.0280    3.6900   38.1060 C.2    77  MET77       0.2592
     80  O         12.2480    4.8370   37.7870 O.2    77  MET77      -0.2718
     81  CB         9.7030    2.9980   38.4280 C.3    77  MET77       0.0401
     82  CG         8.3820    2.4270   37.9370 C.3    77  MET77       0.0596
     83  SD         7.7730    3.1960   36.4540 S.3    77  MET77      -0.1393
     84  CE         8.4880    2.1840   35.1390 C.3    77  MET77       0.0692
     85  N         12.7130    3.0510   39.0510 N.am   78  VAL78      -0.1980
     86  CA        13.7870    3.7000   39.8080 C.3    78  VAL78       0.1595
     87  C         15.1050    3.7950   39.0030 C.2    78  VAL78       0.2287
     88  O         15.8990    4.7570   39.1450 O.2    78  VAL78      -0.2864
     89  CB        13.9730    3.0060   41.1860 C.3    78  VAL78       0.0276
     90  CG1       14.8020    1.7430   41.0690 C.3    78  VAL78       0.0022
     91  CG2       14.6130    3.9750   42.1790 C.3    78  VAL78       0.0022
     92  N         14.2570    6.6990   36.5930 N.3    81  LEU81      -0.1245
     93  CA        14.4830    7.8870   37.4040 C.3    81  LEU81       0.1561
     94  C         15.9730    8.2450   37.4890 C.2    81  LEU81       0.2260
     95  O         16.3720    9.3860   37.2460 O.2    81  LEU81      -0.2867
     96  CB        13.9550    7.6300   38.8240 C.3    81  LEU81       0.0270
     97  CG        14.1170    8.6980   39.9110 C.3    81  LEU81       0.0019
     98  CD1       13.4660   10.0110   39.4980 C.3    81  LEU81       0.0001
     99  CD2       13.5440    8.1530   41.2160 C.3    81  LEU81       0.0001
    100  N         17.2320    9.4900   34.0530 N.3    84  ARG84      -0.1245
    101  CA        16.7470   10.8320   33.7470 C.3    84  ARG84       0.1563
    102  C         17.4550   11.8930   34.5730 C.2    84  ARG84       0.2260
    103  O         17.8030   12.9640   34.0590 O.2    84  ARG84      -0.2867
    104  CB        15.2400   10.9350   33.9770 C.3    84  ARG84       0.0307
    105  CG        14.4130   10.2880   32.8800 C.3    84  ARG84       0.0489
    106  CD        12.9560   10.6800   32.9880 C.3    84  ARG84       0.2205
    107  NE        12.3800   10.2830   34.2730 N.pl3  84  ARG84      -0.0865
    108  CZ        12.0330    9.0390   34.6170 C.cat  84  ARG84       0.5346
    109  NH1       12.2240    8.0270   33.7880 N.pl3  84  ARG84       0.1354
    110  NH2       11.4920    8.7980   35.8140 N.pl3  84  ARG84       0.1354
    111  N         11.7800   12.9130   38.2630 N.3    96  PHE96      -0.1241
    112  CA        10.6430   12.0160   38.0110 C.3    96  PHE96       0.1605
    113  C         10.0210   12.2820   36.6560 C.2    96  PHE96       0.2264
    114  O          9.7350   11.3530   35.8890 O.2    96  PHE96      -0.2867
    115  CB         9.5840   12.1430   39.1140 C.3    96  PHE96       0.0534
    116  CG        10.0820   11.7120   40.4590 C.ar   96  PHE96      -0.0203
    117  CD1       10.0850   10.3580   40.8040 C.ar   96  PHE96      -0.0042
    118  CD2       10.5770   12.6360   41.3670 C.ar   96  PHE96      -0.0042
    119  CE1       10.5470    9.9440   42.0380 C.ar   96  PHE96      -0.0003
    120  CE2       11.0550   12.2190   42.6030 C.ar   96  PHE96      -0.0003
    121  CZ        11.0490   10.8690   42.9390 C.ar   96  PHE96      -0.0000
    122  N          9.1680   11.8580   53.0480 N.3   112  PHE112     -0.1241
    123  CA         9.9090   10.6220   52.7380 C.3   112  PHE112      0.1605
    124  C         11.3240   10.9160   52.2550 C.2   112  PHE112      0.2264
    125  O         11.8240   10.2490   51.3710 O.2   112  PHE112     -0.2867
    126  CB         9.1350    9.7250   51.7370 C.3   112  PHE112      0.0534
    127  CG         8.5420   10.4690   50.5640 C.ar  112  PHE112     -0.0203
    128  CD1        7.2980   11.0720   50.6660 C.ar  112  PHE112     -0.0042
    129  CD2        9.2250   10.5650   49.3620 C.ar  112  PHE112     -0.0042
    130  CE1        6.7430   11.7670   49.5990 C.ar  112  PHE112     -0.0003
    131  CE2        8.6740   11.2510   48.2860 C.ar  112  PHE112     -0.0003
    132  CZ         7.4350   11.8560   48.4060 C.ar  112  PHE112     -0.0000
    133  N         13.8630    8.0810   51.9410 N.3   115  LEU115     -0.1245
    134  CA        13.6150    7.3030   50.7450 C.3   115  LEU115      0.1561
    135  C         13.9910    8.0570   49.4600 C.2   115  LEU115      0.2260
    136  O         14.4380    7.4300   48.4840 O.2   115  LEU115     -0.2867
    137  CB        12.1670    6.8420   50.6930 C.3   115  LEU115      0.0270
    138  CG        11.8500    5.6250   51.5640 C.3   115  LEU115      0.0019
    139  CD1       10.4080    5.2390   51.2880 C.3   115  LEU115      0.0001
    140  CD2       12.7850    4.4390   51.3100 C.3   115  LEU115      0.0001
    141  N         16.6350    6.6760   46.7440 N.3   119  MET119     -0.1245
    142  CA        16.4400    6.6860   45.2980 C.3   119  MET119      0.1570
    143  C         17.5390    7.4790   44.5670 C.2   119  MET119      0.2261
    144  O         17.8810    7.1530   43.4280 O.2   119  MET119     -0.2867
    145  CB        15.0660    7.2600   44.9440 C.3   119  MET119      0.0387
    146  CG        13.9200    6.3410   45.3170 C.3   119  MET119      0.0595
    147  SD        12.3400    7.0510   44.8370 S.3   119  MET119     -0.1393
    148  CE        12.1220    8.3580   46.0330 C.3   119  MET119      0.0692
    149  N         11.3440    0.0440   48.8110 N.3   205  LEU205     -0.1231
    150  CA        10.2500    0.7480   48.1260 C.3   205  LEU205      0.1693
    151  C          9.0020   -0.1240   47.9650 C.2   205  LEU205      0.2592
    152  O          7.8640    0.3830   47.9740 O.2   205  LEU205     -0.2718
    153  CB        10.7060    1.2520   46.7570 C.3   205  LEU205      0.0284
    154  CG        11.9430    2.1510   46.7490 C.3   205  LEU205      0.0019
    155  CD1       12.3440    2.4980   45.3250 C.3   205  LEU205      0.0001
    156  CD2       11.7140    3.3980   47.5830 C.3   205  LEU205      0.0001
    157  N          9.2100   -1.4240   47.7840 N.am  206  HIS206     -0.1976
    158  CA         8.0980   -2.3750   47.7770 C.3   206  HIS206      0.1656
    159  C          7.3250   -2.2820   49.0940 C.2   206  HIS206      0.2291
    160  O          6.1070   -2.2140   49.0950 O.2   206  HIS206     -0.2864
    161  CB         8.6030   -3.7990   47.5340 C.3   206  HIS206      0.0771
    162  CG         8.8310   -4.1780   46.0560 C.ar  206  HIS206      0.0820
    163  ND1        9.7290   -5.1180   45.6890 N.ar  206  HIS206     -0.2267
    164  CD2        8.2110   -3.7600   44.8650 C.ar  206  HIS206      0.1154
    165  CE1        9.7070   -5.2950   44.3520 C.ar  206  HIS206      0.1986
    166  NE2        8.7780   -4.4760   43.8400 N.ar  206  HIS206     -0.2212
    167  N          7.3910    0.2710   51.5390 N.3   208  TYR208     -0.1227
    168  CA         6.7710    1.5900   51.6570 C.3   208  TYR208      0.1736
    169  C          5.5040    1.6610   50.8050 C.2   208  TYR208      0.2595
    170  O          4.4500    2.1520   51.2490 O.2   208  TYR208     -0.2718
    171  CB         7.7560    2.6880   51.2680 C.3   208  TYR208      0.0548
    172  CG         7.3000    4.0600   51.6790 C.ar  208  TYR208     -0.0200
    173  CD1        7.6120    4.5680   52.9310 C.ar  208  TYR208     -0.0009
    174  CD2        6.5420    4.8430   50.8150 C.ar  208  TYR208     -0.0009
    175  CE1        7.1840    5.8280   53.3150 C.ar  208  TYR208      0.0417
    176  CE2        6.1060    6.1040   51.1790 C.ar  208  TYR208      0.0417
    177  CZ         6.4350    6.5950   52.4350 C.ar  208  TYR208      0.1957
    178  OH         6.0220    7.8480   52.8030 O.3   208  TYR208     -0.2866
    179  N          5.5860    1.1320   49.5940 N.am  209  CYS209     -0.1970
    180  CA         4.4450    1.1560   48.6810 C.3   209  CYS209      0.1712
    181  C          3.2440    0.3540   49.2300 C.2   209  CYS209      0.2296
    182  O          2.1070    0.8460   49.2920 O.2   209  CYS209     -0.2864
    183  CB         4.8900    0.6320   47.3210 C.3   209  CYS209      0.0983
    184  SG         3.5730    0.5250   46.1060 S.3   209  CYS209     -0.0798
    185  N          1.6740    2.0300   52.2080 N.3   212  THR212     -0.1218
    186  CA         0.9300    3.2180   51.8070 C.3   212  THR212      0.1862
    187  C         -0.3600    2.8050   51.1250 C.2   212  THR212      0.2287
    188  O         -1.3700    3.4650   51.2680 O.2   212  THR212     -0.2866
    189  CB         1.7630    4.1460   50.9020 C.3   212  THR212      0.1770
    190  OG1        2.9550    4.5250   51.5970 O.3   212  THR212     -0.2211
    191  CG2        0.9860    5.3990   50.5420 C.3   212  THR212      0.0375
    192  N         -3.8370    9.0580   49.6990 N.3   221  VAL221     -0.1245
    193  CA        -2.9700    8.7610   48.5500 C.3   221  VAL221      0.1561
    194  C         -3.7800    7.8950   47.5800 C.2   221  VAL221      0.2260
    195  O         -4.2630    6.8340   47.9750 O.2   221  VAL221     -0.2867
    196  CB        -1.7150    8.0100   49.0010 C.3   221  VAL221      0.0252
    197  CG1       -0.8910    7.5380   47.8020 C.3   221  VAL221      0.0019
    198  CG2       -0.8900    8.8780   49.9240 C.3   221  VAL221      0.0019
    199  N         -4.2930    5.4700   44.3600 N.3   223  PHE223     -0.1241
    200  CA        -3.6640    4.4740   43.5280 C.3   223  PHE223      0.1605
    201  C         -4.5940    4.2140   42.3580 C.2   223  PHE223      0.2264
    202  O         -5.7310    3.8650   42.5740 O.2   223  PHE223     -0.2867
    203  CB        -3.4560    3.1860   44.3220 C.3   223  PHE223      0.0534
    204  CG        -2.3750    3.2980   45.3460 C.ar  223  PHE223     -0.0203
    205  CD1       -2.5890    4.0000   46.5140 C.ar  223  PHE223     -0.0042
    206  CD2       -1.1340    2.7460   45.1170 C.ar  223  PHE223     -0.0042
    207  CE1       -1.5810    4.1380   47.4520 C.ar  223  PHE223     -0.0003
    208  CE2       -0.1210    2.8730   46.0580 C.ar  223  PHE223     -0.0003
    209  CZ        -0.3500    3.5650   47.2250 C.ar  223  PHE223     -0.0000
    210  N         -2.3980   -0.1250   38.8160 N.3   227  MET227     -0.1245
    211  CA        -1.4250   -0.1140   39.9120 C.3   227  MET227      0.1570
    212  C         -1.9730   -0.9000   41.0980 C.2   227  MET227      0.2261
    213  O         -1.3030   -1.7870   41.6280 O.2   227  MET227     -0.2867
    214  CB        -1.0430    1.3270   40.3140 C.3   227  MET227      0.0387
    215  CG        -0.0610    1.3440   41.4690 C.3   227  MET227      0.0595
    216  SD         0.6390    2.9420   41.8430 S.3   227  MET227     -0.1393
    217  CE         1.6580    3.2180   40.3770 C.3   227  MET227      0.0692
    218  N         -1.9710   -4.7400   40.4560 N.3   230  VAL230     -0.1231
    219  CA        -0.6670   -5.3540   40.5080 C.3   230  VAL230      0.1692
    220  C         -0.1620   -5.4240   41.9700 C.2   230  VAL230      0.2591
    221  O          0.3050   -6.4660   42.4240 O.2   230  VAL230     -0.2718
    222  CB         0.3430   -4.6270   39.6010 C.3   230  VAL230      0.0266
    223  CG1        1.7110   -5.2720   39.7070 C.3   230  VAL230      0.0020
    224  CG2       -0.1390   -4.6310   38.1590 C.3   230  VAL230      0.0020
    225  N         -0.2800   -4.3320   42.7130 N.am  231  ILE231     -0.1980
    226  CA         0.1130   -4.3230   44.1280 C.3   231  ILE231      0.1595
    227  C         -0.6160   -5.4440   44.8750 C.2   231  ILE231      0.2287
    228  O          0.0040   -6.2520   45.5800 O.2   231  ILE231     -0.2864
    229  CB        -0.2410   -2.9920   44.7990 C.3   231  ILE231      0.0276
    230  CG1        0.6400   -1.8750   44.2650 C.3   231  ILE231      0.0022
    231  CG2       -0.1120   -3.1040   46.3250 C.3   231  ILE231      0.0022
    232  CD1        0.0750   -0.5160   44.5700 C.3   231  ILE231      0.0001
    233  N          0.5990   -8.9990   43.5870 N.3   234  GLN234     -0.1231
    234  CA         2.0220   -9.3660   43.5630 C.3   234  GLN234      0.1698
    235  C          2.8870   -8.9390   44.7230 C.2   234  GLN234      0.2592
    236  O          3.8150   -9.6520   45.0560 O.2   234  GLN234     -0.2718
    237  CB         2.6660   -8.8460   42.2800 C.3   234  GLN234      0.0381
    238  CG         2.0670   -9.4320   41.0070 C.3   234  GLN234      0.0905
    239  CD         2.0580  -10.9540   40.9840 C.2   234  GLN234      0.2608
    240  OE1        2.9510  -11.6110   41.5100 O.2   234  GLN234     -0.2717
    241  NE2        1.0360  -11.5140   40.3660 N.am  234  GLN234     -0.0878
    242  N          2.6040   -7.8020   45.3540 N.am  235  LEU235     -0.1980
    243  CA         3.5500   -7.2640   46.3440 C.3   235  LEU235      0.1596
    244  C          3.7580   -8.1090   47.5940 C.2   235  LEU235      0.2287
    245  O          4.9030   -8.2790   48.0360 O.2   235  LEU235     -0.2864
    246  CB         3.2030   -5.8240   46.7440 C.3   235  LEU235      0.0297
    247  CG         4.2930   -4.8350   46.3660 C.3   235  LEU235      0.0022
    248  CD1        4.8760   -5.2500   45.0250 C.3   235  LEU235      0.0001
    249  CD2        3.7640   -3.4040   46.3270 C.3   235  LEU235      0.0001
@<TRIPOS>BOND
     1    40    39    2
     2    39    38    1
     3   105   106    1
     4   105   104    1
     5    38    37    1
     6    38    41    1
     7   106   107    1
     8   101   104    1
     9   101   100    1
    10   101   102    1
    11   109   108    1
    12    42    41    1
    13    42    43    1
    14   103   102    2
    15   107   108    2
    16   108   110    1
    17    45    43   am
    18    43    44    2
    19    84    83    1
    20    31    30    1
    21    28    27    2
    22    46    47    1
    23   114   113    2
    24    36    35    2
    25    54    52   am
    26    83    82    1
    27    30    32    1
    28    30    29    1
    29    92    93    1
    30    51    52    1
    31    51    50    1
    32   113   112    1
    33    27    26    1
    34    27    33   am
    35    35    34    1
    36    52    53    2
    37    26    29    1
    38    26    25    1
    39    77    78    1
    40    63    61   ar
    41    63    64   ar
    42    61    60   ar
    43    47    50    1
    44    47    48    1
    45    95    94    2
    46    93    94    1
    47    93    96    1
    48    78    79    1
    49    78    81    1
    50    56    55    1
    51    56    59    1
    52    56    57    1
    53    64    66   ar
    54    64    62   ar
    55    60    59    1
    56    60    62   ar
    57    34    33    1
    58    80    79    2
    59    66    68   ar
    60    58    57    2
    61    82    81    1
    62    62    65   ar
    63   112   111    1
    64   112   115    1
    65    79    85   am
    66   224   222    1
    67    48    49    2
    68    68    67   ar
    69    57    69   am
    70    65    67   ar
    71   210   211    1
    72    96    97    1
    73    87    88    2
    74    87    86    1
    75    85    86    1
    76   115   116    1
    77    20    19    2
    78    98    97    1
    79   222   223    1
    80   222   219    1
    81    69    70    1
    82    86    89    1
    83    97    99    1
    84   211   214    1
    85   211   212    1
    86    19    18    1
    87    72    71    2
    88    71    70    1
    89    12    11    2
    90   214   215    1
    91   241   239   am
    92   217   216    1
    93   218   219    1
    94   116   117   ar
    95   116   118   ar
    96   219   220    1
    97    70    73    1
    98   117   119   ar
    99   239   238    1
   100   239   240    2
   101   238   237    1
   102    90    89    1
   103   212   213    2
   104    89    91    1
   105    11    10    1
   106    11    17   am
   107   118   120   ar
   108    18    17    1
   109    18    21    1
   110   215   216    1
   111    10     9    1
   112    10    13    1
   113    16    14    1
   114   220   221    2
   115   220   225   am
   116   119   121   ar
   117    73    74    1
   118   237   234    1
   119   201   202    2
   120   201   200    1
   121    21    22    1
   122   120   121   ar
   123   225   226    1
   124    13    14    1
   125    74    75    1
   126    14    15    1
   127    75    76    1
   128   144   143    2
   129   200   203    1
   130   200   199    1
   131   234   233    1
   132   234   235    1
   133    22    23    2
   134    22    24   am
   135   166   165   ar
   136   166   164   ar
   137   226   229    1
   138   226   227    1
   139   230   232    1
   140   230   229    1
   141   203   204    1
   142   165   163   ar
   143   143   142    1
   144     4     3    2
   145   235   236    2
   146   235   242   am
   147   229   231    1
   148   147   146    1
   149   147   148    1
   150   164   162   ar
   151   227   228    2
   152   145   142    1
   153   145   146    1
   154   248   247    1
   155   206   204   ar
   156   206   208   ar
   157   142   141    1
   158   155   154    1
   159   204   205   ar
   160   242   243    1
   161     3     2    1
   162   163   162   ar
   163   162   161    1
   164   208   209   ar
   165   184   183    1
   166   249   247    1
   167   243   246    1
   168   243   244    1
   169   247   246    1
   170     2     1    1
   171     2     5    1
   172   205   207   ar
   173   154   153    1
   174   154   156    1
   175   153   150    1
   176   209   207   ar
   177   183   180    1
   178   161   158    1
   179   194   195    2
   180   194   193    1
   181   244   245    2
   182     5     6    1
   183   158   157    1
   184   158   159    1
   185   157   151   am
   186   197   196    1
   187   151   152    2
   188   151   150    1
   189   150   149    1
   190     8     6    1
   191   131   132   ar
   192   131   129   ar
   193   132   130   ar
   194   136   135    2
   195   193   196    1
   196   193   192    1
   197   180   181    1
   198   180   179    1
   199     6     7    1
   200   196   198    1
   201   159   160    2
   202   181   182    2
   203   129   127   ar
   204   135   134    1
   205   179   169   am
   206   130   128   ar
   207   191   189    1
   208   127   128   ar
   209   127   126    1
   210   137   134    1
   211   137   138    1
   212   134   133    1
   213   169   170    2
   214   169   168    1
   215   174   176   ar
   216   174   172   ar
   217   189   190    1
   218   189   186    1
   219   187   188    2
   220   187   186    1
   221   176   177   ar
   222   171   168    1
   223   171   172    1
   224   139   138    1
   225   140   138    1
   226   125   124    2
   227   167   168    1
   228   172   173   ar
   229   126   123    1
   230   186   185    1
   231   124   123    1
   232   177   178    1
   233   177   175   ar
   234   123   122    1
   235   173   175   ar
