@<TRIPOS>MOLECULE
tmp/4aq0B00.pdb
 137 133 0 0 0
SMALL
GASTEIGER

@<TRIPOS>ATOM
      1  N          6.9300   29.9320  149.7240 N.3    63  VAL63      -0.1231
      2  CA         5.5690   29.4260  150.0080 C.3    63  VAL63       0.1692
      3  C          4.5990   30.4770  150.5440 C.2    63  VAL63       0.2593
      4  O          5.0140   31.5450  151.0100 O.2    63  VAL63      -0.2718
      5  CB         5.5740   28.2040  150.9860 C.3    63  VAL63       0.0266
      6  CG1        6.2710   27.0200  150.3630 C.3    63  VAL63       0.0020
      7  CG2        6.1910   28.5660  152.3380 C.3    63  VAL63       0.0020
      8  N          3.3060   30.1550  150.4940 N.am   64  GLY64      -0.1942
      9  CA         2.2390   31.0620  150.9430 C.3    64  GLY64       0.2014
     10  C          1.8630   30.9490  152.4160 C.2    64  GLY64       0.2639
     11  O          2.6630   30.4950  153.2290 O.2    64  GLY64      -0.2714
     12  N          0.6330   31.3550  152.7480 N.am   65  GLY65      -0.1954
     13  CA         0.1520   31.3900  154.1380 C.3    65  GLY65       0.1869
     14  C          1.0100   32.3480  154.9390 C.2    65  GLY65       0.2309
     15  O          1.3180   33.4450  154.4670 O.2    65  GLY65      -0.2863
     16  N          2.5040   23.0010  158.6880 N.3   188  PHE188     -0.1227
     17  CA         2.2720   23.9510  157.6030 C.3   188  PHE188      0.1736
     18  C          1.4070   23.3260  156.5220 C.2   188  PHE188      0.2595
     19  O          1.7450   22.2670  155.9760 O.2   188  PHE188     -0.2718
     20  CB         3.5840   24.4680  156.9950 C.3   188  PHE188      0.0547
     21  CG         3.3870   25.4010  155.8180 C.ar  188  PHE188     -0.0202
     22  CD1        2.8880   26.6900  156.0050 C.ar  188  PHE188     -0.0042
     23  CD2        3.6910   24.9850  154.5230 C.ar  188  PHE188     -0.0042
     24  CE1        2.6990   27.5540  154.9190 C.ar  188  PHE188     -0.0003
     25  CE2        3.5040   25.8480  153.4230 C.ar  188  PHE188     -0.0003
     26  CZ         3.0070   27.1330  153.6300 C.ar  188  PHE188     -0.0000
     27  N          0.2920   24.0020  156.2390 N.am  189  TYR189     -0.1976
     28  CA        -0.5510   23.7460  155.0650 C.3   189  TYR189      0.1639
     29  C         -1.3750   22.4600  155.1690 C.2   189  TYR189      0.2290
     30  O         -2.5280   22.5180  155.5940 O.2   189  TYR189     -0.2864
     31  CB         0.2840   23.8030  153.7710 C.3   189  TYR189      0.0560
     32  CG        -0.5350   24.1110  152.5480 C.ar  189  TYR189     -0.0198
     33  CD1       -0.9820   25.4140  152.2920 C.ar  189  TYR189     -0.0009
     34  CD2       -0.8830   23.0990  151.6550 C.ar  189  TYR189     -0.0009
     35  CE1       -1.7520   25.6970  151.1590 C.ar  189  TYR189      0.0417
     36  CE2       -1.6560   23.3660  150.5280 C.ar  189  TYR189      0.0417
     37  CZ        -2.0820   24.6650  150.2860 C.ar  189  TYR189      0.1957
     38  OH        -2.8440   24.9160  149.1750 O.3   189  TYR189     -0.2866
     39  N          1.8160   20.5670  143.1930 N.3   347  TRP347     -0.1227
     40  CA         0.7800   21.3020  142.4690 C.3   347  TRP347      0.1737
     41  C          1.4070   22.5140  141.7880 C.2   347  TRP347      0.2595
     42  O          1.0590   22.8310  140.6590 O.2   347  TRP347     -0.2718
     43  CB        -0.3800   21.7290  143.3870 C.3   347  TRP347      0.0564
     44  CG        -1.5330   22.3840  142.6370 C.ar  347  TRP347      0.0003
     45  CD1       -2.6590   21.7690  142.1510 C.ar  347  TRP347      0.0946
     46  CD2       -1.6520   23.7690  142.2750 C.ar  347  TRP347      0.0152
     47  NE1       -3.4670   22.6840  141.5160 N.ar  347  TRP347     -0.2442
     48  CE2       -2.8760   23.9190  141.5810 C.ar  347  TRP347      0.0810
     49  CE3       -0.8490   24.8970  142.4800 C.ar  347  TRP347      0.0012
     50  CZ2       -3.3090   25.1510  141.0810 C.ar  347  TRP347      0.0191
     51  CZ3       -1.2820   26.1280  141.9860 C.ar  347  TRP347      0.0001
     52  CH2       -2.5040   26.2400  141.2920 C.ar  347  TRP347      0.0015
     53  N          2.3450   23.1640  142.4770 N.am  348  ASP348     -0.1974
     54  CA         3.0290   24.3500  141.9590 C.3   348  ASP348      0.1709
     55  C          4.2020   24.0110  141.0550 C.2   348  ASP348      0.2293
     56  O          4.3060   24.5500  139.9480 O.2   348  ASP348     -0.2864
     57  CB         3.5760   25.2030  143.1060 C.3   348  ASP348      0.1436
     58  CG         2.4990   25.6590  144.0610 C.2   348  ASP348      0.3671
     59  OD1        1.6470   26.4730  143.6420 O.co2 348  ASP348     -0.2456
     60  OD2        2.5110   25.1980  145.2270 O.co2 348  ASP348     -0.2456
     61  N          4.5800   20.7400  151.7810 N.3   397  VAL397     -0.1231
     62  CA         3.3850   21.4740  151.3250 C.3   397  VAL397      0.1692
     63  C          2.2650   20.5890  150.7700 C.2   397  VAL397      0.2591
     64  O          1.2550   20.3740  151.4440 O.2   397  VAL397     -0.2718
     65  CB         3.7250   22.5900  150.3020 C.3   397  VAL397      0.0266
     66  CG1        2.5150   23.5060  150.0960 C.3   397  VAL397      0.0020
     67  CG2        4.9410   23.4020  150.7600 C.3   397  VAL397      0.0020
     68  N          2.4390   20.0870  149.5460 N.am  398  ARG398     -0.1980
     69  CA         1.3500   19.4180  148.8310 C.3   398  ARG398      0.1597
     70  C          1.8580   18.5160  147.7030 C.2   398  ARG398      0.2287
     71  O          2.9710   18.6860  147.2070 O.2   398  ARG398     -0.2864
     72  CB         0.3520   20.4540  148.2920 C.3   398  ARG398      0.0334
     73  CG         0.9300   21.4060  147.2430 C.3   398  ARG398      0.0492
     74  CD         0.0150   22.6170  147.0200 C.3   398  ARG398      0.2205
     75  NE        -1.3400   22.2410  146.6060 N.pl3 398  ARG398     -0.0865
     76  CZ        -2.2820   23.1080  146.2430 C.cat 398  ARG398      0.5346
     77  NH1       -2.0290   24.4110  146.2250 N.pl3 398  ARG398      0.1354
     78  NH2       -3.4800   22.6750  145.8930 N.pl3 398  ARG398      0.1354
     79  N         -9.7950   27.1200  141.1170 N.3   528  TYR528     -0.1227
     80  CA        -8.7840   27.4220  142.1140 C.3   528  TYR528      0.1736
     81  C         -7.7820   28.4480  141.5590 C.2   528  TYR528      0.2595
     82  O         -7.0090   28.1530  140.6410 O.2   528  TYR528     -0.2718
     83  CB        -8.0990   26.1200  142.5580 C.3   528  TYR528      0.0548
     84  CG        -6.9830   26.2910  143.5690 C.ar  528  TYR528     -0.0200
     85  CD1       -7.2480   26.3180  144.9470 C.ar  528  TYR528     -0.0009
     86  CD2       -5.6580   26.4120  143.1520 C.ar  528  TYR528     -0.0009
     87  CE1       -6.2080   26.4770  145.8760 C.ar  528  TYR528      0.0417
     88  CE2       -4.6220   26.5670  144.0710 C.ar  528  TYR528      0.0417
     89  CZ        -4.9010   26.5980  145.4220 C.ar  528  TYR528      0.1957
     90  OH        -3.8610   26.7470  146.3100 O.3   528  TYR528     -0.2866
     91  N         -7.8410   29.6660  142.0960 N.am  529  GLN529     -0.1979
     92  CA        -6.8640   30.7310  141.8080 C.3   529  GLN529      0.1601
     93  C         -6.5600   30.9800  140.3240 C.2   529  GLN529      0.2287
     94  O         -5.4170   31.2850  139.9540 O.2   529  GLN529     -0.2864
     95  CB        -5.5580   30.4850  142.5880 C.3   529  GLN529      0.0394
     96  CG        -5.7340   30.4260  144.1030 C.3   529  GLN529      0.0908
     97  CD        -4.4190   30.5800  144.8590 C.2   529  GLN529      0.2608
     98  OE1       -3.3440   30.2650  144.3390 O.2   529  GLN529     -0.2717
     99  NE2       -4.5050   31.0690  146.1000 N.am  529  GLN529     -0.0878
    100  N          0.7210   33.2560  139.0780 N.3   581  ASN581     -0.1225
    101  CA         0.3790   31.9650  139.6750 C.3   581  ASN581      0.1785
    102  C          0.7320   30.8200  138.7160 C.2   581  ASN581      0.2597
    103  O          1.1200   31.0620  137.5670 O.2   581  ASN581     -0.2718
    104  CB        -1.1120   31.9310  140.0220 C.3   581  ASN581      0.1169
    105  CG        -1.3960   31.2790  141.3750 C.2   581  ASN581      0.2627
    106  OD1       -0.5530   31.2660  142.2650 O.2   581  ASN581     -0.2716
    107  ND2       -2.6040   30.7570  141.5360 N.am  581  ASN581     -0.0877
    108  N          0.5670   29.5840  139.1820 N.am  582  GLU582     -0.1979
    109  CA         1.0100   28.4020  138.4350 C.3   582  GLU582      0.1602
    110  C         -0.1240   27.6960  137.6780 C.2   582  GLU582      0.2287
    111  O         -0.1790   26.4600  137.6530 O.2   582  GLU582     -0.2864
    112  CB         1.6930   27.3900  139.3710 C.3   582  GLU582      0.0415
    113  CG         3.0310   27.8190  139.9340 C.3   582  GLU582      0.1163
    114  CD         2.9210   28.5910  141.2390 C.2   582  GLU582      0.3649
    115  OE1        1.7920   28.9230  141.6730 O.co2 582  GLU582     -0.2457
    116  OE2        3.9860   28.8640  141.8380 O.co2 582  GLU582     -0.2457
    117  N         -2.0870   36.7890  142.1030 N.3   618  ALA618     -0.1245
    118  CA        -2.1890   35.3590  142.4110 C.3   618  ALA618      0.1562
    119  C         -3.1880   35.0390  143.5230 C.2   618  ALA618      0.2260
    120  O         -3.2590   33.9010  144.0000 O.2   618  ALA618     -0.2867
    121  CB        -0.8090   34.7990  142.7570 C.3   618  ALA618      0.0290
    122  N          4.1960   34.4290  144.7180 N.3   653  ASP653     -0.1239
    123  CA         5.0540   33.5210  145.4810 C.3   653  ASP653      0.1674
    124  C          5.9050   32.6890  144.5230 C.2   653  ASP653      0.2266
    125  O          5.3860   32.2060  143.5170 O.2   653  ASP653     -0.2867
    126  CB         4.2040   32.5880  146.3420 C.3   653  ASP653      0.1410
    127  CG         3.4160   33.3190  147.4210 C.2   653  ASP653      0.3668
    128  OD1        3.8040   34.4370  147.8190 O.co2 653  ASP653     -0.2456
    129  OD2        2.4040   32.7540  147.8890 O.co2 653  ASP653     -0.2456
    130  N          7.1570   29.7850  145.1890 N.3   655  ASP655     -0.1239
    131  CA         6.6570   28.4160  145.4230 C.3   655  ASP655      0.1674
    132  C          7.6970   27.3260  145.1600 C.2   655  ASP655      0.2266
    133  O          7.6330   26.6290  144.1400 O.2   655  ASP655     -0.2867
    134  CB         5.3700   28.1280  144.6370 C.3   655  ASP655      0.1410
    135  CG         4.1820   28.9620  145.1130 C.2   655  ASP655      0.3668
    136  OD1        3.9090   29.0200  146.3280 O.co2 655  ASP655     -0.2456
    137  OD2        3.5220   29.5660  144.2590 O.co2 655  ASP655     -0.2456
@<TRIPOS>BOND
     1   103   102    2
     2   111   110    2
     3   110   109    1
     4   109   108    1
     5   109   112    1
     6   102   108   am
     7   102   101    1
     8   100   101    1
     9   112   113    1
    10   101   104    1
    11   113   114    1
    12    56    55    2
    13    94    93    2
    14   104   105    1
    15    93    92    1
    16    82    81    2
    17    42    41    2
    18    55    54    1
    19    50    52   ar
    20    50    48   ar
    21    79    80    1
    22   114   115   ar
    23   114   116   ar
    24    52    51   ar
    25   105   107   am
    26   105   106    2
    27    47    48   ar
    28    47    45   ar
    29    81    91   am
    30    81    80    1
    31    48    46   ar
    32    41    40    1
    33    41    53   am
    34    92    91    1
    35    92    95    1
    36    54    53    1
    37    54    57    1
    38    51    49   ar
    39   117   118    1
    40    80    83    1
    41    45    44   ar
    42    46    49   ar
    43    46    44   ar
    44   118   121    1
    45   118   119    1
    46    40    39    1
    47    40    43    1
    48    83    84    1
    49    95    96    1
    50    44    43    1
    51    57    58    1
    52    86    84   ar
    53    86    88   ar
    54   125   124    2
    55   119   120    2
    56    84    85   ar
    57    59    58   ar
    58    58    60   ar
    59    88    89   ar
    60    96    97    1
    61   133   132    2
    62   137   135   ar
    63    98    97    2
    64   124   123    1
    65   134   135    1
    66   134   131    1
    67   122   123    1
    68    97    99   am
    69    85    87   ar
    70   135   136   ar
    71   132   131    1
    72   130   131    1
    73    89    87   ar
    74    89    90    1
    75   123   126    1
    76    78    76    1
    77    77    76    1
    78    76    75    2
    79   126   127    1
    80    75    74    1
    81    74    73    1
    82    71    70    2
    83    73    72    1
    84   127   128   ar
    85   127   129   ar
    86    70    69    1
    87    72    69    1
    88    69    68    1
    89    38    37    1
    90    68    63   am
    91     1     2    1
    92     2     3    1
    93     2     5    1
    94    66    65    1
    95    37    36   ar
    96    37    35   ar
    97    65    67    1
    98    65    62    1
    99     6     5    1
   100     8     3   am
   101     8     9    1
   102    36    34   ar
   103     3     4    2
   104    63    62    1
   105    63    64    2
   106     9    10    1
   107     5     7    1
   108    35    33   ar
   109    62    61    1
   110    34    32   ar
   111    33    32   ar
   112    10    12   am
   113    10    11    2
   114    32    31    1
   115    12    13    1
   116    25    26   ar
   117    25    23   ar
   118    26    24   ar
   119    31    28    1
   120    13    14    1
   121    15    14    2
   122    23    21   ar
   123    24    22   ar
   124    28    29    1
   125    28    27    1
   126    29    30    2
   127    21    22   ar
   128    21    20    1
   129    19    18    2
   130    27    18   am
   131    18    17    1
   132    20    17    1
   133    17    16    1
