@<TRIPOS>MOLECULE
tmp/4aq3C00.pdb
 207 202 0 0 0
SMALL
GASTEIGER

@<TRIPOS>ATOM
      1  N         -5.9170  -32.8110   -9.3080 N.3    32  ALA32      -0.1245
      2  CA        -4.6200  -32.2910   -9.5590 C.3    32  ALA32       0.1562
      3  C         -4.4440  -31.0960   -8.6670 C.2    32  ALA32       0.2260
      4  O         -3.4670  -31.0090   -7.9160 O.2    32  ALA32      -0.2867
      5  CB        -4.5300  -31.8780  -11.0190 C.3    32  ALA32       0.0290
      6  N         -3.9060  -31.9090   -4.8580 N.3    35  ASP35      -0.1225
      7  CA        -2.5050  -32.2620   -4.6000 C.3    35  ASP35       0.1805
      8  C         -1.5950  -31.0480   -4.7230 C.2    35  ASP35       0.2597
      9  O         -0.6880  -30.8390   -3.9550 O.2    35  ASP35      -0.2718
     10  CB        -2.0260  -33.3680   -5.5530 C.3    35  ASP35       0.1424
     11  CG        -2.8240  -34.6430   -5.4170 C.2    35  ASP35       0.3668
     12  OD1       -3.5570  -34.7590   -4.4040 O.co2  35  ASP35      -0.2456
     13  OD2       -2.7240  -35.5350   -6.3130 O.co2  35  ASP35      -0.2456
     14  N         -1.8160  -30.2380   -5.7310 N.am   36  PHE36      -0.1976
     15  CA        -0.9550  -29.1070   -5.9020 C.3    36  PHE36       0.1639
     16  C         -1.0200  -28.1780   -4.6940 C.2    36  PHE36       0.2290
     17  O          0.0000  -27.7060   -4.2020 O.2    36  PHE36      -0.2864
     18  CB        -1.2960  -28.3730   -7.2050 C.3    36  PHE36       0.0560
     19  CG        -0.3520  -27.2530   -7.5210 C.ar   36  PHE36      -0.0200
     20  CD1       -0.5480  -25.9960   -6.9820 C.ar   36  PHE36      -0.0042
     21  CD2        0.7520  -27.4720   -8.3230 C.ar   36  PHE36      -0.0042
     22  CE1        0.3070  -24.9760   -7.2750 C.ar   36  PHE36      -0.0003
     23  CE2        1.6240  -26.4580   -8.6190 C.ar   36  PHE36      -0.0003
     24  CZ         1.3990  -25.2040   -8.0770 C.ar   36  PHE36      -0.0000
     25  N          0.5360  -29.7290   -1.2860 N.3    39  ARG39      -0.1231
     26  CA         1.9870  -29.6770   -1.4270 C.3    39  ARG39       0.1694
     27  C          2.5490  -28.2400   -1.1730 C.2    39  ARG39       0.2592
     28  O          3.5830  -28.0950   -0.5620 O.2    39  ARG39      -0.2718
     29  CB         2.3110  -30.2140   -2.8210 C.3    39  ARG39       0.0321
     30  CG         3.7210  -30.0220   -3.3380 C.3    39  ARG39       0.0489
     31  CD         4.5750  -31.2730   -3.1000 C.3    39  ARG39       0.2205
     32  NE         3.9520  -32.5960   -3.3730 N.pl3  39  ARG39      -0.0865
     33  CZ         4.3550  -33.6950   -2.7290 C.cat  39  ARG39       0.5346
     34  NH1        5.3010  -33.5640   -1.8260 N.pl3  39  ARG39       0.1354
     35  NH2        3.8340  -34.9080   -2.9410 N.pl3  39  ARG39       0.1354
     36  N          1.8620  -27.1820   -1.6130 N.am   40  TYR40      -0.1976
     37  CA         2.3770  -25.8200   -1.4120 C.3    40  TYR40       0.1639
     38  C          1.5470  -25.0570   -0.3810 C.2    40  TYR40       0.2290
     39  O          1.3130  -23.8390   -0.5210 O.2    40  TYR40      -0.2864
     40  CB         2.4250  -25.0450   -2.7370 C.3    40  TYR40       0.0560
     41  CG         3.5090  -25.5470   -3.6620 C.ar   40  TYR40      -0.0198
     42  CD1        4.8870  -25.4130   -3.3260 C.ar   40  TYR40      -0.0009
     43  CD2        3.1740  -26.2490   -4.8240 C.ar   40  TYR40      -0.0009
     44  CE1        5.8750  -25.9420   -4.1590 C.ar   40  TYR40       0.0417
     45  CE2        4.1520  -26.7740   -5.6440 C.ar   40  TYR40       0.0417
     46  CZ         5.4960  -26.6230   -5.3120 C.ar   40  TYR40       0.1957
     47  OH         6.4320  -27.1770   -6.1830 O.3    40  TYR40      -0.2866
     48  N          3.1670  -21.7280    1.0920 N.3    43  ASP43      -0.1225
     49  CA         3.2130  -20.7070    0.0780 C.3    43  ASP43       0.1805
     50  C          1.8550  -20.0500   -0.1680 C.2    43  ASP43       0.2597
     51  O          1.7880  -18.8250   -0.2960 O.2    43  ASP43      -0.2718
     52  CB         3.8320  -21.2950   -1.1960 C.3    43  ASP43       0.1424
     53  CG         5.3330  -21.5460   -1.0320 C.2    43  ASP43       0.3668
     54  OD1        6.0220  -20.6740   -0.4810 O.co2  43  ASP43      -0.2456
     55  OD2        5.8420  -22.5930   -1.4260 O.co2  43  ASP43      -0.2456
     56  N          0.7850  -20.8540   -0.1970 N.am   44  PHE44      -0.1976
     57  CA        -0.5500  -20.3600   -0.4860 C.3    44  PHE44       0.1639
     58  C         -1.0240  -19.4890    0.6540 C.2    44  PHE44       0.2290
     59  O         -1.6580  -18.4540    0.4530 O.2    44  PHE44      -0.2864
     60  CB        -1.5690  -21.5040   -0.7390 C.3    44  PHE44       0.0560
     61  CG        -1.7170  -21.8870   -2.2020 C.ar   44  PHE44      -0.0200
     62  CD1       -2.5290  -21.1410   -3.0570 C.ar   44  PHE44      -0.0042
     63  CD2       -1.0510  -23.0090   -2.7250 C.ar   44  PHE44      -0.0042
     64  CE1       -2.6990  -21.5270   -4.3810 C.ar   44  PHE44      -0.0003
     65  CE2       -1.1860  -23.3790   -4.0680 C.ar   44  PHE44      -0.0003
     66  CZ        -2.0060  -22.6310   -4.8990 C.ar   44  PHE44      -0.0000
     67  N          0.6940  -16.3670    0.4400 N.3    47  MET47      -0.1245
     68  CA         0.1850  -15.6450   -0.6980 C.3    47  MET47       0.1570
     69  C         -1.0790  -14.9050   -0.2900 C.2    47  MET47       0.2261
     70  O         -1.1510  -13.6930   -0.4270 O.2    47  MET47      -0.2867
     71  CB        -0.0430  -16.5950   -1.8900 C.3    47  MET47       0.0387
     72  CG        -0.9180  -16.0400   -3.0100 C.3    47  MET47       0.0595
     73  SD        -1.0710  -17.2170   -4.3730 S.3    47  MET47      -0.1393
     74  CE         0.1670  -16.5180   -5.4590 C.3    47  MET47       0.0692
     75  N         -0.4860  -10.0790  -13.0160 N.3    64  THR64      -0.1203
     76  CA         0.8870  -10.1930  -12.4930 C.3    64  THR64       0.1994
     77  C          1.2120  -11.6760  -12.2620 C.2    64  THR64       0.2617
     78  O          2.2770  -12.1670  -12.6850 O.2    64  THR64      -0.2717
     79  CB         1.1160   -9.3700  -11.1870 C.3    64  THR64       0.1784
     80  OG1        0.9400   -7.9840  -11.4770 O.3    64  THR64      -0.2211
     81  CG2        2.5510   -9.5420  -10.6400 C.3    64  THR64       0.0376
     82  N          0.2870  -12.3900  -11.6140 N.am   65  VAL65      -0.1979
     83  CA         0.5650  -13.7820  -11.2640 C.3    65  VAL65       0.1595
     84  C          0.7420  -14.6790  -12.4970 C.2    65  VAL65       0.2287
     85  O          1.7220  -15.4090  -12.6410 O.2    65  VAL65      -0.2864
     86  CB        -0.4990  -14.3290  -10.3030 C.3    65  VAL65       0.0276
     87  CG1       -0.2690  -15.8160  -10.0380 C.3    65  VAL65       0.0022
     88  CG2       -0.4330  -13.5450   -9.0000 C.3    65  VAL65       0.0022
     89  N          3.8910  -14.1370  -14.5400 N.3    68  GLU68      -0.1231
     90  CA         5.0340  -14.7040  -13.8770 C.3    68  GLU68       0.1699
     91  C          4.9290  -16.2370  -13.9730 C.2    68  GLU68       0.2592
     92  O          5.8450  -16.8960  -14.4290 O.2    68  GLU68      -0.2718
     93  CB         5.0930  -14.1960  -12.4310 C.3    68  GLU68       0.0402
     94  CG         6.4730  -14.2200  -11.7940 C.3    68  GLU68       0.1161
     95  CD         7.5730  -13.7180  -12.7240 C.2    68  GLU68       0.3649
     96  OE1        7.4190  -12.6200  -13.3140 O.co2  68  GLU68      -0.2457
     97  OE2        8.5890  -14.4420  -12.8670 O.co2  68  GLU68      -0.2457
     98  N          3.7650  -16.7900  -13.6460 N.am   69  LEU69      -0.1980
     99  CA         3.5770  -18.2280  -13.7820 C.3    69  LEU69       0.1596
    100  C          3.9780  -18.8340  -15.1420 C.2    69  LEU69       0.2287
    101  O          4.5380  -19.9260  -15.1900 O.2    69  LEU69      -0.2864
    102  CB         2.1360  -18.5290  -13.4910 C.3    69  LEU69       0.0297
    103  CG         1.6070  -19.9380  -13.4110 C.3    69  LEU69       0.0022
    104  CD1        2.4820  -20.7660  -12.4730 C.3    69  LEU69       0.0001
    105  CD2        0.1630  -19.8660  -12.9390 C.3    69  LEU69       0.0001
    106  N          5.8420  -17.2280  -17.6940 N.3    71  ARG71      -0.1245
    107  CA         6.8660  -16.5350  -18.4430 C.3    71  ARG71       0.1563
    108  C          7.9500  -17.4600  -19.0710 C.2    71  ARG71       0.2260
    109  O          8.4510  -17.1640  -20.1420 O.2    71  ARG71      -0.2867
    110  CB         7.4710  -15.4410  -17.5780 C.3    71  ARG71       0.0307
    111  CG         8.1920  -15.9680  -16.3540 C.3    71  ARG71       0.0489
    112  CD         9.5700  -15.3340  -16.2740 C.3    71  ARG71       0.2205
    113  NE         9.5190  -13.9870  -16.8030 N.pl3  71  ARG71      -0.0865
    114  CZ         9.8290  -12.8990  -16.1110 C.cat  71  ARG71       0.5346
    115  NH1       10.2500  -12.9970  -14.8520 N.pl3  71  ARG71       0.1354
    116  NH2        9.7580  -11.7110  -16.6960 N.pl3  71  ARG71       0.1354
    117  N          3.3240  -25.8180  -18.8230 N.3    75  ASN75      -0.1225
    118  CA         3.1520  -27.2790  -18.6530 C.3    75  ASN75       0.1785
    119  C          1.9340  -27.5240  -17.7960 C.2    75  ASN75       0.2597
    120  O          1.3300  -26.5620  -17.3020 O.2    75  ASN75      -0.2718
    121  CB         4.4000  -27.9480  -18.0700 C.3    75  ASN75       0.1169
    122  CG         4.7440  -27.4410  -16.6770 C.2    75  ASN75       0.2627
    123  OD1        3.8600  -27.2540  -15.8040 O.2    75  ASN75      -0.2716
    124  ND2        6.0390  -27.2090  -16.4480 N.am   75  ASN75      -0.0877
    125  N          1.5370  -28.7860  -17.6490 N.am   76  TRP76      -0.1962
    126  CA         0.3310  -29.1330  -16.8910 C.3    76  TRP76       0.1771
    127  C          0.3750  -28.6630  -15.4660 C.2    76  TRP76       0.2620
    128  O         -0.5860  -28.0300  -14.9960 O.2    76  TRP76      -0.2715
    129  CB         0.0500  -30.6030  -16.9820 C.3    76  TRP76       0.0590
    130  CG        -0.3820  -31.0130  -18.3820 C.ar   76  TRP76       0.0006
    131  CD1        0.2550  -31.9150  -19.2530 C.ar   76  TRP76       0.0946
    132  CD2       -1.5880  -30.5670  -19.1090 C.ar   76  TRP76       0.0152
    133  NE1       -0.4510  -32.0280  -20.4420 N.ar   76  TRP76      -0.2442
    134  CE2       -1.5590  -31.2480  -20.4180 C.ar   76  TRP76       0.0810
    135  CE3       -2.6320  -29.6940  -18.8250 C.ar   76  TRP76       0.0012
    136  CZ2       -2.5360  -31.0390  -21.3720 C.ar   76  TRP76       0.0191
    137  CZ3       -3.6120  -29.4720  -19.8120 C.ar   76  TRP76       0.0001
    138  CH2       -3.5530  -30.1250  -21.0540 C.ar   76  TRP76       0.0015
    139  N          1.5070  -28.8960  -14.7860 N.am   77  GLY77      -0.1940
    140  CA         1.7340  -28.3640  -13.4230 C.3    77  GLY77       0.2014
    141  C          1.3520  -26.8990  -13.3190 C.2    77  GLY77       0.2638
    142  O          0.5380  -26.4920  -12.4330 O.2    77  GLY77      -0.2714
    143  N          1.8840  -26.1000  -14.2530 N.am   78  ARG78      -0.1977
    144  CA         1.6100  -24.6650  -14.2480 C.3    78  ARG78       0.1597
    145  C          0.1400  -24.3210  -14.5160 C.2    78  ARG78       0.2287
    146  O         -0.3970  -23.3540  -13.9620 O.2    78  ARG78      -0.2864
    147  CB         2.5300  -23.9220  -15.2000 C.3    78  ARG78       0.0334
    148  CG         3.9940  -24.0600  -14.8270 C.3    78  ARG78       0.0492
    149  CD         4.8730  -23.3470  -15.8140 C.3    78  ARG78       0.2205
    150  NE         6.2430  -23.7210  -15.5520 N.pl3  78  ARG78      -0.0865
    151  CZ         7.2910  -22.9200  -15.7050 C.cat  78  ARG78       0.5346
    152  NH1        7.1440  -21.6730  -16.1460 N.pl3  78  ARG78       0.1354
    153  NH2        8.4950  -23.3750  -15.4000 N.pl3  78  ARG78       0.1354
    154  N         -2.3290  -26.3480  -13.6780 N.3    80  VAL80      -0.1231
    155  CA        -2.9320  -26.6600  -12.4160 C.3    80  VAL80       0.1692
    156  C         -2.7680  -25.4640  -11.4690 C.2    80  VAL80       0.2591
    157  O         -3.7250  -25.0280  -10.8500 O.2    80  VAL80      -0.2718
    158  CB        -2.3170  -27.9270  -11.7940 C.3    80  VAL80       0.0266
    159  CG1       -2.9370  -28.1510  -10.4250 C.3    80  VAL80       0.0020
    160  CG2       -2.5710  -29.1190  -12.7070 C.3    80  VAL80       0.0020
    161  N         -1.5590  -24.9170  -11.3900 N.am   81  ALA81      -0.1980
    162  CA        -1.3110  -23.7160  -10.5680 C.3    81  ALA81       0.1597
    163  C         -2.2510  -22.5480  -10.9470 C.2    81  ALA81       0.2287
    164  O         -2.8500  -21.8520  -10.0880 O.2    81  ALA81      -0.2864
    165  CB         0.1610  -23.2980  -10.7240 C.3    81  ALA81       0.0319
    166  N         -4.7260  -20.7580   -8.4100 N.3    85  PHE85      -0.1241
    167  CA        -4.6360  -19.3540   -8.1040 C.3    85  PHE85       0.1605
    168  C         -5.9700  -18.6550   -8.3500 C.2    85  PHE85       0.2264
    169  O         -6.3620  -17.7680   -7.6020 O.2    85  PHE85      -0.2867
    170  CB        -3.5330  -18.6860   -8.9220 C.3    85  PHE85       0.0534
    171  CG        -3.5450  -17.2030   -8.8010 C.ar   85  PHE85      -0.0203
    172  CD1       -3.2490  -16.5940   -7.5730 C.ar   85  PHE85      -0.0042
    173  CD2       -3.8910  -16.3990   -9.8900 C.ar   85  PHE85      -0.0042
    174  CE1       -3.3030  -15.1930   -7.4240 C.ar   85  PHE85      -0.0003
    175  CE2       -3.9440  -15.0020   -9.7460 C.ar   85  PHE85      -0.0003
    176  CZ        -3.6350  -14.4020   -8.5200 C.ar   85  PHE85      -0.0000
    177  N         -4.6950  -34.6750  -20.6120 N.3   130  PHE130     -0.1241
    178  CA        -4.6730  -34.4210  -19.1810 C.3   130  PHE130      0.1605
    179  C         -5.5770  -35.3510  -18.3920 C.2   130  PHE130      0.2264
    180  O         -5.2620  -35.7070  -17.2470 O.2   130  PHE130     -0.2867
    181  CB        -5.0690  -32.9890  -18.8840 C.3   130  PHE130      0.0534
    182  CG        -5.0460  -32.6550  -17.4270 C.ar  130  PHE130     -0.0203
    183  CD1       -3.8370  -32.5660  -16.7480 C.ar  130  PHE130     -0.0042
    184  CD2       -6.2170  -32.4500  -16.7360 C.ar  130  PHE130     -0.0042
    185  CE1       -3.7950  -32.2950  -15.3970 C.ar  130  PHE130     -0.0003
    186  CE2       -6.1950  -32.1220  -15.3820 C.ar  130  PHE130     -0.0003
    187  CZ        -4.9910  -32.0490  -14.7120 C.ar  130  PHE130     -0.0000
    188  N         -3.5960  -38.3790  -17.8200 N.3   133  LEU133     -0.1231
    189  CA        -2.6390  -38.2510  -16.7630 C.3   133  LEU133      0.1693
    190  C         -3.3880  -38.4210  -15.4450 C.2   133  LEU133      0.2592
    191  O         -2.9930  -39.2360  -14.5790 O.2   133  LEU133     -0.2718
    192  CB        -2.0400  -36.8690  -16.8120 C.3   133  LEU133      0.0284
    193  CG        -0.5490  -36.6180  -16.6570 C.3   133  LEU133      0.0019
    194  CD1       -0.3920  -35.1870  -16.1420 C.3   133  LEU133      0.0001
    195  CD2        0.1360  -37.6120  -15.7300 C.3   133  LEU133      0.0001
    196  N         -4.4840  -37.6790  -15.2790 N.am  134  TYR134     -0.1976
    197  CA        -4.9260  -37.4140  -13.9120 C.3   134  TYR134      0.1639
    198  C         -6.3920  -37.6000  -13.4980 C.2   134  TYR134      0.2290
    199  O         -6.7400  -37.2160  -12.3890 O.2   134  TYR134     -0.2864
    200  CB        -4.4620  -36.0220  -13.5240 C.3   134  TYR134      0.0560
    201  CG        -3.6630  -35.8860  -12.2450 C.ar  134  TYR134     -0.0198
    202  CD1       -4.2660  -36.0800  -11.0120 C.ar  134  TYR134     -0.0009
    203  CD2       -2.2970  -35.4630  -12.2680 C.ar  134  TYR134     -0.0009
    204  CE1       -3.5550  -35.9100   -9.8360 C.ar  134  TYR134      0.0417
    205  CE2       -1.5880  -35.2710  -11.0960 C.ar  134  TYR134      0.0417
    206  CZ        -2.2300  -35.5120   -9.8700 C.ar  134  TYR134      0.1957
    207  OH        -1.5990  -35.3270   -8.6560 O.3   134  TYR134     -0.2866
@<TRIPOS>BOND
     1   136   138   ar
     2   136   134   ar
     3   138   137   ar
     4   177   178    1
     5   133   134   ar
     6   133   131   ar
     7   134   132   ar
     8   109   108    2
     9   137   135   ar
    10   131   130   ar
    11   178   181    1
    12   178   179    1
    13   132   135   ar
    14   132   130   ar
    15   108   107    1
    16   181   182    1
    17   117   118    1
    18   118   121    1
    19   118   119    1
    20   107   106    1
    21   107   110    1
    22   179   180    2
    23   130   129    1
    24   121   122    1
    25   188   189    1
    26   119   125   am
    27   119   120    2
    28   125   126    1
    29   110   111    1
    30   182   183   ar
    31   182   184   ar
    32   129   126    1
    33   126   127    1
    34   192   189    1
    35   192   193    1
    36   113   112    1
    37   113   114    2
    38   189   190    1
    39   183   185   ar
    40   184   186   ar
    41   116   114    1
    42   122   124   am
    43   122   123    2
    44   193   194    1
    45   193   195    1
    46   111   112    1
    47   152   151    1
    48   114   115    1
    49   149   150    1
    50   149   148    1
    51   151   150    2
    52   151   153    1
    53   127   128    2
    54   127   139   am
    55   190   196   am
    56   190   191    2
    57   185   187   ar
    58   186   187   ar
    59   196   197    1
    60   147   148    1
    61   147   144    1
    62   101   100    2
    63   100    99    1
    64   139   140    1
    65    89    90    1
    66   145   144    1
    67   145   146    2
    68    92    91    2
    69   143   144    1
    70   143   141   am
    71    91    90    1
    72    91    98   am
    73   197   200    1
    74   197   198    1
    75    90    93    1
    76    99    98    1
    77    99   102    1
    78   154   155    1
    79   200   201    1
    80   198   199    2
    81   102   103    1
    82   140   141    1
    83   103   105    1
    84   103   104    1
    85   141   142    2
    86    96    95   ar
    87    75    76    1
    88    97    95   ar
    89    95    94    1
    90   160   158    1
    91    78    77    2
    92    85    84    2
    93    84    83    1
    94    76    77    1
    95    76    79    1
    96    93    94    1
    97   155   158    1
    98   155   156    1
    99   203   201   ar
   100   203   205   ar
   101    77    82   am
   102   201   202   ar
   103   158   159    1
   104    82    83    1
   105    80    79    1
   106   156   161   am
   107   156   157    2
   108   161   162    1
   109    83    86    1
   110    79    81    1
   111   205   206   ar
   112     5     2    1
   113   202   204   ar
   114   163   162    1
   115   163   164    2
   116   165   162    1
   117    86    87    1
   118    86    88    1
   119   173   175   ar
   120   173   171   ar
   121   206   204   ar
   122   206   207    1
   123   175   176   ar
   124     2     1    1
   125     2     3    1
   126   170   171    1
   127   170   167    1
   128   171   172   ar
   129     3     4    2
   130    23    21   ar
   131    23    24   ar
   132   176   174   ar
   133   166   167    1
   134   168   167    1
   135   168   169    2
   136    21    19   ar
   137    24    22   ar
   138   172   174   ar
   139    19    18    1
   140    19    20   ar
   141    22    20   ar
   142    18    15    1
   143    13    11   ar
   144    47    46    1
   145    15    14    1
   146    15    16    1
   147    14     8   am
   148    45    46   ar
   149    45    43   ar
   150    10    11    1
   151    10     7    1
   152    74    73    1
   153    11    12   ar
   154    46    44   ar
   155    66    64   ar
   156    66    65   ar
   157     6     7    1
   158    43    41   ar
   159     8     7    1
   160     8     9    2
   161    16    17    2
   162    64    62   ar
   163    73    72    1
   164    44    42   ar
   165    65    63   ar
   166    41    42   ar
   167    41    40    1
   168    32    31    1
   169    32    33    2
   170    30    31    1
   171    30    29    1
   172    62    61   ar
   173    72    71    1
   174    35    33    1
   175    29    26    1
   176    40    37    1
   177    33    34    1
   178    63    61   ar
   179    61    60    1
   180    71    68    1
   181    36    37    1
   182    36    27   am
   183    26    25    1
   184    26    27    1
   185    55    53   ar
   186    37    38    1
   187    52    53    1
   188    52    49    1
   189    27    28    2
   190    53    54   ar
   191    60    57    1
   192    68    69    1
   193    68    67    1
   194    39    38    2
   195    57    56    1
   196    57    58    1
   197    70    69    2
   198    51    50    2
   199    56    50   am
   200    50    49    1
   201    49    48    1
   202    59    58    2
