@<TRIPOS>MOLECULE
tmp/4aq4A00.pdb
 116 112 0 0 0
SMALL
GASTEIGER

@<TRIPOS>ATOM
      1  N         50.9420   21.4340  180.2500 N.3    46  TYR46      -0.1241
      2  CA        51.2010   22.5430  179.3240 C.3    46  TYR46       0.1605
      3  C         52.2420   23.5410  179.8660 C.2    46  TYR46       0.2264
      4  O         53.0350   24.0910  179.1050 O.2    46  TYR46      -0.2867
      5  CB        49.8940   23.2910  179.0480 C.3    46  TYR46       0.0534
      6  CG        48.9490   22.6660  178.0390 C.ar   46  TYR46      -0.0201
      7  CD1       49.4080   22.1880  176.8070 C.ar   46  TYR46      -0.0009
      8  CD2       47.5860   22.6010  178.3070 C.ar   46  TYR46      -0.0009
      9  CE1       48.5210   21.6460  175.8730 C.ar   46  TYR46       0.0417
     10  CE2       46.7020   22.0620  177.3890 C.ar   46  TYR46       0.0417
     11  CZ        47.1720   21.6000  176.1790 C.ar   46  TYR46       0.1957
     12  OH        46.2850   21.0860  175.2800 O.3    46  TYR46      -0.2866
     13  N         49.8040   25.7870  174.9890 N.3    69  TYR69      -0.1227
     14  CA        48.3860   26.0370  175.2670 C.3    69  TYR69       0.1736
     15  C         47.9470   27.4200  174.8290 C.2    69  TYR69       0.2595
     16  O         48.7750   28.3170  174.5890 O.2    69  TYR69      -0.2718
     17  CB        47.9700   25.7770  176.7330 C.3    69  TYR69       0.0548
     18  CG        48.7520   26.4560  177.8600 C.ar   69  TYR69      -0.0200
     19  CD1       49.9340   27.1570  177.6310 C.ar   69  TYR69      -0.0009
     20  CD2       48.3020   26.3570  179.1660 C.ar   69  TYR69      -0.0009
     21  CE1       50.6380   27.7400  178.6880 C.ar   69  TYR69       0.0417
     22  CE2       48.9910   26.9310  180.2210 C.ar   69  TYR69       0.0417
     23  CZ        50.1540   27.6200  179.9750 C.ar   69  TYR69       0.1957
     24  OH        50.8270   28.1870  181.0360 O.3    69  TYR69      -0.2866
     25  N         46.6330   27.5700  174.7190 N.am   70  GLU70      -0.1979
     26  CA        46.0280   28.7510  174.1130 C.3    70  GLU70       0.1602
     27  C         46.4950   30.0260  174.7960 C.2    70  GLU70       0.2287
     28  O         46.7310   31.0380  174.1340 O.2    70  GLU70      -0.2864
     29  CB        44.4910   28.6190  174.1400 C.3    70  GLU70       0.0415
     30  CG        43.7480   29.1810  175.3910 C.3    70  GLU70       0.1163
     31  CD        43.8520   28.3000  176.6510 C.2    70  GLU70       0.3649
     32  OE1       44.9370   27.7370  176.9380 O.co2  70  GLU70      -0.2457
     33  OE2       42.8380   28.1840  177.3780 O.co2  70  GLU70      -0.2457
     34  N         39.4130   23.0980  172.2590 N.3   125  SER125     -0.1217
     35  CA        38.3380   22.5540  173.0830 C.3   125  SER125      0.1889
     36  C         37.4130   23.6690  173.5310 C.2   125  SER125      0.2288
     37  O         37.7370   24.8490  173.3870 O.2   125  SER125     -0.2866
     38  CB        38.9530   21.9560  174.3350 C.3   125  SER125      0.2089
     39  OG        39.7210   22.9580  174.9830 O.3   125  SER125     -0.2183
     40  N         40.8320   22.9040  185.3220 N.3   173  TRP173     -0.1241
     41  CA        41.2690   24.2170  184.8140 C.3   173  TRP173      0.1605
     42  C         40.3970   25.3790  185.2780 C.2   173  TRP173      0.2264
     43  O         39.7600   26.0440  184.4610 O.2   173  TRP173     -0.2867
     44  CB        41.3320   24.1860  183.2900 C.3   173  TRP173      0.0550
     45  CG        42.3310   23.1890  182.7650 C.ar  173  TRP173      0.0003
     46  CD1       42.0900   21.8880  182.4320 C.ar  173  TRP173      0.0946
     47  CD2       43.7310   23.4120  182.5330 C.ar  173  TRP173      0.0152
     48  NE1       43.2570   21.2870  181.9900 N.ar  173  TRP173     -0.2442
     49  CE2       44.2760   22.2040  182.0510 C.ar  173  TRP173      0.0810
     50  CE3       44.5730   24.5190  182.6760 C.ar  173  TRP173      0.0012
     51  CZ2       45.6270   22.0750  181.7100 C.ar  173  TRP173      0.0191
     52  CZ3       45.9140   24.3880  182.3340 C.ar  173  TRP173      0.0001
     53  CH2       46.4240   23.1770  181.8660 C.ar  173  TRP173      0.0015
     54  N         40.3220   28.7770  183.4490 N.3   176  TRP176     -0.1241
     55  CA        39.7530   28.6930  182.1080 C.3   176  TRP176      0.1605
     56  C         38.2400   28.5510  182.1720 C.2   176  TRP176      0.2264
     57  O         37.5140   29.1820  181.3960 O.2   176  TRP176     -0.2867
     58  CB        40.3580   27.4800  181.3950 C.3   176  TRP176      0.0550
     59  CG        39.8430   27.2020  180.0030 C.ar  176  TRP176      0.0003
     60  CD1       39.7860   28.0730  178.9550 C.ar  176  TRP176      0.0946
     61  CD2       39.3670   25.9420  179.5090 C.ar  176  TRP176      0.0152
     62  NE1       39.2900   27.4300  177.8360 N.ar  176  TRP176     -0.2442
     63  CE2       39.0220   26.1230  178.1560 C.ar  176  TRP176      0.0810
     64  CE3       39.2090   24.6780  180.0800 C.ar  176  TRP176      0.0012
     65  CZ2       38.5120   25.0860  177.3690 C.ar  176  TRP176      0.0191
     66  CZ3       38.7020   23.6440  179.2960 C.ar  176  TRP176      0.0001
     67  CH2       38.3640   23.8540  177.9570 C.ar  176  TRP176      0.0015
     68  N         43.9600   19.0970  185.1360 N.3   234  ASP234     -0.1239
     69  CA        43.0410   18.0250  184.7450 C.3   234  ASP234      0.1674
     70  C         42.7960   16.9690  185.8160 C.2   234  ASP234      0.2266
     71  O         42.3110   15.8750  185.5020 O.2   234  ASP234     -0.2867
     72  CB        43.5390   17.3100  183.4790 C.3   234  ASP234      0.1410
     73  CG        43.6270   18.2240  182.2890 C.2   234  ASP234      0.3668
     74  OD1       42.5820   18.4860  181.6470 O.co2 234  ASP234     -0.2456
     75  OD2       44.7570   18.6690  181.9850 O.co2 234  ASP234     -0.2456
     76  N         37.6800   19.9150  180.1060 N.3   251  SER251     -0.1217
     77  CA        37.8900   20.0510  178.6700 C.3   251  SER251      0.1889
     78  C         37.0910   19.0150  177.8960 C.2   251  SER251      0.2288
     79  O         36.9650   17.8540  178.3130 O.2   251  SER251     -0.2866
     80  CB        39.3760   19.8720  178.3190 C.3   251  SER251      0.2089
     81  OG        39.5590   19.8580  176.8960 O.3   251  SER251     -0.2183
     82  N         38.2580   17.7770  175.4650 N.3   253  GLY253     -0.1225
     83  CA        39.3550   16.8650  175.1660 C.3   253  GLY253      0.1811
     84  C         39.5870   15.7730  176.2050 C.2   253  GLY253      0.2280
     85  O         40.3810   14.8490  175.9810 O.2   253  GLY253     -0.2866
     86  N         39.7580   26.4950  174.4400 N.3   287  GLY287     -0.1210
     87  CA        40.9570   26.1360  175.1680 C.3   287  GLY287      0.1956
     88  C         41.7800   25.2100  174.2950 C.2   287  GLY287      0.2612
     89  O         41.5820   25.1230  173.0640 O.2   287  GLY287     -0.2717
     90  N         42.6940   24.4930  174.9210 N.am  288  GLY288     -0.1956
     91  CA        43.5320   23.5770  174.1760 C.3   288  GLY288      0.1869
     92  C         44.8400   24.2480  173.8350 C.2   288  GLY288      0.2309
     93  O         45.3920   24.9920  174.6550 O.2   288  GLY288     -0.2863
     94  N         38.3040   16.8390  171.4140 N.3   327  TYR327     -0.1241
     95  CA        38.6450   18.1640  170.9020 C.3   327  TYR327      0.1605
     96  C         37.7360   18.4610  169.6990 C.2   327  TYR327      0.2264
     97  O         37.2960   17.5490  169.0030 O.2   327  TYR327     -0.2867
     98  CB        40.1180   18.2250  170.4960 C.3   327  TYR327      0.0534
     99  CG        41.0610   18.3110  171.6740 C.ar  327  TYR327     -0.0201
    100  CD1       41.1260   19.4660  172.4540 C.ar  327  TYR327     -0.0009
    101  CD2       41.8930   17.2510  172.0070 C.ar  327  TYR327     -0.0009
    102  CE1       41.9930   19.5510  173.5460 C.ar  327  TYR327      0.0417
    103  CE2       42.7670   17.3310  173.0890 C.ar  327  TYR327      0.0417
    104  CZ        42.8090   18.4780  173.8510 C.ar  327  TYR327      0.1957
    105  OH        43.6850   18.5570  174.9110 O.3   327  TYR327     -0.2866
    106  N         47.7350   33.0080  184.8150 N.3   378  ARG378     -0.1245
    107  CA        47.0350   31.7840  185.2110 C.3   378  ARG378      0.1563
    108  C         47.4780   31.3090  186.5930 C.2   378  ARG378      0.2260
    109  O         46.6590   30.8640  187.3930 O.2   378  ARG378     -0.2867
    110  CB        47.2810   30.6640  184.1930 C.3   378  ARG378      0.0307
    111  CG        46.3640   30.6920  182.9720 C.3   378  ARG378      0.0489
    112  CD        45.0010   30.0790  183.3310 C.3   378  ARG378      0.2205
    113  NE        44.1120   29.9480  182.1780 N.pl3 378  ARG378     -0.0865
    114  CZ        44.1480   28.9280  181.3210 C.cat 378  ARG378      0.5346
    115  NH1       45.0510   27.9570  181.4610 N.pl3 378  ARG378      0.1354
    116  NH2       43.2800   28.8810  180.3140 N.pl3 378  ARG378      0.1354
@<TRIPOS>BOND
     1    97    96    2
     2    96    95    1
     3    98    95    1
     4    98    99    1
     5    95    94    1
     6    99   101   ar
     7    99   100   ar
     8   101   103   ar
     9    34    35    1
    10   100   102   ar
    11    89    88    2
    12    35    36    1
    13    35    38    1
    14   103   104   ar
    15    37    36    2
    16   102   104   ar
    17    92    91    1
    18    92    93    2
    19   104   105    1
    20    26    29    1
    21    26    25    1
    22    26    27    1
    23    28    27    2
    24    29    30    1
    25    91    90    1
    26    88    90   am
    27    88    87    1
    28    38    39    1
    29    86    87    1
    30    16    15    2
    31    25    15   am
    32    15    14    1
    33    13    14    1
    34    83    82    1
    35    83    84    1
    36    14    17    1
    37    12    11    1
    38    30    31    1
    39     9    11   ar
    40     9     7   ar
    41    85    84    2
    42    11    10   ar
    43    31    32   ar
    44    31    33   ar
    45    17    18    1
    46     7     6   ar
    47    81    80    1
    48    65    67   ar
    49    65    63   ar
    50    10     8   ar
    51    19    18   ar
    52    19    21   ar
    53    62    63   ar
    54    62    60   ar
    55    18    20   ar
    56    78    79    2
    57    78    77    1
    58    67    66   ar
    59     6     8   ar
    60     6     5    1
    61    63    61   ar
    62    80    77    1
    63    77    76    1
    64    21    23   ar
    65    60    59   ar
    66     5     2    1
    67     4     3    2
    68    20    22   ar
    69    66    64   ar
    70     2     3    1
    71     2     1    1
    72    61    59   ar
    73    61    64   ar
    74    23    22   ar
    75    23    24    1
    76    59    58    1
    77   116   114    1
    78   114   115    1
    79   114   113    2
    80    58    55    1
    81    57    56    2
    82    74    73   ar
    83    51    53   ar
    84    51    49   ar
    85    53    52   ar
    86    75    73   ar
    87    48    49   ar
    88    48    46   ar
    89    49    47   ar
    90    55    56    1
    91    55    54    1
    92   113   112    1
    93    73    72    1
    94    52    50   ar
    95    46    45   ar
    96    47    50   ar
    97    47    45   ar
    98    45    44    1
    99   111   112    1
   100   111   110    1
   101    44    41    1
   102    72    69    1
   103   110   107    1
   104    43    42    2
   105    69    68    1
   106    69    70    1
   107    41    42    1
   108    41    40    1
   109   106   107    1
   110   107   108    1
   111    71    70    2
   112   108   109    2
