@<TRIPOS>MOLECULE
tmp/4aq7C00.pdb
 159 156 0 0 0
SMALL
GASTEIGER

@<TRIPOS>ATOM
      1  N        -55.1100   38.7490  -36.1790 N.3    40  MET40      -0.1230
      2  CA       -53.6450   38.7830  -36.1530 C.3    40  MET40       0.1702
      3  C        -53.0860   38.8150  -37.5780 C.2    40  MET40       0.2592
      4  O        -53.3560   37.9400  -38.3700 O.2    40  MET40      -0.2718
      5  CB       -53.0590   37.5590  -35.4010 C.3    40  MET40       0.0401
      6  CG       -53.4960   37.3570  -33.9470 C.3    40  MET40       0.0596
      7  SD       -52.5590   36.0790  -33.0550 S.3    40  MET40      -0.1393
      8  CE       -53.2970   36.0110  -31.4370 C.3    40  MET40       0.0692
      9  N        -52.2700   39.8170  -37.8900 N.am   41  LEU41      -0.1966
     10  CA       -51.7740   40.0160  -39.2470 C.3    41  LEU41       0.1713
     11  C        -50.9250   38.8300  -39.6810 C.2    41  LEU41       0.2458
     12  O        -50.2120   38.2860  -38.8760 O.2    41  LEU41      -0.2730
     13  CB       -50.9980   41.3190  -39.3440 C.3    41  LEU41       0.0310
     14  CG       -49.4940   41.3220  -39.0750 C.3    41  LEU41       0.0022
     15  CD1      -48.8430   42.6480  -39.4670 C.3    41  LEU41       0.0001
     16  CD2      -49.2020   41.0580  -37.6180 C.3    41  LEU41       0.0001
     17  N        -51.0290   38.4150  -40.9730 N.am   42  PRO42      -0.2716
     18  CA       -50.4300   37.1900  -41.4980 C.3    42  PRO42       0.1536
     19  C        -49.0190   37.2850  -41.9580 C.2    42  PRO42       0.2598
     20  O        -48.5910   38.3420  -42.4220 O.2    42  PRO42      -0.2715
     21  CB       -51.2670   36.9160  -42.7240 C.3    42  PRO42       0.0310
     22  CG       -51.6930   38.2740  -43.1900 C.3    42  PRO42       0.0237
     23  CD       -51.9350   39.0310  -41.9570 C.3    42  PRO42       0.0939
     24  N        -48.3150   36.1610  -41.8990 N.am   43  TYR43      -0.1974
     25  CA       -46.9990   36.0640  -42.5390 C.3    43  TYR43       0.1639
     26  C        -47.2110   35.7450  -43.9970 C.2    43  TYR43       0.2290
     27  O        -47.8840   34.7810  -44.3000 O.2    43  TYR43      -0.2864
     28  CB       -46.1210   34.9740  -41.9150 C.3    43  TYR43       0.0560
     29  CG       -44.7990   34.8870  -42.6230 C.ar   43  TYR43      -0.0198
     30  CD1      -43.7570   35.7660  -42.3140 C.ar   43  TYR43      -0.0009
     31  CD2      -44.5920   33.9600  -43.6400 C.ar   43  TYR43      -0.0009
     32  CE1      -42.5380   35.7050  -42.9710 C.ar   43  TYR43       0.0417
     33  CE2      -43.3720   33.8980  -44.3350 C.ar   43  TYR43       0.0417
     34  CZ       -42.3520   34.7720  -44.0060 C.ar   43  TYR43       0.1957
     35  OH       -41.1480   34.7070  -44.6960 O.3    43  TYR43      -0.2866
     36  N        -54.4490   29.5330  -46.5150 N.3    49  HIS49      -0.1241
     37  CA       -55.1010   28.2410  -46.2870 C.3    49  HIS49       0.1621
     38  C        -56.3480   28.4500  -45.4550 C.2    49  HIS49       0.2264
     39  O        -56.6460   29.5980  -45.0050 O.2    49  HIS49      -0.2867
     40  CB       -54.1580   27.2250  -45.6830 C.3    49  HIS49       0.0745
     41  CG       -53.4520   27.7180  -44.4700 C.ar   49  HIS49       0.0817
     42  ND1      -54.0490   27.8160  -43.2800 N.ar   49  HIS49      -0.2268
     43  CD2      -52.1640   28.1760  -44.2990 C.ar   49  HIS49       0.1154
     44  CE1      -53.1880   28.3140  -42.3940 C.ar   49  HIS49       0.1986
     45  NE2      -52.0330   28.5320  -43.0270 N.ar   49  HIS49      -0.2212
     46  N        -57.0680   27.6420  -42.4700 N.3    51  GLY51      -0.1210
     47  CA       -56.7440   28.3530  -41.2170 C.3    51  GLY51       0.1956
     48  C        -56.9240   29.8700  -41.3360 C.2    51  GLY51       0.2611
     49  O        -57.5930   30.5030  -40.5240 O.2    51  GLY51      -0.2717
     50  N        -56.3540   30.4860  -42.3580 N.am   52  HIS52      -0.1975
     51  CA       -56.4380   31.9230  -42.3840 C.3    52  HIS52       0.1656
     52  C        -57.8800   32.3150  -42.5920 C.2    52  HIS52       0.2291
     53  O        -58.3220   33.3840  -42.1200 O.2    52  HIS52      -0.2864
     54  CB       -55.6210   32.5300  -43.5070 C.3    52  HIS52       0.0771
     55  CG       -54.1390   32.2170  -43.4970 C.ar   52  HIS52       0.0820
     56  ND1      -53.5620   31.4450  -44.4510 N.ar   52  HIS52      -0.2267
     57  CD2      -53.1050   32.7070  -42.7200 C.ar   52  HIS52       0.1154
     58  CE1      -52.2320   31.3990  -44.2530 C.ar   52  HIS52       0.1986
     59  NE2      -51.9490   32.1590  -43.1910 N.ar   52  HIS52      -0.2212
     60  N        -59.9470   32.3570  -39.3440 N.3    55  ASN55      -0.1225
     61  CA       -59.5280   33.5140  -38.5320 C.3    55  ASN55       0.1785
     62  C        -60.1060   34.7940  -39.0910 C.2    55  ASN55       0.2597
     63  O        -60.7270   35.5680  -38.3720 O.2    55  ASN55      -0.2718
     64  CB       -57.9910   33.5890  -38.5670 C.3    55  ASN55       0.1169
     65  CG       -57.3820   34.4100  -37.4390 C.2    55  ASN55       0.2627
     66  OD1      -56.4220   33.9750  -36.8290 O.2    55  ASN55      -0.2716
     67  ND2      -57.8840   35.6010  -37.2010 N.am   55  ASN55      -0.0877
     68  N        -59.9390   34.9950  -40.4040 N.am   56  TYR56      -0.1976
     69  CA       -60.3440   36.2240  -41.0310 C.3    56  TYR56       0.1639
     70  C        -61.8330   36.3070  -41.2200 C.2    56  TYR56       0.2290
     71  O        -62.3940   37.3990  -41.1760 O.2    56  TYR56      -0.2864
     72  CB       -59.5240   36.4490  -42.3070 C.3    56  TYR56       0.0560
     73  CG       -58.0410   36.5870  -41.9470 C.ar   56  TYR56      -0.0198
     74  CD1      -57.6580   37.3280  -40.8470 C.ar   56  TYR56      -0.0009
     75  CD2      -57.0580   35.9380  -42.6530 C.ar   56  TYR56      -0.0009
     76  CE1      -56.3360   37.4130  -40.4450 C.ar   56  TYR56       0.0417
     77  CE2      -55.7340   36.0360  -42.2900 C.ar   56  TYR56       0.0417
     78  CZ       -55.3620   36.7720  -41.1740 C.ar   56  TYR56       0.1957
     79  OH       -54.0410   36.8870  -40.7580 O.3    56  TYR56      -0.2866
     80  N        -47.0700   40.7750  -41.6640 N.3    80  ASP80      -0.1239
     81  CA       -45.9260   40.3900  -40.7840 C.3    80  ASP80       0.1674
     82  C        -44.8370   39.8310  -41.6920 C.2    80  ASP80       0.2266
     83  O        -44.7860   38.6220  -41.9310 O.2    80  ASP80      -0.2867
     84  CB       -46.3530   39.3420  -39.6810 C.3    80  ASP80       0.1410
     85  CG       -45.2330   39.0670  -38.5920 C.2    80  ASP80       0.3668
     86  OD1      -44.0330   39.3580  -38.8710 O.co2  80  ASP80      -0.2456
     87  OD2      -45.5440   38.5390  -37.4640 O.co2  80  ASP80      -0.2456
     88  N        -57.1860   35.5430  -32.8560 N.3   529  GLY529     -0.1210
     89  CA       -56.0440   34.8450  -33.3990 C.3   529  GLY529      0.1956
     90  C        -55.9480   33.4350  -32.9250 C.2   529  GLY529      0.2612
     91  O        -56.7060   33.0110  -32.0670 O.2   529  GLY529     -0.2717
     92  N        -54.9960   32.7020  -33.4640 N.am  530  GLY530     -0.1956
     93  CA       -54.8220   31.3130  -33.0550 C.3   530  GLY530      0.1869
     94  C        -54.2520   31.0500  -31.6630 C.2   530  GLY530      0.2309
     95  O        -53.3120   31.7440  -31.2110 O.2   530  GLY530     -0.2863
     96  N        -52.1290   28.9340  -30.7360 N.3   532  GLU532     -0.1231
     97  CA       -50.6680   28.7220  -30.8170 C.3   532  GLU532      0.1699
     98  C        -49.9070   29.9380  -30.2520 C.2   532  GLU532      0.2592
     99  O        -48.7360   29.8190  -29.8830 O.2   532  GLU532     -0.2718
    100  CB       -50.2430   28.4820  -32.3040 C.3   532  GLU532      0.0402
    101  CG       -50.8750   29.4870  -33.2980 C.3   532  GLU532      0.1161
    102  CD       -50.2690   29.5700  -34.7170 C.2   532  GLU532      0.3649
    103  OE1      -49.3620   28.7610  -35.0790 O.co2 532  GLU532     -0.2457
    104  OE2      -50.7260   30.4580  -35.5110 O.co2 532  GLU532     -0.2457
    105  N        -50.5710   31.1110  -30.2570 N.am  533  HIS533     -0.1976
    106  CA       -50.0350   32.3980  -29.7080 C.3   533  HIS533      0.1656
    107  C        -50.4020   32.7240  -28.2690 C.2   533  HIS533      0.2291
    108  O        -50.1870   33.8570  -27.8440 O.2   533  HIS533     -0.2864
    109  CB       -50.4900   33.5770  -30.5640 C.3   533  HIS533      0.0771
    110  CG       -49.9780   33.5320  -31.9640 C.ar  533  HIS533      0.0820
    111  ND1      -48.6630   33.5450  -32.2480 N.ar  533  HIS533     -0.2267
    112  CD2      -50.6470   33.4340  -33.1790 C.ar  533  HIS533      0.1154
    113  CE1      -48.5010   33.4440  -33.5870 C.ar  533  HIS533      0.1986
    114  NE2      -49.7140   33.3770  -34.1470 N.ar  533  HIS533     -0.2212
    115  N        -59.1590   31.2780  -31.6700 N.3   566  GLN566     -0.1231
    116  CA       -59.8860   30.2240  -32.4140 C.3   566  GLN566      0.1698
    117  C        -59.0900   28.9240  -32.3990 C.2   566  GLN566      0.2593
    118  O        -57.9080   28.9400  -32.0770 O.2   566  GLN566     -0.2718
    119  CB       -60.2220   30.6560  -33.8350 C.3   566  GLN566      0.0381
    120  CG       -59.0050   31.0470  -34.6560 C.3   566  GLN566      0.0905
    121  CD       -58.9500   30.3470  -35.9850 C.2   566  GLN566      0.2608
    122  OE1      -59.3480   29.1970  -36.1100 O.2   566  GLN566     -0.2717
    123  NE2      -58.4380   31.0210  -36.9800 N.am  566  GLN566     -0.0878
    124  N        -59.7390   27.8090  -32.7160 N.am  567  GLY567     -0.1942
    125  CA       -59.0750   26.4940  -32.6660 C.3   567  GLY567      0.2014
    126  C        -58.2240   26.2590  -33.9200 C.2   567  GLY567      0.2639
    127  O        -58.5160   26.8210  -34.9740 O.2   567  GLY567     -0.2714
    128  N        -57.1580   25.4580  -33.8260 N.am  568  MET568     -0.1963
    129  CA       -56.3170   25.2720  -34.9910 C.3   568  MET568      0.1736
    130  C        -57.1450   24.5110  -36.0440 C.2   568  MET568      0.2616
    131  O        -57.9820   23.6820  -35.6870 O.2   568  MET568     -0.2715
    132  CB       -54.9510   24.6110  -34.6490 C.3   568  MET568      0.0427
    133  CG       -53.9340   25.5330  -33.9290 C.3   568  MET568      0.0599
    134  SD       -53.6510   27.2660  -34.5530 S.3   568  MET568     -0.1393
    135  CE       -54.8200   28.1740  -33.5350 C.3   568  MET568      0.0692
    136  N        -56.9770   24.8510  -37.3220 N.am  569  VAL569     -0.1977
    137  CA       -57.4830   23.9970  -38.3810 C.3   569  VAL569      0.1596
    138  C        -56.3410   23.0550  -38.7290 C.2   569  VAL569      0.2287
    139  O        -55.2380   23.5000  -39.0440 O.2   569  VAL569     -0.2864
    140  CB       -57.9860   24.7620  -39.6270 C.3   569  VAL569      0.0276
    141  CG1      -58.7280   23.8030  -40.5470 C.3   569  VAL569      0.0022
    142  CG2      -58.9450   25.8890  -39.2610 C.3   569  VAL569      0.0022
    143  N        -51.4100   21.3830  -37.4250 N.3   619  LYS619     -0.1231
    144  CA       -51.7790   22.7240  -37.9280 C.3   619  LYS619      0.1693
    145  C        -51.3520   22.8360  -39.4030 C.2   619  LYS619      0.2591
    146  O        -50.2240   22.4490  -39.7470 O.2   619  LYS619     -0.2718
    147  CB       -51.2040   23.8790  -37.0650 C.3   619  LYS619      0.0285
    148  CG       -49.7270   24.2820  -37.2420 C.3   619  LYS619      0.0035
    149  CD       -49.3600   25.5360  -36.4300 C.3   619  LYS619      0.0206
    150  CE       -47.9110   25.9490  -36.6720 C.3   619  LYS619      0.1093
    151  NZ       -47.3570   26.9670  -35.7390 N.3   619  LYS619     -0.1314
    152  N        -52.2700   23.2820  -40.2590 N.am  620  MET620     -0.1979
    153  CA       -51.9350   23.6070  -41.6210 C.3   620  MET620      0.1605
    154  C        -50.8910   24.7380  -41.6260 C.2   620  MET620      0.2287
    155  O        -51.1410   25.8090  -41.1040 O.2   620  MET620     -0.2864
    156  CB       -53.1580   24.1380  -42.3820 C.3   620  MET620      0.0413
    157  CG       -54.2560   23.1860  -42.8240 C.3   620  MET620      0.0598
    158  SD       -55.5060   24.1520  -43.7530 S.3   620  MET620     -0.1393
    159  CE       -56.8290   22.9820  -43.9590 C.3   620  MET620      0.0692
@<TRIPOS>BOND
     1    36    37    1
     2    37    40    1
     3    37    38    1
     4    40    41    1
     5    38    39    2
     6    35    34    1
     7    41    43   ar
     8    41    42   ar
     9    56    58   ar
    10    56    55   ar
    11    33    34   ar
    12    33    31   ar
    13    27    26    2
    14    43    45   ar
    15    58    59   ar
    16    34    32   ar
    17    26    25    1
    18   159   158    1
    19   158   157    1
    20    31    29   ar
    21    54    55    1
    22    54    51    1
    23    55    57   ar
    24    42    44   ar
    25    59    57   ar
    26    22    21    1
    27    22    23    1
    28    45    44   ar
    29    32    30   ar
    30   157   156    1
    31    21    18    1
    32    75    77   ar
    33    75    73   ar
    34    29    30   ar
    35    29    28    1
    36    52    51    1
    37    52    53    2
    38    25    28    1
    39    25    24    1
    40    46    47    1
    41    20    19    2
    42    51    50    1
    43   156   153    1
    44    50    48   am
    45    72    73    1
    46    72    69    1
    47    77    78   ar
    48    19    24   am
    49    19    18    1
    50    23    17    1
    51    73    74   ar
    52    83    82    2
    53    82    81    1
    54    80    81    1
    55   154   153    1
    56   154   155    2
    57   153   152    1
    58    18    17    1
    59    48    47    1
    60    48    49    2
    61    70    71    2
    62    70    69    1
    63    78    79    1
    64    78    76   ar
    65    69    68    1
    66    17    11   am
    67    74    76   ar
    68    81    84    1
    69   141   140    1
    70    68    62   am
    71   152   145   am
    72   146   145    2
    73    84    85    1
    74    11    10    1
    75    11    12    2
    76   140   142    1
    77   140   137    1
    78    15    14    1
    79   145   144    1
    80    13    10    1
    81    13    14    1
    82    60    61    1
    83    10     9    1
    84    62    61    1
    85    62    63    2
    86    14    16    1
    87   139   138    2
    88    86    85   ar
    89   138   137    1
    90    85    87   ar
    91    64    61    1
    92    64    65    1
    93   137   136    1
    94     4     3    2
    95   144   143    1
    96   144   147    1
    97     9     3   am
    98     3     2    1
    99    65    67   am
   100    65    66    2
   101   136   130   am
   102   148   147    1
   103   148   149    1
   104   123   121   am
   105   150   149    1
   106   150   151    1
   107     1     2    1
   108     2     5    1
   109   122   121    2
   110   130   131    2
   111   130   129    1
   112   121   120    1
   113   104   102   ar
   114     5     6    1
   115   103   102   ar
   116   129   132    1
   117   129   128    1
   118   127   126    2
   119   102   101    1
   120   120   119    1
   121   132   133    1
   122   134   133    1
   123   134   135    1
   124   114   113   ar
   125   114   112   ar
   126     6     7    1
   127   126   128   am
   128   126   125    1
   129   119   116    1
   130   113   111   ar
   131    92    93    1
   132    92    90   am
   133    89    90    1
   134    89    88    1
   135   101   100    1
   136   112   110   ar
   137    93    94    1
   138     7     8    1
   139    90    91    2
   140   124   125    1
   141   124   117   am
   142   116   117    1
   143   116   115    1
   144   117   118    2
   145   100    97    1
   146   111   110   ar
   147   110   109    1
   148    94    95    2
   149    97    96    1
   150    97    98    1
   151   109   106    1
   152   105    98   am
   153   105   106    1
   154    98    99    2
   155   106   107    1
   156   107   108    2
