@<TRIPOS>MOLECULE
tmp/4aq7C01.pdb
 113 112 0 0 0
SMALL
GASTEIGER

@<TRIPOS>ATOM
      1  N        -55.1100   38.7490  -36.1790 N.3    40  MET40      -0.1230
      2  CA       -53.6450   38.7830  -36.1530 C.3    40  MET40       0.1702
      3  C        -53.0860   38.8150  -37.5780 C.2    40  MET40       0.2592
      4  O        -53.3560   37.9400  -38.3700 O.2    40  MET40      -0.2718
      5  CB       -53.0590   37.5590  -35.4010 C.3    40  MET40       0.0401
      6  CG       -53.4960   37.3570  -33.9470 C.3    40  MET40       0.0596
      7  SD       -52.5590   36.0790  -33.0550 S.3    40  MET40      -0.1393
      8  CE       -53.2970   36.0110  -31.4370 C.3    40  MET40       0.0692
      9  N        -52.2700   39.8170  -37.8900 N.am   41  LEU41      -0.1966
     10  CA       -51.7740   40.0160  -39.2470 C.3    41  LEU41       0.1713
     11  C        -50.9250   38.8300  -39.6810 C.2    41  LEU41       0.2458
     12  O        -50.2120   38.2860  -38.8760 O.2    41  LEU41      -0.2730
     13  CB       -50.9980   41.3190  -39.3440 C.3    41  LEU41       0.0310
     14  CG       -49.4940   41.3220  -39.0750 C.3    41  LEU41       0.0022
     15  CD1      -48.8430   42.6480  -39.4670 C.3    41  LEU41       0.0001
     16  CD2      -49.2020   41.0580  -37.6180 C.3    41  LEU41       0.0001
     17  N        -51.0290   38.4150  -40.9730 N.am   42  PRO42      -0.2716
     18  CA       -50.4300   37.1900  -41.4980 C.3    42  PRO42       0.1536
     19  C        -49.0190   37.2850  -41.9580 C.2    42  PRO42       0.2598
     20  O        -48.5910   38.3420  -42.4220 O.2    42  PRO42      -0.2715
     21  CB       -51.2670   36.9160  -42.7240 C.3    42  PRO42       0.0310
     22  CG       -51.6930   38.2740  -43.1900 C.3    42  PRO42       0.0237
     23  CD       -51.9350   39.0310  -41.9570 C.3    42  PRO42       0.0939
     24  N        -48.3150   36.1610  -41.8990 N.am   43  TYR43      -0.1974
     25  CA       -46.9990   36.0640  -42.5390 C.3    43  TYR43       0.1639
     26  C        -47.2110   35.7450  -43.9970 C.2    43  TYR43       0.2290
     27  O        -47.8840   34.7810  -44.3000 O.2    43  TYR43      -0.2864
     28  CB       -46.1210   34.9740  -41.9150 C.3    43  TYR43       0.0560
     29  CG       -44.7990   34.8870  -42.6230 C.ar   43  TYR43      -0.0198
     30  CD1      -43.7570   35.7660  -42.3140 C.ar   43  TYR43      -0.0009
     31  CD2      -44.5920   33.9600  -43.6400 C.ar   43  TYR43      -0.0009
     32  CE1      -42.5380   35.7050  -42.9710 C.ar   43  TYR43       0.0417
     33  CE2      -43.3720   33.8980  -44.3350 C.ar   43  TYR43       0.0417
     34  CZ       -42.3520   34.7720  -44.0060 C.ar   43  TYR43       0.1957
     35  OH       -41.1480   34.7070  -44.6960 O.3    43  TYR43      -0.2866
     36  N        -47.0700   40.7750  -41.6640 N.3    80  ASP80      -0.1239
     37  CA       -45.9260   40.3900  -40.7840 C.3    80  ASP80       0.1674
     38  C        -44.8370   39.8310  -41.6920 C.2    80  ASP80       0.2266
     39  O        -44.7860   38.6220  -41.9310 O.2    80  ASP80      -0.2867
     40  CB       -46.3530   39.3420  -39.6810 C.3    80  ASP80       0.1410
     41  CG       -45.2330   39.0670  -38.5920 C.2    80  ASP80       0.3668
     42  OD1      -44.0330   39.3580  -38.8710 O.co2  80  ASP80      -0.2456
     43  OD2      -45.5440   38.5390  -37.4640 O.co2  80  ASP80      -0.2456
     44  N        -40.9300   38.8170  -33.8310 N.3   493  PHE493     -0.1241
     45  CA       -41.9640   39.1620  -32.8270 C.3   493  PHE493      0.1605
     46  C        -41.9690   40.6510  -32.3770 C.2   493  PHE493      0.2264
     47  O        -42.9950   41.1690  -31.9080 O.2   493  PHE493     -0.2867
     48  CB       -41.7910   38.3100  -31.5820 C.3   493  PHE493      0.0534
     49  CG       -42.3070   36.9000  -31.7040 C.ar  493  PHE493     -0.0203
     50  CD1      -43.6550   36.6560  -31.9090 C.ar  493  PHE493     -0.0042
     51  CD2      -41.4560   35.8190  -31.5240 C.ar  493  PHE493     -0.0042
     52  CE1      -44.1360   35.3760  -31.9300 C.ar  493  PHE493     -0.0003
     53  CE2      -41.9410   34.5260  -31.5670 C.ar  493  PHE493     -0.0003
     54  CZ       -43.2800   34.3080  -31.7800 C.ar  493  PHE493     -0.0000
     55  N        -44.4290   42.4050  -34.5090 N.3   496  SER496     -0.1217
     56  CA       -45.7940   42.0030  -34.2770 C.3   496  SER496      0.1889
     57  C        -46.2380   42.4490  -32.9460 C.2   496  SER496      0.2288
     58  O        -47.3980   42.3110  -32.6260 O.2   496  SER496     -0.2866
     59  CB       -45.9680   40.4750  -34.3550 C.3   496  SER496      0.2089
     60  OG       -44.7970   39.7450  -34.0420 O.3   496  SER496     -0.2183
     61  N        -47.9510   46.3100  -33.9270 N.3   499  TYR499     -0.1241
     62  CA       -48.6340   46.6780  -35.1780 C.3   499  TYR499      0.1605
     63  C        -50.0260   47.1950  -34.9250 C.2   499  TYR499      0.2264
     64  O        -50.4430   48.1260  -35.5650 O.2   499  TYR499     -0.2867
     65  CB       -48.7160   45.5160  -36.1460 C.3   499  TYR499      0.0534
     66  CG       -49.6900   44.4260  -35.7480 C.ar  499  TYR499     -0.0201
     67  CD1      -49.4010   43.5760  -34.7050 C.ar  499  TYR499     -0.0009
     68  CD2      -50.8800   44.2300  -36.4290 C.ar  499  TYR499     -0.0009
     69  CE1      -50.2640   42.5730  -34.3270 C.ar  499  TYR499      0.0417
     70  CE2      -51.7720   43.2060  -36.0530 C.ar  499  TYR499      0.0417
     71  CZ       -51.4460   42.3840  -34.9930 C.ar  499  TYR499      0.1957
     72  OH       -52.2490   41.3470  -34.5920 O.3   499  TYR499     -0.2866
     73  N        -59.6140   40.7310  -29.9850 N.3   527  TYR527     -0.1241
     74  CA       -58.4230   40.3080  -30.7180 C.3   527  TYR527      0.1605
     75  C        -58.5960   38.8620  -31.0950 C.2   527  TYR527      0.2264
     76  O        -58.6960   37.9940  -30.1870 O.2   527  TYR527     -0.2867
     77  CB       -57.1990   40.4280  -29.8370 C.3   527  TYR527      0.0534
     78  CG       -55.8580   40.3290  -30.5140 C.ar  527  TYR527     -0.0201
     79  CD1      -55.7130   40.5190  -31.8680 C.ar  527  TYR527     -0.0009
     80  CD2      -54.6950   40.1370  -29.7490 C.ar  527  TYR527     -0.0009
     81  CE1      -54.4760   40.4960  -32.4620 C.ar  527  TYR527      0.0417
     82  CE2      -53.4480   40.1190  -30.3480 C.ar  527  TYR527      0.0417
     83  CZ       -53.3580   40.2880  -31.7140 C.ar  527  TYR527      0.1957
     84  OH       -52.1330   40.2450  -32.3280 O.3   527  TYR527     -0.2866
     85  N        -52.1290   28.9340  -30.7360 N.3   532  GLU532     -0.1231
     86  CA       -50.6680   28.7220  -30.8170 C.3   532  GLU532      0.1699
     87  C        -49.9070   29.9380  -30.2520 C.2   532  GLU532      0.2592
     88  O        -48.7360   29.8190  -29.8830 O.2   532  GLU532     -0.2718
     89  CB       -50.2430   28.4820  -32.3040 C.3   532  GLU532      0.0402
     90  CG       -50.8750   29.4870  -33.2980 C.3   532  GLU532      0.1161
     91  CD       -50.2690   29.5700  -34.7170 C.2   532  GLU532      0.3649
     92  OE1      -49.3620   28.7610  -35.0790 O.co2 532  GLU532     -0.2457
     93  OE2      -50.7260   30.4580  -35.5110 O.co2 532  GLU532     -0.2457
     94  N        -50.5710   31.1110  -30.2570 N.am  533  HIS533     -0.1976
     95  CA       -50.0350   32.3980  -29.7080 C.3   533  HIS533      0.1656
     96  C        -50.4020   32.7240  -28.2690 C.2   533  HIS533      0.2291
     97  O        -50.1870   33.8570  -27.8440 O.2   533  HIS533     -0.2864
     98  CB       -50.4900   33.5770  -30.5640 C.3   533  HIS533      0.0771
     99  CG       -49.9780   33.5320  -31.9640 C.ar  533  HIS533      0.0820
    100  ND1      -48.6630   33.5450  -32.2480 N.ar  533  HIS533     -0.2267
    101  CD2      -50.6470   33.4340  -33.1790 C.ar  533  HIS533      0.1154
    102  CE1      -48.5010   33.4440  -33.5870 C.ar  533  HIS533      0.1986
    103  NE2      -49.7140   33.3770  -34.1470 N.ar  533  HIS533     -0.2212
    104  N        -46.1820   35.6010  -28.5090 N.3   537  HIS537     -0.1241
    105  CA       -46.7570   36.8180  -29.0140 C.3   537  HIS537      0.1621
    106  C        -47.6390   37.4540  -28.0070 C.2   537  HIS537      0.2264
    107  O        -47.5430   38.6280  -27.7760 O.2   537  HIS537     -0.2867
    108  CB       -47.6290   36.5620  -30.2000 C.3   537  HIS537      0.0745
    109  CG       -48.4280   37.7630  -30.6060 C.ar  537  HIS537      0.0817
    110  ND1      -47.8440   38.9140  -31.0060 N.ar  537  HIS537     -0.2268
    111  CD2      -49.8000   37.9900  -30.6060 C.ar  537  HIS537      0.1154
    112  CE1      -48.8100   39.8230  -31.2830 C.ar  537  HIS537      0.1986
    113  NE2      -50.0010   39.2640  -31.0390 N.ar  537  HIS537     -0.2212
@<TRIPOS>BOND
     1    35    34    1
     2    33    34   ar
     3    33    31   ar
     4    27    26    2
     5    34    32   ar
     6    26    25    1
     7    31    29   ar
     8    22    21    1
     9    22    23    1
    10    32    30   ar
    11    21    18    1
    12    29    30   ar
    13    29    28    1
    14    25    28    1
    15    25    24    1
    16    20    19    2
    17    19    24   am
    18    19    18    1
    19    23    17    1
    20    39    38    2
    21    38    37    1
    22    36    37    1
    23    18    17    1
    24    17    11   am
    25    37    40    1
    26    11    10    1
    27    11    12    2
    28    40    41    1
    29    15    14    1
    30    13    10    1
    31    13    14    1
    32    10     9    1
    33    14    16    1
    34    42    41   ar
    35    41    43   ar
    36     4     3    2
    37     9     3   am
    38     3     2    1
    39    68    70   ar
    40    68    66   ar
    41     1     2    1
    42     2     5    1
    43    65    66    1
    44    65    62    1
    45    70    71   ar
    46    66    67   ar
    47    64    63    2
    48    93    91   ar
    49     5     6    1
    50    62    63    1
    51    62    61    1
    52    92    91   ar
    53    71    72    1
    54    71    69   ar
    55    91    90    1
    56    67    69   ar
    57    55    56    1
    58    59    56    1
    59    59    60    1
    60    56    57    1
    61   103   102   ar
    62   103   101   ar
    63     6     7    1
    64    44    45    1
    65   102   100   ar
    66    90    89    1
    67   101    99   ar
    68     7     8    1
    69    57    58    2
    70    45    46    1
    71    45    48    1
    72    81    79   ar
    73    81    83   ar
    74    46    47    2
    75    84    83    1
    76    89    86    1
    77   100    99   ar
    78    99    98    1
    79    52    50   ar
    80    52    54   ar
    81    50    49   ar
    82    79    78   ar
    83    54    53   ar
    84    83    82   ar
    85    49    48    1
    86    49    51   ar
    87    53    51   ar
    88   112   113   ar
    89   112   110   ar
    90    75    74    1
    91    75    76    2
    92   113   111   ar
    93   110   109   ar
    94    86    85    1
    95    86    87    1
    96    74    73    1
    97    74    77    1
    98   109   111   ar
    99   109   108    1
   100    98    95    1
   101    78    77    1
   102    78    80   ar
   103    82    80   ar
   104    94    87   am
   105    94    95    1
   106    87    88    2
   107   108   105    1
   108    95    96    1
   109   105   104    1
   110   105   106    1
   111    96    97    2
   112   106   107    2
