@<TRIPOS>MOLECULE
tmp/4aqbA00.pdb
 99 91 0 0 0
SMALL
GASTEIGER

@<TRIPOS>ATOM
      1  N        -18.3200  -11.7100    8.8840 N.3     2  GLU2       -0.1245
      2  CA       -16.8800  -11.4750    9.0870 C.3     2  GLU2        0.1567
      3  C        -16.1590  -11.1960    7.7580 C.2     2  GLU2        0.2260
      4  O        -16.3900  -11.9230    6.7880 O.2     2  GLU2       -0.2867
      5  CB       -16.2240  -12.6530    9.8230 C.3     2  GLU2        0.0388
      6  CG       -16.5610  -12.7420   11.3030 C.3     2  GLU2        0.1160
      7  CD       -16.1070  -14.0300   11.9620 C.2     2  GLU2        0.3649
      8  OE1      -14.9820  -14.4900   11.6620 O.co2   2  GLU2       -0.2457
      9  OE2      -16.8690  -14.5700   12.7960 O.co2   2  GLU2       -0.2457
     10  N        -30.4580   -5.9940   12.4810 N.3    24  GLU24      -0.1245
     11  CA       -29.1770   -5.6500   13.0890 C.3    24  GLU24       0.1567
     12  C        -28.0670   -6.4590   12.4440 C.2    24  GLU24       0.2260
     13  O        -28.0390   -7.6870   12.5600 O.2    24  GLU24      -0.2867
     14  CB       -29.2100   -5.8460   14.6100 C.3    24  GLU24       0.0388
     15  CG       -27.9950   -5.2720   15.3210 C.3    24  GLU24       0.1160
     16  CD       -27.9930   -5.4010   16.8320 C.2    24  GLU24       0.3649
     17  OE1      -29.0520   -5.7280   17.4150 O.co2  24  GLU24      -0.2457
     18  OE2      -26.9240   -5.1630   17.4390 O.co2  24  GLU24      -0.2457
     19  N        -23.7490   -6.6310   11.7490 N.3    26  THR26      -0.1218
     20  CA       -22.4080   -6.2010   12.1280 C.3    26  THR26       0.1862
     21  C        -21.3890   -6.6730   11.0990 C.2    26  THR26       0.2287
     22  O        -21.4050   -7.8400   10.7010 O.2    26  THR26      -0.2866
     23  CB       -22.0460   -6.6570   13.5550 C.3    26  THR26       0.1770
     24  OG1      -22.9650   -6.0750   14.4790 O.3    26  THR26      -0.2211
     25  CG2      -20.6120   -6.2800   13.9550 C.3    26  THR26       0.0375
     26  N        -17.2640   -6.8700   10.6230 N.3    28  ASN28      -0.1240
     27  CA       -15.9580   -6.7640   11.2560 C.3    28  ASN28       0.1653
     28  C        -14.8960   -6.6860   10.1840 C.2    28  ASN28       0.2266
     29  O        -14.8090   -7.5710    9.3290 O.2    28  ASN28      -0.2867
     30  CB       -15.6990   -7.9250   12.1990 C.3    28  ASN28       0.1155
     31  CG       -16.2730   -7.7240   13.5620 C.2    28  ASN28       0.2627
     32  OD1      -17.1550   -6.8750   13.8040 O.2    28  ASN28      -0.2716
     33  ND2      -15.7820   -8.4730   14.5050 N.am   28  ASN28      -0.0877
     34  N        -23.1540    2.4590   13.6980 N.3    58  LYS58      -0.1245
     35  CA       -22.1490    2.5970   14.7490 C.3    58  LYS58       0.1561
     36  C        -20.7940    2.0930   14.2560 C.2    58  LYS58       0.2260
     37  O        -20.6930    0.9490   13.8160 O.2    58  LYS58      -0.2867
     38  CB       -22.6060    1.8300   16.0050 C.3    58  LYS58       0.0271
     39  CG       -21.7780    2.0810   17.2590 C.3    58  LYS58       0.0035
     40  CD       -22.3170    1.2620   18.4220 C.3    58  LYS58       0.0206
     41  CE       -21.6720    1.6220   19.7360 C.3    58  LYS58       0.1093
     42  NZ       -22.2840    0.8820   20.8720 N.3    58  LYS58      -0.1314
     43  N        -16.8900    1.4380   15.4380 N.3    60  GLU60      -0.1231
     44  CA       -16.0750    1.2800   16.6400 C.3    60  GLU60       0.1699
     45  C        -14.9090    0.3080   16.4890 C.2    60  GLU60       0.2593
     46  O        -14.8240   -0.4190   15.5000 O.2    60  GLU60      -0.2718
     47  CB       -16.9750    0.8280   17.8100 C.3    60  GLU60       0.0402
     48  CG       -17.5250   -0.5850   17.6690 C.3    60  GLU60       0.1161
     49  CD       -18.6890   -0.9310   18.5750 C.2    60  GLU60       0.3649
     50  OE1      -18.6990   -0.4820   19.7450 O.co2  60  GLU60      -0.2457
     51  OE2      -19.5830   -1.6800   18.1200 O.co2  60  GLU60      -0.2457
     52  N        -14.0360    0.2750   17.5090 N.am   61  THR61      -0.1939
     53  CA       -12.9330   -0.6740   17.6160 C.3    61  THR61       0.2028
     54  C        -13.3260   -1.6530   18.7320 C.2    61  THR61       0.2642
     55  O        -14.4760   -1.6460   19.1790 O.2    61  THR61      -0.2714
     56  CB       -11.5820    0.0270   17.8810 C.3    61  THR61       0.1808
     57  OG1      -11.5390    0.5430   19.2120 O.3    61  THR61      -0.2208
     58  CG2      -11.2500    1.0970   16.8590 C.3    61  THR61       0.0379
     59  N        -12.3760   -2.4670   19.1960 N.am   62  GLU62      -0.1963
     60  CA       -12.5840   -3.4470   20.2630 C.3    62  GLU62       0.1733
     61  C        -12.7390   -2.8170   21.6540 C.2    62  GLU62       0.2616
     62  O        -13.1560   -3.5070   22.5860 O.2    62  GLU62      -0.2715
     63  CB       -11.4660   -4.5120   20.2620 C.3    62  GLU62       0.0429
     64  CG       -10.0470   -3.9650   20.1950 C.3    62  GLU62       0.1163
     65  CD        -9.5930   -3.5920   18.7980 C.2    62  GLU62       0.3649
     66  OE1       -9.2560   -4.5090   18.0150 O.co2  62  GLU62      -0.2457
     67  OE2       -9.6170   -2.3840   18.4710 O.co2  62  GLU62      -0.2457
     68  N        -12.4120   -1.5190   21.7980 N.am   63  ASP63      -0.1971
     69  CA       -12.4640   -0.8260   23.0860 C.3    63  ASP63       0.1709
     70  C        -12.8160    0.6610   22.9700 C.2    63  ASP63       0.2293
     71  O        -12.7170    1.3880   23.9620 O.2    63  ASP63      -0.2864
     72  CB       -11.0910   -0.9710   23.7770 C.3    63  ASP63       0.1436
     73  CG        -9.9000   -0.4330   22.9850 C.2    63  ASP63       0.3671
     74  OD1      -10.1170    0.1660   21.9000 O.co2  63  ASP63      -0.2456
     75  OD2       -8.7560   -0.6110   23.4470 O.co2  63  ASP63      -0.2456
     76  N         -8.2400   -2.7050   13.0790 N.3    92  PHE92      -0.1241
     77  CA        -9.5760   -3.2730   13.2570 C.3    92  PHE92       0.1605
     78  C        -10.6790   -2.2230   13.2910 C.2    92  PHE92       0.2264
     79  O        -10.5200   -1.1740   13.9170 O.2    92  PHE92      -0.2867
     80  CB        -9.6340   -4.1780   14.5050 C.3    92  PHE92       0.0534
     81  CG       -11.0130   -4.7040   14.8450 C.ar   92  PHE92      -0.0203
     82  CD1      -11.5550   -5.7810   14.1540 C.ar   92  PHE92      -0.0042
     83  CD2      -11.7780   -4.1070   15.8420 C.ar   92  PHE92      -0.0042
     84  CE1      -12.8360   -6.2560   14.4580 C.ar   92  PHE92      -0.0003
     85  CE2      -13.0580   -4.5810   16.1430 C.ar   92  PHE92      -0.0003
     86  CZ       -13.5770   -5.6510   15.4480 C.ar   92  PHE92      -0.0000
     87  N        -15.2070   -2.2360   13.5150 N.3    94  SER94      -0.1217
     88  CA       -16.4990   -2.9120   13.5840 C.3    94  SER94       0.1889
     89  C        -17.6040   -1.9200   13.2500 C.2    94  SER94       0.2288
     90  O        -17.6040   -0.7940   13.7560 O.2    94  SER94      -0.2866
     91  CB       -16.7280   -3.5320   14.9580 C.3    94  SER94       0.2089
     92  OG       -17.9010   -4.3300   14.9640 O.3    94  SER94      -0.2183
     93  N        -21.8890   -1.5360   12.8930 N.3    96  THR96      -0.1218
     94  CA       -23.2120   -2.0830   13.1740 C.3    96  THR96       0.1862
     95  C        -24.3050   -1.1780   12.6310 C.2    96  THR96       0.2287
     96  O        -24.3540    0.0040   12.9780 O.2    96  THR96      -0.2866
     97  CB       -23.4130   -2.3650   14.6780 C.3    96  THR96       0.1770
     98  OG1      -22.4520   -3.3280   15.1080 O.3    96  THR96      -0.2211
     99  CG2      -24.8310   -2.8710   15.0070 C.3    96  THR96       0.0375
@<TRIPOS>BOND
     1     4     3    2
     2     3     2    1
     3     1     2    1
     4     2     5    1
     5    29    28    2
     6     5     6    1
     7    28    27    1
     8    26    27    1
     9    22    21    2
    10    21    20    1
    11    27    30    1
    12     6     7    1
    13     8     7   ar
    14    19    20    1
    15     7     9   ar
    16    20    23    1
    17    30    31    1
    18    12    13    2
    19    12    11    1
    20    10    11    1
    21    95    96    2
    22    95    94    1
    23    93    94    1
    24    76    77    1
    25    11    14    1
    26    94    97    1
    27    89    88    1
    28    89    90    2
    29    77    78    1
    30    77    80    1
    31    78    79    2
    32    87    88    1
    33    23    25    1
    34    23    24    1
    35    31    32    2
    36    31    33   am
    37    88    91    1
    38    34    35    1
    39    37    36    2
    40    82    84   ar
    41    82    81   ar
    42    36    35    1
    43    84    86   ar
    44    80    81    1
    45    14    15    1
    46    97    99    1
    47    97    98    1
    48    35    38    1
    49    81    83   ar
    50    91    92    1
    51    15    16    1
    52    43    44    1
    53    86    85   ar
    54    46    45    2
    55    83    85   ar
    56    38    39    1
    57    45    44    1
    58    45    52   am
    59    44    47    1
    60    16    17   ar
    61    16    18   ar
    62    58    56    1
    63    39    40    1
    64    52    53    1
    65    53    56    1
    66    53    54    1
    67    48    47    1
    68    48    49    1
    69    56    57    1
    70    66    65   ar
    71    51    49   ar
    72    40    41    1
    73    67    65   ar
    74    49    50   ar
    75    54    55    2
    76    54    59   am
    77    65    64    1
    78    59    60    1
    79    41    42    1
    80    64    63    1
    81    63    60    1
    82    60    61    1
    83    61    68   am
    84    61    62    2
    85    68    69    1
    86    74    73   ar
    87    70    69    1
    88    70    71    2
    89    73    75   ar
    90    73    72    1
    91    69    72    1
