@<TRIPOS>MOLECULE
tmp/4aqcA00.pdb
 197 188 0 0 0
SMALL
GASTEIGER

@<TRIPOS>ATOM
      1  N        117.9220   59.9130   18.7850 N.3    12  GLN12      -0.1231
      2  CA       116.4880   60.1030   18.6290 C.3    12  GLN12       0.1698
      3  C        116.0670   59.8210   17.2080 C.2    12  GLN12       0.2592
      4  O        116.8350   60.0470   16.2970 O.2    12  GLN12      -0.2718
      5  CB       116.1540   61.5730   18.9620 C.3    12  GLN12       0.0381
      6  CG       114.7190   61.8920   18.9180 C.3    12  GLN12       0.0905
      7  CD       114.4150   63.3460   19.1170 C.2    12  GLN12       0.2608
      8  OE1      115.2380   64.1200   19.5960 O.2    12  GLN12      -0.2717
      9  NE2      113.2050   63.7250   18.7660 N.am   12  GLN12      -0.0878
     10  N        114.8380   59.3470   17.0250 N.am   13  GLN13      -0.1966
     11  CA       114.2540   59.2400   15.6920 C.3    13  GLN13       0.1733
     12  C        113.7500   60.6070   15.2860 C.2    13  GLN13       0.2616
     13  O        113.1060   61.2890   16.0870 O.2    13  GLN13      -0.2715
     14  CB       113.0630   58.2880   15.7100 C.3    13  GLN13       0.0408
     15  CG       113.4390   56.9460   16.1830 C.3    13  GLN13       0.0908
     16  CD       113.9700   56.0490   15.0840 C.2    13  GLN13       0.2608
     17  OE1      114.1410   54.8390   15.2970 O.2    13  GLN13      -0.2717
     18  NE2      114.1930   56.6090   13.9030 N.am   13  GLN13      -0.0878
     19  N        114.0000   60.9920   14.0500 N.am   14  LEU14      -0.1963
     20  CA       113.5020   62.2830   13.5510 C.3    14  LEU14       0.1728
     21  C        112.3580   62.2060   12.5560 C.2    14  LEU14       0.2617
     22  O        111.7290   63.2100   12.2720 O.2    14  LEU14      -0.2715
     23  CB       114.6250   63.0610   12.9310 C.3    14  LEU14       0.0311
     24  CG       115.7910   63.3270   13.8530 C.3    14  LEU14       0.0022
     25  CD1      116.8770   63.9030   13.0020 C.3    14  LEU14       0.0001
     26  CD2      115.3910   64.2250   15.0450 C.3    14  LEU14       0.0001
     27  N        112.0970   61.0410   11.9980 N.am   15  GLY15      -0.1940
     28  CA       111.0470   60.9250   11.0130 C.3    15  GLY15       0.2014
     29  C        111.2830   59.7890   10.0380 C.2    15  GLY15       0.2639
     30  O        112.4100   59.3270    9.8490 O.2    15  GLY15      -0.2714
     31  N        110.1890   59.3190    9.4670 N.am   16  LYS16      -0.1963
     32  CA       110.1820   58.3680    8.3690 C.3    16  LYS16       0.1728
     33  C        109.4370   59.0050    7.1970 C.2    16  LYS16       0.2616
     34  O        108.4390   59.6750    7.3830 O.2    16  LYS16      -0.2715
     35  CB       109.3960   57.1170    8.7510 C.3    16  LYS16       0.0311
     36  CG       109.9350   56.3720    9.9100 C.3    16  LYS16       0.0038
     37  CD       109.2830   55.0030   10.0050 C.3    16  LYS16       0.0206
     38  CE       109.6430   54.3390   11.2980 C.3    16  LYS16       0.1093
     39  NZ       111.1220   54.2050   11.4970 N.3    16  LYS16      -0.1314
     40  N        109.8970   58.7700    5.9900 N.am   17  GLY17      -0.1955
     41  CA       109.1150   59.1590    4.8270 C.3    17  GLY17       0.1869
     42  C        109.5650   58.3940    3.6160 C.2    17  GLY17       0.2309
     43  O        110.7640   58.0900    3.4680 O.2    17  GLY17      -0.2863
     44  N        112.7570   55.8330    3.5160 N.3    20  GLY20      -0.1225
     45  CA       113.8120   56.1040    4.4590 C.3    20  GLY20       0.1811
     46  C        113.3250   56.5450    5.8250 C.2    20  GLY20       0.2280
     47  O        112.1040   56.7950    6.0850 O.2    20  GLY20      -0.2866
     48  N        115.1310   58.8040    9.2990 N.3    22  VAL22      -0.1245
     49  CA       116.1990   59.7240    9.6930 C.3    22  VAL22       0.1561
     50  C        116.3060   59.7030   11.2000 C.2    22  VAL22       0.2260
     51  O        115.2700   59.7560   11.8870 O.2    22  VAL22      -0.2867
     52  CB       115.9750   61.1340    9.1500 C.3    22  VAL22       0.0252
     53  CG1      117.1980   62.0500    9.4040 C.3    22  VAL22       0.0019
     54  CG2      115.7070   61.0880    7.6420 C.3    22  VAL22       0.0019
     55  N        122.4600   64.3290   11.3370 N.3    39  ALA39      -0.1245
     56  CA       121.2310   63.6270   10.9450 C.3    39  ALA39       0.1562
     57  C        121.6620   62.4850   10.0520 C.2    39  ALA39       0.2260
     58  O        122.5160   62.6140    9.1960 O.2    39  ALA39      -0.2867
     59  CB       120.2310   64.5930   10.2210 C.3    39  ALA39       0.0290
     60  N        120.3500   59.3720    7.6000 N.3    41  LYS41      -0.1245
     61  CA       119.2430   58.7940    6.8760 C.3    41  LYS41       0.1561
     62  C        119.6070   57.4190    6.4040 C.2    41  LYS41       0.2260
     63  O        120.7110   57.2030    5.9080 O.2    41  LYS41      -0.2867
     64  CB       118.8730   59.6400    5.6450 C.3    41  LYS41       0.0271
     65  CG       117.6500   59.1110    4.8880 C.3    41  LYS41       0.0035
     66  CD       117.1670   60.0660    3.8060 C.3    41  LYS41       0.0206
     67  CE       116.0370   59.4030    3.0860 C.3    41  LYS41       0.1093
     68  NZ       115.4080   60.1360    1.9710 N.3    41  LYS41      -0.1314
     69  N        119.6250   71.5220    2.6100 N.3    70  VAL70      -0.1245
     70  CA       120.3480   70.8800    3.7090 C.3    70  VAL70       0.1561
     71  C        121.6960   70.3450    3.2130 C.2    70  VAL70       0.2260
     72  O        121.8180   69.8130    2.1140 O.2    70  VAL70      -0.2867
     73  CB       119.5100   69.7300    4.3650 C.3    70  VAL70       0.0252
     74  CG1      119.4690   68.5290    3.4620 C.3    70  VAL70       0.0019
     75  CG2      120.0510   69.3680    5.7440 C.3    70  VAL70       0.0019
     76  N        123.9940   63.9530    7.1600 N.3    88  MET88      -0.1230
     77  CA       123.6870   65.3310    6.8310 C.3    88  MET88       0.1702
     78  C        123.8350   66.2010    8.0760 C.2    88  MET88       0.2592
     79  O        123.8960   65.6880    9.2050 O.2    88  MET88      -0.2718
     80  CB       122.2640   65.4390    6.2960 C.3    88  MET88       0.0401
     81  CG       122.0560   64.6300    5.0050 C.3    88  MET88       0.0596
     82  SD       120.3460   64.4880    4.5900 S.3    88  MET88      -0.1393
     83  CE       119.8590   63.2210    5.7280 C.3    88  MET88       0.0692
     84  N        123.9450   67.5050    7.8760 N.am   89  GLU89      -0.1966
     85  CA       123.8670   68.4660    8.9890 C.3    89  GLU89       0.1733
     86  C        122.5340   68.2830    9.7140 C.2    89  GLU89       0.2616
     87  O        121.5090   68.0120    9.0720 O.2    89  GLU89      -0.2715
     88  CB       124.0190   69.9230    8.5150 C.3    89  GLU89       0.0429
     89  CG       122.8010   70.4460    7.6750 C.3    89  GLU89       0.1163
     90  CD       122.9020   71.9010    7.3080 C.2    89  GLU89       0.3649
     91  OE1      123.5760   72.6570    8.0450 O.co2  89  GLU89      -0.2457
     92  OE2      122.2830   72.3020    6.2960 O.co2  89  GLU89      -0.2457
     93  N        122.5690   68.3570   11.0410 N.am   90  TYR90      -0.1960
     94  CA       121.3570   68.3520   11.8840 C.3    90  TYR90       0.1771
     95  C        120.8380   69.7950   12.0390 C.2    90  TYR90       0.2619
     96  O        121.5640   70.6820   12.4660 O.2    90  TYR90      -0.2715
     97  CB       121.6780   67.7730   13.2540 C.3    90  TYR90       0.0574
     98  CG       120.5910   67.8910   14.2750 C.ar   90  TYR90      -0.0198
     99  CD1      119.4640   67.0850   14.2260 C.ar   90  TYR90      -0.0009
    100  CD2      120.6760   68.8460   15.2970 C.ar   90  TYR90      -0.0009
    101  CE1      118.4450   67.1910   15.1890 C.ar   90  TYR90       0.0417
    102  CE2      119.6670   68.9620   16.2670 C.ar   90  TYR90       0.0417
    103  CZ       118.5670   68.1280   16.2150 C.ar   90  TYR90       0.1957
    104  OH       117.5770   68.2860   17.1510 O.3    90  TYR90      -0.2866
    105  N        119.5700   70.0050   11.7010 N.am   91  LEU91      -0.1964
    106  CA       118.9130   71.2980   11.8570 C.3    91  LEU91       0.1713
    107  C        118.0310   71.2230   13.1080 C.2    91  LEU91       0.2458
    108  O        117.1920   70.3100   13.2390 O.2    91  LEU91      -0.2730
    109  CB       118.0950   71.6660   10.6150 C.3    91  LEU91       0.0310
    110  CG       118.8830   71.7480    9.2770 C.3    91  LEU91       0.0022
    111  CD1      118.1080   72.5480    8.2640 C.3    91  LEU91       0.0001
    112  CD2      120.3040   72.2580    9.4020 C.3    91  LEU91       0.0001
    113  N        118.2570   72.1370   14.0690 N.am   92  PRO92      -0.2716
    114  CA       117.7560   71.9180   15.4290 C.3    92  PRO92       0.1536
    115  C        116.2770   72.2450   15.6420 C.2    92  PRO92       0.2599
    116  O        115.6800   71.7850   16.5990 O.2    92  PRO92      -0.2715
    117  CB       118.6850   72.7730   16.2810 C.3    92  PRO92       0.0310
    118  CG       119.0730   73.8960   15.3920 C.3    92  PRO92       0.0237
    119  CD       119.0830   73.3640   13.9840 C.3    92  PRO92       0.0939
    120  N        115.6700   72.9840   14.7330 N.am   93  TYR93      -0.1960
    121  CA       114.2640   73.3330   14.8970 C.3    93  TYR93       0.1771
    122  C        113.2540   72.3670   14.2550 C.2    93  TYR93       0.2620
    123  O        112.0590   72.5610   14.3580 O.2    93  TYR93      -0.2715
    124  CB       114.0480   74.7510   14.4780 C.3    93  TYR93       0.0574
    125  CG       114.6420   75.7460   15.4540 C.ar   93  TYR93      -0.0198
    126  CD1      113.8940   76.2400   16.5200 C.ar   93  TYR93      -0.0009
    127  CD2      115.9410   76.2240   15.3010 C.ar   93  TYR93      -0.0009
    128  CE1      114.4350   77.1730   17.4200 C.ar   93  TYR93       0.0417
    129  CE2      116.4920   77.1510   16.2020 C.ar   93  TYR93       0.0417
    130  CZ       115.7270   77.6140   17.2560 C.ar   93  TYR93       0.1957
    131  OH       116.2520   78.4970   18.1640 O.3    93  TYR93      -0.2866
    132  N        113.7160   71.3120   13.6260 N.am   94  GLY94      -0.1940
    133  CA       112.7960   70.2900   13.0830 C.3    94  GLY94       0.2014
    134  C        112.1230   70.6950   11.7850 C.2    94  GLY94       0.2639
    135  O        112.5840   71.6090   11.0840 O.2    94  GLY94      -0.2714
    136  N        111.0630   69.9910   11.4280 N.am   95  SER95      -0.1949
    137  CA       110.3410   70.3060   10.1930 C.3    95  SER95       0.1924
    138  C        109.5870   71.6050   10.3610 C.2    95  SER95       0.2314
    139  O        109.1420   71.9260   11.4640 O.2    95  SER95      -0.2863
    140  CB       109.3620   69.1820    9.7950 C.3    95  SER95       0.2116
    141  OG       108.2370   69.1440   10.6530 O.3    95  SER95      -0.2180
    142  N        106.0970   71.0270   11.7660 N.3    98  ASP98      -0.1239
    143  CA       106.0170   70.9060   13.2180 C.3    98  ASP98       0.1674
    144  C        106.2930   72.2510   13.8650 C.2    98  ASP98       0.2266
    145  O        105.6220   72.6260   14.8150 O.2    98  ASP98      -0.2867
    146  CB       107.0240   69.8680   13.7430 C.3    98  ASP98       0.1410
    147  CG       106.6070   68.4190   13.4610 C.2    98  ASP98       0.3668
    148  OD1      105.4500   68.1510   13.0390 O.co2  98  ASP98      -0.2456
    149  OD2      107.4640   67.5220   13.6700 O.co2  98  ASP98      -0.2456
    150  N        103.7760   74.4330   16.3030 N.3   102  LYS102     -0.1245
    151  CA       104.1550   74.7870   17.6800 C.3   102  LYS102      0.1561
    152  C        104.2820   76.2740   17.9470 C.2   102  LYS102      0.2260
    153  O        104.0390   76.6960   19.0580 O.2   102  LYS102     -0.2867
    154  CB       105.4550   74.0890   18.1120 C.3   102  LYS102      0.0271
    155  CG       105.2520   72.6020   18.4110 C.3   102  LYS102      0.0035
    156  CD       106.5700   71.8090   18.3100 C.3   102  LYS102      0.0206
    157  CE       106.3870   70.3190   18.6140 C.3   102  LYS102      0.1093
    158  NZ       107.4400   69.5070   17.9520 N.3   102  LYS102     -0.1314
    159  N        106.4040   69.0810    5.6130 N.3   139  ARG139     -0.1231
    160  CA       107.0590   67.9910    6.3610 C.3   139  ARG139      0.1694
    161  C        108.4900   67.7600    5.8420 C.2   139  ARG139      0.2592
    162  O        109.2870   67.1830    6.5490 O.2   139  ARG139     -0.2718
    163  CB       106.2480   66.6470    6.2990 C.3   139  ARG139      0.0321
    164  CG       106.2510   65.9560    4.9390 C.3   139  ARG139      0.0489
    165  CD       105.3170   64.7170    4.7880 C.3   139  ARG139      0.2205
    166  NE       104.8430   64.6320    3.3790 N.pl3 139  ARG139     -0.0865
    167  CZ       103.7350   65.2240    2.8800 C.cat 139  ARG139      0.5346
    168  NH1      102.8950   65.9290    3.6660 N.pl3 139  ARG139      0.1354
    169  NH2      103.4300   65.0910    1.5780 N.pl3 139  ARG139      0.1354
    170  N        108.8020   68.1860    4.6110 N.am  140  ASN140     -0.1974
    171  CA       110.1490   68.0060    4.0240 C.3   140  ASN140      0.1688
    172  C        110.9880   69.2750    3.9980 C.2   140  ASN140      0.2292
    173  O        112.0120   69.3040    3.3570 O.2   140  ASN140     -0.2864
    174  CB       110.0220   67.5100    2.6080 C.3   140  ASN140      0.1181
    175  CG       109.4800   66.0970    2.5650 C.2   140  ASN140      0.2629
    176  OD1      109.8220   65.3020    3.4180 O.2   140  ASN140     -0.2716
    177  ND2      108.6100   65.8010    1.6090 N.am  140  ASN140     -0.0877
    178  N        112.9440   72.0310    6.4710 N.3   142  LEU142     -0.1245
    179  CA       113.5410   72.0600    7.8020 C.3   142  LEU142      0.1561
    180  C        113.9050   73.4680    8.2280 C.2   142  LEU142      0.2260
    181  O        114.1380   74.3450    7.3870 O.2   142  LEU142     -0.2867
    182  CB       114.8120   71.2070    7.8380 C.3   142  LEU142      0.0270
    183  CG       114.6850   69.7050    7.4960 C.3   142  LEU142      0.0019
    184  CD1      116.0820   69.0930    7.3500 C.3   142  LEU142      0.0001
    185  CD2      113.8730   68.9410    8.5420 C.3   142  LEU142      0.0001
    186  N        114.9130   69.7720    2.8990 N.3   152  GLY152     -0.1210
    187  CA       115.6590   68.8520    3.7450 C.3   152  GLY152      0.1956
    188  C        115.5910   67.3710    3.3880 C.2   152  GLY152      0.2611
    189  O        116.1920   66.5580    4.0630 O.2   152  GLY152     -0.2717
    190  N        114.8700   67.0270    2.3340 N.am  153  ASP153     -0.1973
    191  CA       114.7730   65.6360    1.8970 C.3   153  ASP153      0.1709
    192  C        114.6070   65.5610    0.3900 C.2   153  ASP153      0.2293
    193  O        113.8880   66.3850   -0.1980 O.2   153  ASP153     -0.2864
    194  CB       113.5900   64.9510    2.5630 C.3   153  ASP153      0.1436
    195  CG       113.6330   63.4460    2.3460 C.2   153  ASP153      0.3671
    196  OD1      114.3010   62.7270    3.1390 O.co2 153  ASP153     -0.2456
    197  OD2      113.0820   62.9940    1.3270 O.co2 153  ASP153     -0.2456
@<TRIPOS>BOND
     1   193   192    2
     2   192   191    1
     3   197   195   ar
     4   169   167    1
     5   177   175   am
     6   191   190    1
     7   191   194    1
     8    68    67    1
     9    72    71    2
    10   190   188   am
    11   195   194    1
    12   195   196   ar
    13   175   174    1
    14   175   176    2
    15   174   171    1
    16    69    70    1
    17   167   166    2
    18   167   168    1
    19   186   187    1
    20    67    66    1
    21    71    70    1
    22   173   172    2
    23   166   165    1
    24   188   187    1
    25   188   189    2
    26    74    73    1
    27    43    42    2
    28    44    45    1
    29    42    41    1
    30    70    73    1
    31    66    65    1
    32   172   171    1
    33   171   170    1
    34    73    75    1
    35    45    46    1
    36    82    81    1
    37    82    83    1
    38   170   161   am
    39   165   164    1
    40    41    40    1
    41    65    64    1
    42   164   163    1
    43    81    80    1
    44   159   160    1
    45    64    61    1
    46    46    47    2
    47   161   160    1
    48   161   162    2
    49    63    62    2
    50    40    33   am
    51    92    90   ar
    52    80    77    1
    53   163   160    1
    54    62    61    1
    55   178   179    1
    56    77    76    1
    57    77    78    1
    58    61    60    1
    59    33    34    2
    60    33    32    1
    61    90    89    1
    62    90    91   ar
    63   184   183    1
    64   181   180    2
    65   183   182    1
    66   183   185    1
    67    54    52    1
    68    89    88    1
    69   179   182    1
    70   179   180    1
    71    84    78   am
    72    84    85    1
    73    78    79    2
    74   111   110    1
    75    32    35    1
    76    32    31    1
    77    88    85    1
    78    35    36    1
    79    85    86    1
    80    87    86    2
    81    52    53    1
    82    52    49    1
    83    58    57    2
    84   110   112    1
    85   110   109    1
    86    48    49    1
    87    31    29   am
    88    49    50    1
    89    86    93   am
    90   140   137    1
    91   140   141    1
    92    30    29    2
    93    36    37    1
    94    37    38    1
    95    29    28    1
    96    57    56    1
    97   137   138    1
    98   137   136    1
    99    59    56    1
   100   138   139    2
   101   109   106    1
   102    56    55    1
   103    28    27    1
   104    93    94    1
   105   135   134    2
   106    50    51    2
   107    38    39    1
   108   136   134   am
   109   105   106    1
   110   105    95   am
   111   142   143    1
   112   134   133    1
   113   106   107    1
   114    94    95    1
   115    94    97    1
   116    27    21   am
   117    95    96    2
   118    22    21    2
   119    21    20    1
   120    23    20    1
   121    23    24    1
   122    25    24    1
   123   148   147   ar
   124   133   132    1
   125   107   108    2
   126   107   113   am
   127   143   146    1
   128   143   144    1
   129    97    98    1
   130   147   149   ar
   131   147   146    1
   132    20    19    1
   133   132   122   am
   134    24    26    1
   135   144   145    2
   136    18    16   am
   137   119   113    1
   138   119   118    1
   139    19    12   am
   140   113   114    1
   141    99    98   ar
   142    99   101   ar
   143   122   123    2
   144   122   121    1
   145    98   100   ar
   146   124   121    1
   147   124   125    1
   148   120   121    1
   149   120   115   am
   150    16    17    2
   151    16    15    1
   152   101   103   ar
   153    12    11    1
   154    12    13    2
   155   100   102   ar
   156   127   125   ar
   157   127   129   ar
   158   118   117    1
   159   114   115    1
   160   114   117    1
   161   125   126   ar
   162   115   116    2
   163    11    14    1
   164    11    10    1
   165    14    15    1
   166   129   130   ar
   167   103   102   ar
   168   103   104    1
   169     4     3    2
   170   150   151    1
   171   126   128   ar
   172    10     3   am
   173     3     2    1
   174   130   128   ar
   175   130   131    1
   176   151   152    1
   177   151   154    1
   178   152   153    2
   179   158   157    1
   180   154   155    1
   181   156   155    1
   182   156   157    1
   183     2     1    1
   184     2     5    1
   185     9     7   am
   186     6     5    1
   187     6     7    1
   188     7     8    2
