@<TRIPOS>MOLECULE
tmp/4aqdA05.pdb
 76 71 0 0 0
SMALL
GASTEIGER

@<TRIPOS>ATOM
      1  N         -4.3280   15.8490  -16.4060 N.3   464  SER464     -0.1217
      2  CA        -4.9060   15.7170  -17.7350 C.3   464  SER464      0.1889
      3  C         -5.4060   14.2880  -18.0450 C.2   464  SER464      0.2288
      4  O         -6.4700   14.1060  -18.6400 O.2   464  SER464     -0.2866
      5  CB        -3.8730   16.1840  -18.7650 C.3   464  SER464      0.2089
      6  OG        -4.4270   16.2250  -20.0520 O.3   464  SER464     -0.2183
      7  N         -9.3150   13.0630  -18.6180 N.3   468  ARG468     -0.1245
      8  CA        -9.7580   12.2970  -19.7930 C.3   468  ARG468      0.1563
      9  C        -10.3850   10.9240  -19.4200 C.2   468  ARG468      0.2260
     10  O        -11.3910   10.5340  -19.9950 O.2   468  ARG468     -0.2867
     11  CB        -8.6310   12.1190  -20.8230 C.3   468  ARG468      0.0307
     12  CG        -7.9890   13.4000  -21.3850 C.3   468  ARG468      0.0489
     13  CD        -6.9310   13.0600  -22.4770 C.3   468  ARG468      0.2205
     14  NE        -6.4470   14.2180  -23.2400 N.pl3 468  ARG468     -0.0865
     15  CZ        -7.0340   14.7120  -24.3310 C.cat 468  ARG468      0.5346
     16  NH1       -8.1400   14.1500  -24.7980 N.pl3 468  ARG468      0.1354
     17  NH2       -6.5230   15.7750  -24.9560 N.pl3 468  ARG468      0.1354
     18  N        -10.8510   16.4990  -22.7920 N.3   480  GLU480     -0.1245
     19  CA       -10.3070   17.2210  -21.6650 C.3   480  GLU480      0.1567
     20  C        -11.1330   18.4610  -21.5080 C.2   480  GLU480      0.2260
     21  O        -11.9600   18.5800  -20.5990 O.2   480  GLU480     -0.2867
     22  CB        -8.8570   17.5990  -21.9210 C.3   480  GLU480      0.0388
     23  CG        -8.2070   18.2990  -20.7500 C.3   480  GLU480      0.1160
     24  CD        -6.7040   18.1840  -20.7860 C.2   480  GLU480      0.3649
     25  OE1       -6.1590   17.8930  -21.8780 O.co2 480  GLU480     -0.2457
     26  OE2       -6.0740   18.3790  -19.7210 O.co2 480  GLU480     -0.2457
     27  N         -8.4380   24.9000  -26.3720 N.3   484  ASN484     -0.1225
     28  CA        -7.0680   24.7300  -25.8860 C.3   484  ASN484      0.1785
     29  C         -6.6610   23.2840  -25.5990 C.2   484  ASN484      0.2598
     30  O         -5.6940   23.0240  -24.8850 O.2   484  ASN484     -0.2718
     31  CB        -6.7860   25.6300  -24.6830 C.3   484  ASN484      0.1169
     32  CG        -5.3100   25.9170  -24.5140 C.2   484  ASN484      0.2627
     33  OD1       -4.5050   25.5960  -25.3960 O.2   484  ASN484     -0.2716
     34  ND2       -4.9440   26.5230  -23.3800 N.am  484  ASN484     -0.0877
     35  N         -7.3820   22.3380  -26.1800 N.am  485  SER485     -0.1938
     36  CA        -7.0810   20.9360  -25.9250 C.3   485  SER485      0.2055
     37  C         -6.8840   20.1640  -27.2160 C.2   485  SER485      0.2643
     38  O         -7.6450   20.3300  -28.1650 O.2   485  SER485     -0.2714
     39  CB        -8.1900   20.2990  -25.0920 C.3   485  SER485      0.2130
     40  OG        -7.8090   19.0070  -24.6530 O.3   485  SER485     -0.2179
     41  N         -5.8460   19.3400  -27.2620 N.am  486  THR486     -0.1950
     42  CA        -5.6770   18.4110  -28.3790 C.3   486  THR486      0.1897
     43  C         -6.7950   17.3660  -28.3320 C.2   486  THR486      0.2313
     44  O         -6.9760   16.6660  -27.3330 O.2   486  THR486     -0.2863
     45  CB        -4.2810   17.7150  -28.3780 C.3   486  THR486      0.1794
     46  OG1       -3.2780   18.6480  -28.8000 O.3   486  THR486     -0.2208
     47  CG2       -4.2610   16.5260  -29.3310 C.3   486  THR486      0.0378
     48  N          4.8350   14.5580  -21.2810 N.3   503  THR503     -0.1203
     49  CA         4.9190   15.9100  -20.7520 C.3   503  THR503      0.1994
     50  C          5.3790   16.9520  -21.7800 C.2   503  THR503      0.2618
     51  O          5.0770   18.1390  -21.6410 O.2   503  THR503     -0.2717
     52  CB         5.7930   15.9730  -19.4680 C.3   503  THR503      0.1784
     53  OG1        7.1690   15.7630  -19.7990 O.3   503  THR503     -0.2211
     54  CG2        5.3450   14.9090  -18.4720 C.3   503  THR503      0.0376
     55  N          6.0970   16.5160  -22.8100 N.am  504  GLU504     -0.1965
     56  CA         6.5410   17.4430  -23.8460 C.3   504  GLU504      0.1733
     57  C          5.3430   18.0030  -24.6070 C.2   504  GLU504      0.2617
     58  O          5.0050   19.1850  -24.4770 O.2   504  GLU504     -0.2715
     59  CB         7.5330   16.7780  -24.8060 C.3   504  GLU504      0.0429
     60  CG         8.9740   16.7890  -24.3170 C.3   504  GLU504      0.1163
     61  CD         9.9190   16.0870  -25.2740 C.2   504  GLU504      0.3649
     62  OE1        9.4370   15.5030  -26.2670 O.co2 504  GLU504     -0.2457
     63  OE2       11.1450   16.1200  -25.0330 O.co2 504  GLU504     -0.2457
     64  N          4.6970   17.1480  -25.3920 N.am  505  SER505     -0.1936
     65  CA         3.5160   17.5540  -26.1410 C.3   505  SER505      0.2055
     66  C          2.7190   16.3360  -26.5270 C.2   505  SER505      0.2643
     67  O          3.2810   15.3440  -26.9810 O.2   505  SER505     -0.2714
     68  CB         3.9120   18.2900  -27.4170 C.3   505  SER505      0.2130
     69  OG         4.3940   17.3670  -28.3750 O.3   505  SER505     -0.2179
     70  N          1.4070   16.4120  -26.3600 N.am  506  THR506     -0.1950
     71  CA         0.5550   15.3140  -26.7850 C.3   506  THR506      0.1897
     72  C          0.0830   15.5200  -28.2240 C.2   506  THR506      0.2313
     73  O         -0.3200   16.6120  -28.6170 O.2   506  THR506     -0.2863
     74  CB        -0.6320   15.1130  -25.8360 C.3   506  THR506      0.1794
     75  OG1       -1.4720   16.2720  -25.8650 O.3   506  THR506     -0.2208
     76  CG2       -0.1240   14.8550  -24.4100 C.3   506  THR506      0.0378
@<TRIPOS>BOND
     1    47    45    1
     2    46    45    1
     3    73    72    2
     4    42    45    1
     5    42    43    1
     6    42    41    1
     7    69    68    1
     8    43    44    2
     9    72    71    1
    10    38    37    2
    11    68    65    1
    12    41    37   am
    13    37    36    1
    14    67    66    2
    15    71    70    1
    16    71    74    1
    17    66    70   am
    18    66    65    1
    19    27    28    1
    20    62    61   ar
    21    35    36    1
    22    35    29   am
    23    65    64    1
    24    36    39    1
    25    28    29    1
    26    28    31    1
    27    75    74    1
    28    74    76    1
    29    29    30    2
    30    33    32    2
    31    64    57   am
    32    61    63   ar
    33    61    60    1
    34    39    40    1
    35    17    15    1
    36    59    60    1
    37    59    56    1
    38    16    15    1
    39    31    32    1
    40    57    58    2
    41    57    56    1
    42    32    34   am
    43    15    14    2
    44    56    55    1
    45    14    13    1
    46    55    50   am
    47    18    19    1
    48    13    12    1
    49    22    19    1
    50    22    23    1
    51    25    24   ar
    52    50    51    2
    53    50    49    1
    54    19    20    1
    55    20    21    2
    56    12    11    1
    57    48    49    1
    58    11     8    1
    59    24    23    1
    60    24    26   ar
    61    49    52    1
    62     6     5    1
    63    10     9    2
    64    53    52    1
    65     8     9    1
    66     8     7    1
    67    52    54    1
    68     5     2    1
    69     4     3    2
    70     3     2    1
    71     2     1    1
