@<TRIPOS>MOLECULE
tmp/4aqhB00.pdb
 156 149 0 0 0
SMALL
GASTEIGER

@<TRIPOS>ATOM
      1  N        -50.9320  -19.3390   -7.3130 N.3    12  VAL12      -0.1245
      2  CA       -51.0330  -18.2320   -8.2920 C.3    12  VAL12       0.1561
      3  C        -50.8570  -18.5610   -9.7620 C.2    12  VAL12       0.2260
      4  O        -51.4950  -17.9330  -10.5940 O.2    12  VAL12      -0.2867
      5  CB       -50.0440  -17.0650   -8.0540 C.3    12  VAL12       0.0252
      6  CG1      -50.8080  -15.7950   -7.6410 C.3    12  VAL12       0.0019
      7  CG2      -48.9110  -17.4780   -7.1420 C.3    12  VAL12       0.0019
      8  N        -53.5420  -17.6850  -12.3830 N.3    16  ALA16      -0.1245
      9  CA       -53.1500  -16.7580  -13.4510 C.3    16  ALA16       0.1562
     10  C        -53.4120  -17.3880  -14.8210 C.2    16  ALA16       0.2260
     11  O        -53.9250  -16.7590  -15.7320 O.2    16  ALA16      -0.2867
     12  CB       -51.6600  -16.4270  -13.2890 C.3    16  ALA16       0.0290
     13  N        -50.3040  -16.2600  -19.8320 N.3    41  TYR41      -0.1241
     14  CA       -49.4520  -15.6730  -18.8230 C.3    41  TYR41       0.1605
     15  C        -49.2620  -14.2000  -19.1470 C.2    41  TYR41       0.2264
     16  O        -49.3850  -13.3580  -18.2680 O.2    41  TYR41      -0.2867
     17  CB       -48.1150  -16.3970  -18.7860 C.3    41  TYR41       0.0534
     18  CG       -47.1500  -15.9450  -17.7060 C.ar   41  TYR41      -0.0201
     19  CD1      -47.2310  -16.4770  -16.4150 C.ar   41  TYR41      -0.0009
     20  CD2      -46.1220  -15.0510  -17.9910 C.ar   41  TYR41      -0.0009
     21  CE1      -46.3370  -16.0980  -15.4140 C.ar   41  TYR41       0.0417
     22  CE2      -45.2270  -14.6390  -17.0060 C.ar   41  TYR41       0.0417
     23  CZ       -45.3300  -15.1780  -15.7220 C.ar   41  TYR41       0.1957
     24  OH       -44.4510  -14.7950  -14.7530 O.3    41  TYR41      -0.2866
     25  N        -52.2610  -12.1570  -18.1830 N.3    44  ALA44      -0.1231
     26  CA       -52.4150  -12.2280  -16.7440 C.3    44  ALA44       0.1694
     27  C        -51.4240  -11.2350  -16.1060 C.2    44  ALA44       0.2592
     28  O        -51.8090  -10.4740  -15.2010 O.2    44  ALA44      -0.2718
     29  CB       -52.1620  -13.6710  -16.2690 C.3    44  ALA44       0.0304
     30  N        -50.1740  -11.2200  -16.6010 N.am   45  SER45      -0.1952
     31  CA       -49.1270  -10.3460  -16.0720 C.3    45  SER45       0.1924
     32  C        -49.4740   -8.8710  -16.1420 C.2    45  SER45       0.2314
     33  O        -49.1630   -8.1100  -15.2090 O.2    45  SER45      -0.2863
     34  CB       -47.8000  -10.5520  -16.7950 C.3    45  SER45       0.2116
     35  OG       -47.2150  -11.7860  -16.4680 O.3    45  SER45      -0.2180
     36  N        -52.3850   -7.9370  -13.8480 N.3    48  ALA48      -0.1245
     37  CA       -51.9070   -7.9350  -12.4540 C.3    48  ALA48       0.1562
     38  C        -51.1900   -6.6140  -12.0990 C.2    48  ALA48       0.2260
     39  O        -51.2570   -6.1480  -10.9510 O.2    48  ALA48      -0.2867
     40  CB       -51.0110   -9.1000  -12.2140 C.3    48  ALA48       0.0290
     41  N        -58.1810  -13.4200   -8.0150 N.3    68  PHE68      -0.1241
     42  CA       -57.2240  -13.2060   -6.9200 C.3    68  PHE68       0.1605
     43  C        -56.7480  -11.7500   -6.7960 C.2    68  PHE68       0.2264
     44  O        -56.8120  -10.9630   -7.7560 O.2    68  PHE68      -0.2867
     45  CB       -56.0330  -14.1490   -7.0250 C.3    68  PHE68       0.0534
     46  CG       -55.0990  -13.8320   -8.1660 C.ar   68  PHE68      -0.0203
     47  CD1      -55.3470  -14.3050   -9.4290 C.ar   68  PHE68      -0.0042
     48  CD2      -53.9350  -13.0950   -7.9410 C.ar   68  PHE68      -0.0042
     49  CE1      -54.4780  -14.0280  -10.4760 C.ar   68  PHE68      -0.0003
     50  CE2      -53.0490  -12.8320   -8.9690 C.ar   68  PHE68      -0.0003
     51  CZ       -53.3320  -13.2920  -10.2520 C.ar   68  PHE68      -0.0000
     52  N        -53.5890   -9.2460   -5.9920 N.3    70  ILE70      -0.1245
     53  CA       -52.1350   -9.3420   -5.9900 C.3    70  ILE70       0.1561
     54  C        -51.5320   -8.8240   -4.6750 C.2    70  ILE70       0.2260
     55  O        -50.4900   -9.3240   -4.2220 O.2    70  ILE70      -0.2867
     56  CB       -51.5230   -8.6990   -7.2750 C.3    70  ILE70       0.0252
     57  CG1      -50.1220   -9.2410   -7.5420 C.3    70  ILE70       0.0019
     58  CG2      -51.5910   -7.1790   -7.2650 C.3    70  ILE70       0.0019
     59  CD1      -49.6820   -8.9700   -8.9680 C.3    70  ILE70       0.0001
     60  N        -44.5370  -14.7320   -6.0590 N.3    79  LEU79      -0.1231
     61  CA       -44.2780  -14.1540   -7.3650 C.3    79  LEU79       0.1693
     62  C        -42.7830  -14.2800   -7.6370 C.2    79  LEU79       0.2591
     63  O        -42.3600  -14.6660   -8.7320 O.2    79  LEU79      -0.2718
     64  CB       -44.7650  -12.7050   -7.4250 C.3    79  LEU79       0.0284
     65  CG       -46.0910  -12.4360   -8.1460 C.3    79  LEU79       0.0019
     66  CD1      -47.1440  -13.5660   -8.0380 C.3    79  LEU79       0.0001
     67  CD2      -46.7090  -11.0420   -7.7950 C.3    79  LEU79       0.0001
     68  N        -41.9820  -14.0110   -6.6120 N.am   80  ARG80      -0.1980
     69  CA       -40.5470  -14.2540   -6.7090 C.3    80  ARG80       0.1597
     70  C        -40.2840  -15.7070   -7.1150 C.2    80  ARG80       0.2287
     71  O        -39.5100  -15.9860   -8.0350 O.2    80  ARG80      -0.2864
     72  CB       -39.8440  -13.9320   -5.3630 C.3    80  ARG80       0.0334
     73  CG       -39.9350  -12.4340   -4.9580 C.3    80  ARG80       0.0492
     74  CD       -39.2960  -11.5130   -5.9910 C.3    80  ARG80       0.2205
     75  NE       -40.2650  -10.9530   -6.9380 N.pl3  80  ARG80      -0.0865
     76  CZ       -40.2220  -11.1100   -8.2680 C.cat  80  ARG80       0.5346
     77  NH1      -39.2670  -11.8420   -8.8380 N.pl3  80  ARG80       0.1354
     78  NH2      -41.1490  -10.5440   -9.0340 N.pl3  80  ARG80       0.1354
     79  N        -42.2200  -18.0000   -8.4770 N.3    82  LEU82      -0.1231
     80  CA       -42.7110  -18.3210   -9.8030 C.3    82  LEU82       0.1693
     81  C        -41.7470  -17.7830  -10.8760 C.2    82  LEU82       0.2592
     82  O        -41.3900  -18.5050  -11.8060 O.2    82  LEU82      -0.2718
     83  CB       -44.1420  -17.8040  -10.0190 C.3    82  LEU82       0.0284
     84  CG       -44.7650  -18.0680  -11.3960 C.3    82  LEU82       0.0019
     85  CD1      -44.9640  -19.5620  -11.7300 C.3    82  LEU82       0.0001
     86  CD2      -46.0720  -17.3310  -11.5160 C.3    82  LEU82       0.0001
     87  N        -41.3420  -16.5220  -10.7410 N.am   83  TYR83      -0.1976
     88  CA       -40.4300  -15.8950  -11.6820 C.3    83  TYR83       0.1639
     89  C        -39.1690  -16.7410  -11.7450 C.2    83  TYR83       0.2290
     90  O        -38.7010  -17.0990  -12.8450 O.2    83  TYR83      -0.2864
     91  CB       -40.0810  -14.4670  -11.2420 C.3    83  TYR83       0.0560
     92  CG       -39.1510  -13.7410  -12.2060 C.ar   83  TYR83      -0.0198
     93  CD1      -39.6670  -13.0730  -13.2980 C.ar   83  TYR83      -0.0009
     94  CD2      -37.7460  -13.7160  -12.0090 C.ar   83  TYR83      -0.0009
     95  CE1      -38.8330  -12.4030  -14.1990 C.ar   83  TYR83       0.0417
     96  CE2      -36.8880  -13.0280  -12.9290 C.ar   83  TYR83       0.0417
     97  CZ       -37.4520  -12.3830  -14.0170 C.ar   83  TYR83       0.1957
     98  OH       -36.6900  -11.7000  -14.9540 O.3    83  TYR83      -0.2866
     99  N        -39.3820  -13.3990  -19.2210 N.3    97  THR97      -0.1203
    100  CA       -40.5770  -12.5890  -19.0520 C.3    97  THR97       0.1994
    101  C        -40.1840  -11.2760  -18.4280 C.2    97  THR97       0.2619
    102  O        -39.4640  -11.2600  -17.4250 O.2    97  THR97      -0.2717
    103  CB       -41.6890  -13.2830  -18.1840 C.3    97  THR97       0.1784
    104  OG1      -42.8270  -12.4310  -18.1450 O.3    97  THR97      -0.2211
    105  CG2      -41.2460  -13.5280  -16.7630 C.3    97  THR97       0.0376
    106  N        -40.6190  -10.1790  -19.0310 N.am   98  THR98      -0.1938
    107  CA       -40.2450   -8.8920  -18.5030 C.3    98  THR98       0.2028
    108  C        -41.4850   -8.0490  -18.5610 C.2    98  THR98       0.2642
    109  O        -42.2560   -8.1870  -19.4980 O.2    98  THR98      -0.2714
    110  CB       -39.0730   -8.2580  -19.2930 C.3    98  THR98       0.1808
    111  OG1      -38.0480   -9.2390  -19.4550 O.3    98  THR98      -0.2208
    112  CG2      -38.4640   -7.0750  -18.5200 C.3    98  THR98       0.0379
    113  N        -41.6950   -7.2140  -17.5420 N.am   99  ASP99      -0.1971
    114  CA       -42.8320   -6.2840  -17.5220 C.3    99  ASP99       0.1709
    115  C        -42.3080   -4.8660  -17.4480 C.2    99  ASP99       0.2293
    116  O        -41.2000   -4.6350  -16.9590 O.2    99  ASP99      -0.2864
    117  CB       -43.7160   -6.5400  -16.2840 C.3    99  ASP99       0.1436
    118  CG       -44.3450   -7.9190  -16.2900 C.2    99  ASP99       0.3671
    119  OD1      -45.2540   -8.1490  -17.1310 O.co2  99  ASP99      -0.2456
    120  OD2      -43.9260   -8.7520  -15.4620 O.co2  99  ASP99      -0.2456
    121  N        -43.6030   -6.4610   -6.1550 N.3   120  LEU120     -0.1231
    122  CA       -44.2770   -7.5790   -6.8570 C.3   120  LEU120      0.1693
    123  C        -43.6780   -7.8610   -8.2490 C.2   120  LEU120      0.2592
    124  O        -43.5820   -9.0290   -8.6520 O.2   120  LEU120     -0.2718
    125  CB       -45.7860   -7.3140   -6.9590 C.3   120  LEU120      0.0284
    126  CG       -46.4560   -7.2080   -5.5690 C.3   120  LEU120      0.0019
    127  CD1      -47.7460   -6.4380   -5.5750 C.3   120  LEU120      0.0001
    128  CD2      -46.6750   -8.5610   -4.9830 C.3   120  LEU120      0.0001
    129  N        -43.2680   -6.7970   -8.9600 N.am  121  PHE121     -0.1962
    130  CA       -42.7050   -6.9180  -10.3190 C.3   121  PHE121      0.1771
    131  C        -41.2000   -6.5980  -10.4600 C.2   121  PHE121      0.2619
    132  O        -40.6900   -6.6420  -11.5630 O.2   121  PHE121     -0.2715
    133  CB       -43.5080   -6.0930  -11.3330 C.3   121  PHE121      0.0574
    134  CG       -44.9400   -6.5090  -11.4500 C.ar  121  PHE121     -0.0200
    135  CD1      -45.8740   -6.1230  -10.4870 C.ar  121  PHE121     -0.0042
    136  CD2      -45.3710   -7.2620  -12.5400 C.ar  121  PHE121     -0.0042
    137  CE1      -47.2080   -6.4910  -10.6060 C.ar  121  PHE121     -0.0003
    138  CE2      -46.6880   -7.6380  -12.6690 C.ar  121  PHE121     -0.0003
    139  CZ       -47.6100   -7.2640  -11.6920 C.ar  121  PHE121     -0.0000
    140  N        -40.5060   -6.3330   -9.3500 N.am  122  ARG122     -0.1963
    141  CA       -39.0660   -6.0950   -9.3060 C.3   122  ARG122      0.1729
    142  C        -38.6460   -5.0950  -10.3750 C.2   122  ARG122      0.2616
    143  O        -37.5280   -5.1100  -10.8730 O.2   122  ARG122     -0.2715
    144  CB       -38.2570   -7.3960   -9.3840 C.3   122  ARG122      0.0348
    145  CG       -38.1160   -8.1570   -8.0770 C.3   122  ARG122      0.0492
    146  CD       -37.5450   -7.2620   -6.9460 C.3   122  ARG122      0.2205
    147  NE       -37.0290   -8.0800   -5.8580 N.pl3 122  ARG122     -0.0865
    148  CZ       -37.7340   -8.3930   -4.7680 C.cat 122  ARG122      0.5346
    149  NH1      -38.9820   -7.9330   -4.6200 N.pl3 122  ARG122      0.1354
    150  NH2      -37.1950   -9.1640   -3.8260 N.pl3 122  ARG122      0.1354
    151  N        -39.5520   -4.1930  -10.6870 N.am  123  SER123     -0.1950
    152  CA       -39.4020   -3.3570  -11.8390 C.3   123  SER123      0.1924
    153  C        -39.6580   -1.9240  -11.4090 C.2   123  SER123      0.2314
    154  O        -40.3290   -1.6830  -10.3970 O.2   123  SER123     -0.2863
    155  CB       -40.4100   -3.8080  -12.9190 C.3   123  SER123      0.2116
    156  OG       -40.6290   -2.8060  -13.8830 O.3   123  SER123     -0.2180
@<TRIPOS>BOND
     1    13    14    1
     2   109   108    2
     3   111   110    1
     4   110   112    1
     5   110   107    1
     6    99   100    1
     7    15    14    1
     8    15    16    2
     9   100   101    1
    10   100   103    1
    11   106   107    1
    12   106   101   am
    13    14    17    1
    14    17    18    1
    15   108   107    1
    16   108   113   am
    17   101   102    2
    18   103   104    1
    19   103   105    1
    20    25    26    1
    21    20    18   ar
    22    20    22   ar
    23    18    19   ar
    24   113   114    1
    25   114   115    1
    26   114   117    1
    27   115   116    2
    28   119   118   ar
    29    22    23   ar
    30    34    35    1
    31    34    31    1
    32    26    29    1
    33    26    27    1
    34    30    27   am
    35    30    31    1
    36    19    21   ar
    37   118   117    1
    38   118   120   ar
    39    32    31    1
    40    32    33    2
    41    27    28    2
    42    11    10    2
    43    23    21   ar
    44    23    24    1
    45    98    97    1
    46    10     9    1
    47    95    97   ar
    48    95    93   ar
    49    97    96   ar
    50   156   155    1
    51    36    37    1
    52     9    12    1
    53     9     8    1
    54    93    92   ar
    55    96    94   ar
    56   155   152    1
    57    90    89    2
    58   138   136   ar
    59   138   139   ar
    60   136   134   ar
    61    37    40    1
    62    37    38    1
    63    92    94   ar
    64    92    91    1
    65    38    39    2
    66   152   153    1
    67   152   151    1
    68    82    81    2
    69    89    88    1
    70    85    84    1
    71   139   137   ar
    72    88    91    1
    73    88    87    1
    74   132   131    2
    75    86    84    1
    76   134   133    1
    77   134   135   ar
    78   153   154    2
    79    84    83    1
    80   133   130    1
    81    81    87   am
    82    81    80    1
    83   143   142    2
    84   151   142   am
    85   137   135   ar
    86     4     3    2
    87    49    51   ar
    88    49    47   ar
    89   131   130    1
    90   131   140   am
    91   142   141    1
    92   130   129    1
    93    51    50   ar
    94    83    80    1
    95    80    79    1
    96     3     2    1
    97    47    46   ar
    98   144   141    1
    99   144   145    1
   100   140   141    1
   101    78    76    1
   102    50    48   ar
   103    59    57    1
   104   129   123   am
   105    77    76    1
   106    63    62    2
   107   124   123    2
   108     2     5    1
   109     2     1    1
   110    76    75    2
   111   123   122    1
   112    46    48   ar
   113    46    45    1
   114    65    66    1
   115    65    67    1
   116    65    64    1
   117   145   146    1
   118     5     6    1
   119     5     7    1
   120    71    70    2
   121    41    42    1
   122    44    43    2
   123    62    61    1
   124    62    68   am
   125    57    56    1
   126    64    61    1
   127    61    60    1
   128    56    58    1
   129    56    53    1
   130    70    69    1
   131    45    42    1
   132   125   122    1
   133   125   126    1
   134   146   147    1
   135    75    74    1
   136    42    43    1
   137   122   121    1
   138    69    68    1
   139    69    72    1
   140    52    53    1
   141    74    73    1
   142    53    54    1
   143   147   148    2
   144   127   126    1
   145   126   128    1
   146    72    73    1
   147   148   149    1
   148   148   150    1
   149    54    55    2
