@<TRIPOS>MOLECULE
tmp/4aqlA00.pdb
 188 181 0 0 0
SMALL
GASTEIGER

@<TRIPOS>ATOM
      1  N         -6.6210  -28.5340    6.9930 N.3    76  HIS76      -0.1241
      2  CA        -6.9280  -27.2000    6.5220 C.3    76  HIS76       0.1621
      3  C         -8.3330  -27.1480    6.0080 C.2    76  HIS76       0.2264
      4  O         -8.6060  -27.4780    4.8410 O.2    76  HIS76      -0.2867
      5  CB        -5.9830  -26.7320    5.4170 C.3    76  HIS76       0.0745
      6  CG        -4.5600  -26.6670    5.8220 C.ar   76  HIS76       0.0817
      7  ND1       -3.9050  -25.4830    6.0740 N.ar   76  HIS76      -0.2268
      8  CD2       -3.6400  -27.6860    6.0450 C.ar   76  HIS76       0.1154
      9  CE1       -2.6320  -25.7670    6.3910 C.ar   76  HIS76       0.1986
     10  NE2       -2.4820  -27.1150    6.3860 N.ar   76  HIS76      -0.2212
     11  N         -8.9970  -25.5100    2.6010 N.3    79  GLN79      -0.1245
     12  CA        -8.5790  -26.0870    1.3590 C.3    79  GLN79       0.1566
     13  C         -9.5270  -27.1690    0.8800 C.2    79  GLN79       0.2260
     14  O         -9.2930  -27.7410   -0.1770 O.2    79  GLN79      -0.2867
     15  CB        -7.1630  -26.6350    1.5170 C.3    79  GLN79       0.0367
     16  CG        -6.1760  -25.5750    1.9600 C.3    79  GLN79       0.0905
     17  CD        -4.7900  -26.1020    2.2490 C.2    79  GLN79       0.2608
     18  OE1       -4.4730  -27.2540    1.9690 O.2    79  GLN79      -0.2717
     19  NE2       -3.9550  -25.2520    2.8130 N.am   79  GLN79      -0.0878
     20  N          5.3920  -29.3310   -7.2820 N.3    90  PRO90      -0.2102
     21  CA         6.0080  -29.3430   -5.9440 C.3    90  PRO90       0.1504
     22  C          5.4190  -28.2800   -5.0080 C.2    90  PRO90       0.2576
     23  O          4.7270  -27.3640   -5.4570 O.2    90  PRO90      -0.2718
     24  CB         7.5020  -29.0790   -6.2130 C.3    90  PRO90       0.0282
     25  CG         7.6600  -28.9490   -7.6940 C.3    90  PRO90       0.0208
     26  CD         6.3010  -28.7860   -8.3100 C.3    90  PRO90       0.0893
     27  N          5.7380  -28.4030   -3.7260 N.am   91  LEU91      -0.1966
     28  CA         5.0040  -27.7340   -2.6530 C.3    91  LEU91       0.1728
     29  C          5.0210  -26.1910   -2.6280 C.2    91  LEU91       0.2616
     30  O          4.0260  -25.6030   -2.2090 O.2    91  LEU91      -0.2715
     31  CB         5.4450  -28.3010   -1.2960 C.3    91  LEU91       0.0311
     32  CG         4.6420  -27.9420   -0.0420 C.3    91  LEU91       0.0022
     33  CD1        3.1370  -28.0550   -0.2440 C.3    91  LEU91       0.0001
     34  CD2        5.0830  -28.8170    1.1210 C.3    91  LEU91       0.0001
     35  N          6.1020  -25.5260   -3.0510 N.am   92  LEU92      -0.1963
     36  CA         6.0500  -24.0570   -3.1870 C.3    92  LEU92       0.1728
     37  C          5.3060  -23.6820   -4.4610 C.2    92  LEU92       0.2616
     38  O          4.5350  -22.7170   -4.4680 O.2    92  LEU92      -0.2715
     39  CB         7.4340  -23.3900   -3.1710 C.3    92  LEU92       0.0311
     40  CG         7.4760  -21.8700   -3.4650 C.3    92  LEU92       0.0022
     41  CD1        6.4220  -21.1240   -2.6480 C.3    92  LEU92       0.0001
     42  CD2        8.8630  -21.2600   -3.2290 C.3    92  LEU92       0.0001
     43  N          5.5440  -24.4300   -5.5390 N.am   93  GLU93      -0.1963
     44  CA         4.7340  -24.2780   -6.7340 C.3    93  GLU93       0.1733
     45  C          3.2760  -24.4130   -6.3350 C.2    93  GLU93       0.2616
     46  O          2.4690  -23.5550   -6.6950 O.2    93  GLU93      -0.2715
     47  CB         5.0630  -25.3340   -7.8060 C.3    93  GLU93       0.0429
     48  CG         6.1310  -24.9380   -8.8300 C.3    93  GLU93       0.1163
     49  CD         7.5480  -25.3760   -8.4570 C.2    93  GLU93       0.3649
     50  OE1        7.7860  -25.8030   -7.2970 O.co2  93  GLU93      -0.2457
     51  OE2        8.4310  -25.2830   -9.3400 O.co2  93  GLU93      -0.2457
     52  N          2.9760  -25.4790   -5.5760 N.am   94  TRP94      -0.1960
     53  CA         1.5940  -25.8710   -5.2090 C.3    94  TRP94       0.1771
     54  C          0.9320  -24.8260   -4.3740 C.2    94  TRP94       0.2619
     55  O         -0.1380  -24.3160   -4.7470 O.2    94  TRP94      -0.2715
     56  CB         1.5720  -27.2230   -4.4620 C.3    94  TRP94       0.0590
     57  CG         0.1860  -27.7530   -4.0590 C.ar   94  TRP94       0.0006
     58  CD1       -0.7890  -28.3060   -4.8780 C.ar   94  TRP94       0.0946
     59  CD2       -0.3790  -27.8240   -2.7130 C.ar   94  TRP94       0.0152
     60  NE1       -1.8990  -28.6820   -4.1540 N.ar   94  TRP94      -0.2442
     61  CE2       -1.7110  -28.4260   -2.8500 C.ar   94  TRP94       0.0810
     62  CE3        0.0590  -27.4570   -1.4650 C.ar   94  TRP94       0.0012
     63  CZ2       -2.5340  -28.6310   -1.7640 C.ar   94  TRP94       0.0191
     64  CZ3       -0.7830  -27.6720   -0.3740 C.ar   94  TRP94       0.0001
     65  CH2       -2.0500  -28.2440   -0.5260 C.ar   94  TRP94       0.0015
     66  N          1.5760  -24.4970   -3.2450 N.am   95  LEU95      -0.1977
     67  CA         1.1150  -23.4260   -2.3680 C.3    95  LEU95       0.1596
     68  C          0.7510  -22.1980   -3.2160 C.2    95  LEU95       0.2287
     69  O         -0.3280  -21.6360   -3.0670 O.2    95  LEU95      -0.2864
     70  CB         2.1500  -23.1070   -1.2680 C.3    95  LEU95       0.0297
     71  CG         2.2160  -24.0310   -0.0220 C.3    95  LEU95       0.0022
     72  CD1        3.2620  -23.5740    0.9840 C.3    95  LEU95       0.0001
     73  CD2        0.8830  -24.1570    0.7020 C.3    95  LEU95       0.0001
     74  N          1.5450  -19.8390   10.3570 N.3   205  ARG205     -0.1231
     75  CA         1.4400  -20.8620    9.3210 C.3   205  ARG205      0.1694
     76  C          2.6750  -21.7840    9.3290 C.2   205  ARG205      0.2592
     77  O          2.5620  -23.0250    9.3290 O.2   205  ARG205     -0.2718
     78  CB         1.2230  -20.2430    7.9360 C.3   205  ARG205      0.0321
     79  CG         0.7410  -21.2930    6.9580 C.3   205  ARG205      0.0489
     80  CD         0.8870  -20.9000    5.5070 C.3   205  ARG205      0.2205
     81  NE         0.0740  -21.8180    4.7280 N.pl3 205  ARG205     -0.0865
     82  CZ        -1.2080  -21.6330    4.4290 C.cat 205  ARG205      0.5346
     83  NH1       -1.8520  -20.5270    4.7900 N.pl3 205  ARG205      0.1354
     84  NH2       -1.8510  -22.5690    3.7540 N.pl3 205  ARG205      0.1354
     85  N          3.8410  -21.1460    9.2870 N.am  206  PHE206     -0.1976
     86  CA         5.1380  -21.7700    9.4500 C.3   206  PHE206      0.1639
     87  C          6.1940  -20.6880    9.4230 C.2   206  PHE206      0.2290
     88  O          5.8970  -19.5250    9.1510 O.2   206  PHE206     -0.2864
     89  CB         5.4380  -22.9600    8.5190 C.3   206  PHE206      0.0560
     90  CG         5.5800  -22.6450    7.0540 C.ar  206  PHE206     -0.0200
     91  CD1        4.8350  -21.6640    6.4210 C.ar  206  PHE206     -0.0042
     92  CD2        6.4690  -23.3950    6.2840 C.ar  206  PHE206     -0.0042
     93  CE1        4.9560  -21.4450    5.0610 C.ar  206  PHE206     -0.0003
     94  CE2        6.6090  -23.1640    4.9120 C.ar  206  PHE206     -0.0003
     95  CZ         5.8430  -22.1940    4.3020 C.ar  206  PHE206     -0.0000
     96  N          8.6310  -19.7730    7.5750 N.3   208  LEU208     -0.1245
     97  CA         8.8370  -19.0410    6.3400 C.3   208  LEU208      0.1561
     98  C          7.7600  -17.9950    6.0300 C.2   208  LEU208      0.2260
     99  O          7.9700  -17.1540    5.1760 O.2   208  LEU208     -0.2867
    100  CB         8.9450  -20.0160    5.1590 C.3   208  LEU208      0.0270
    101  CG        10.0630  -21.0670    5.2280 C.3   208  LEU208      0.0019
    102  CD1        9.8900  -22.0910    4.1180 C.3   208  LEU208      0.0001
    103  CD2       11.4370  -20.4340    5.1610 C.3   208  LEU208      0.0001
    104  N          3.5100  -25.9800   11.1910 N.3   232  HIS232     -0.1241
    105  CA         4.1150  -27.0520   10.3910 C.3   232  HIS232      0.1621
    106  C          5.5740  -27.0890   10.6780 C.2   232  HIS232      0.2264
    107  O          6.2110  -26.0310   10.9040 O.2   232  HIS232     -0.2867
    108  CB         3.9920  -26.8100    8.8910 C.3   232  HIS232      0.0745
    109  CG         2.6080  -26.6060    8.4020 C.ar  232  HIS232      0.0817
    110  ND1        1.9780  -25.4170    8.4890 N.ar  232  HIS232     -0.2268
    111  CD2        1.7290  -27.4670    7.7650 C.ar  232  HIS232      0.1154
    112  CE1        0.7560  -25.5240    7.9550 C.ar  232  HIS232      0.1986
    113  NE2        0.5950  -26.7810    7.5290 N.ar  232  HIS232     -0.2212
    114  N          8.6810  -30.5120    6.9070 N.3   235  GLU235     -0.1231
    115  CA         7.8400  -31.3060    6.0170 C.3   235  GLU235      0.1699
    116  C          8.5840  -31.8300    4.7770 C.2   235  GLU235      0.2592
    117  O          8.3120  -32.9450    4.3120 O.2   235  GLU235     -0.2718
    118  CB         6.6240  -30.4640    5.5860 C.3   235  GLU235      0.0402
    119  CG         5.6490  -31.1770    4.6370 C.3   235  GLU235      0.1161
    120  CD         4.4580  -30.3050    4.2150 C.2   235  GLU235      0.3649
    121  OE1        4.3710  -29.1150    4.6320 O.co2 235  GLU235     -0.2457
    122  OE2        3.5850  -30.8220    3.4750 O.co2 235  GLU235     -0.2457
    123  N          9.4710  -31.0050    4.2110 N.am  236  ASN236     -0.1974
    124  CA        10.2470  -31.4380    3.0590 C.3   236  ASN236      0.1688
    125  C         11.6640  -30.8280    3.0490 C.2   236  ASN236      0.2292
    126  O         11.9530  -29.9080    3.8270 O.2   236  ASN236     -0.2864
    127  CB         9.4790  -31.2640    1.7490 C.3   236  ASN236      0.1181
    128  CG         9.4650  -29.8510    1.2380 C.2   236  ASN236      0.2629
    129  OD1       10.0780  -28.9590    1.7900 O.2   236  ASN236     -0.2716
    130  ND2        8.7780  -29.6540    0.1390 N.am  236  ASN236     -0.0877
    131  N         13.4160  -29.0870    0.8730 N.3   238  ASP238     -0.1225
    132  CA        13.5610  -27.7050    0.4310 C.3   238  ASP238      0.1805
    133  C         13.1170  -26.7300    1.5070 C.2   238  ASP238      0.2597
    134  O         13.6980  -25.6590    1.6720 O.2   238  ASP238     -0.2718
    135  CB        12.7740  -27.4630   -0.8590 C.3   238  ASP238      0.1424
    136  CG        13.3140  -28.2780   -2.0380 C.2   238  ASP238      0.3668
    137  OD1       14.5090  -28.6520   -2.0440 O.co2 238  ASP238     -0.2456
    138  OD2       12.5430  -28.5590   -2.9710 O.co2 238  ASP238     -0.2456
    139  N         12.0790  -27.0880    2.2440 N.am  239  GLU239     -0.1979
    140  CA        11.6530  -26.2580    3.3510 C.3   239  GLU239      0.1602
    141  C         12.7500  -26.2020    4.4180 C.2   239  GLU239      0.2287
    142  O         13.0460  -25.1200    4.9490 O.2   239  GLU239     -0.2864
    143  CB        10.3430  -26.7710    3.9460 C.3   239  GLU239      0.0415
    144  CG         9.8460  -26.0630    5.2070 C.3   239  GLU239      0.1163
    145  CD         8.8250  -26.9240    5.9890 C.2   239  GLU239      0.3649
    146  OE1        8.7770  -28.1480    5.7300 O.co2 239  GLU239     -0.2457
    147  OE2        8.0880  -26.4050    6.8700 O.co2 239  GLU239     -0.2457
    148  N         15.3870  -23.9240    3.1170 N.3   242  ALA242     -0.1245
    149  CA        14.9310  -22.5330    3.1290 C.3   242  ALA242      0.1562
    150  C         15.0210  -21.9040    4.5280 C.2   242  ALA242      0.2260
    151  O         15.3810  -20.7140    4.6890 O.2   242  ALA242     -0.2867
    152  CB        13.5120  -22.4070    2.5830 C.3   242  ALA242      0.0290
    153  N          3.6710  -32.7760   10.3550 N.3   271  HIS271     -0.1241
    154  CA         4.6280  -33.4060    9.4090 C.3   271  HIS271      0.1621
    155  C          5.8410  -33.9850   10.0630 C.2   271  HIS271      0.2264
    156  O          5.8690  -35.1950   10.3850 O.2   271  HIS271     -0.2867
    157  CB         4.9490  -32.5320    8.1910 C.3   271  HIS271      0.0745
    158  CG         3.7270  -32.0760    7.4420 C.ar  271  HIS271      0.0817
    159  ND1        2.9100  -32.9410    6.7840 N.ar  271  HIS271     -0.2268
    160  CD2        3.1540  -30.8140    7.3070 C.ar  271  HIS271      0.1154
    161  CE1        1.8620  -32.2550    6.2670 C.ar  271  HIS271      0.1986
    162  NE2        2.0290  -30.9460    6.5650 N.ar  271  HIS271     -0.2212
    163  N         -0.5950  -36.8470    2.7890 N.3   296  SER296     -0.1217
    164  CA         0.0490  -35.6360    2.2270 C.3   296  SER296      0.1889
    165  C          1.5590  -35.8350    1.9490 C.2   296  SER296      0.2288
    166  O          2.1060  -35.4560    0.8640 O.2   296  SER296     -0.2866
    167  CB        -0.1550  -34.4630    3.1900 C.3   296  SER296      0.2089
    168  OG         0.5240  -33.3070    2.7240 O.3   296  SER296     -0.2183
    169  N          2.3950  -35.3300   -1.9560 N.3   300  LEU300     -0.1245
    170  CA         3.2310  -34.2020   -2.3690 C.3   300  LEU300      0.1561
    171  C          4.6920  -34.5790   -2.5290 C.2   300  LEU300      0.2260
    172  O          5.5290  -33.7150   -2.6990 O.2   300  LEU300     -0.2867
    173  CB         3.0950  -33.0860   -1.3710 C.3   300  LEU300      0.0270
    174  CG         1.7130  -32.4790   -1.2850 C.3   300  LEU300      0.0019
    175  CD1        1.6800  -31.4510   -0.1680 C.3   300  LEU300      0.0001
    176  CD2        1.4040  -31.8240   -2.6280 C.3   300  LEU300      0.0001
    177  N         -4.3680  -33.7050    6.7630 N.3   322  ASP322     -0.1239
    178  CA        -3.7540  -32.6200    6.0130 C.3   322  ASP322      0.1674
    179  C         -4.4510  -32.2860    4.7070 C.2   322  ASP322      0.2266
    180  O         -3.7760  -31.9270    3.7250 O.2   322  ASP322     -0.2867
    181  CB        -2.2430  -32.8600    5.7220 C.3   322  ASP322      0.1410
    182  CG        -1.5420  -31.5920    5.1560 C.2   322  ASP322      0.3668
    183  OD1       -1.9960  -30.4510    5.4950 O.co2 322  ASP322     -0.2456
    184  OD2       -0.5850  -31.6920    4.3400 O.co2 322  ASP322     -0.2456
    185  N         -3.3870  -31.0400    1.0300 N.3   325  GLY325     -0.1225
    186  CA        -2.0880  -31.6160    0.6920 C.3   325  GLY325      0.1811
    187  C         -2.2900  -33.1190    0.6180 C.2   325  GLY325      0.2280
    188  O         -1.8370  -33.7520   -0.3140 O.2   325  GLY325     -0.2866
@<TRIPOS>BOND
     1    51    49   ar
     2    48    49    1
     3    48    47    1
     4    49    50   ar
     5    26    25    1
     6    26    20    1
     7    47    44    1
     8    25    24    1
     9    20    21    1
    10    44    45    1
    11    44    43    1
    12    46    45    2
    13    45    52   am
    14    24    21    1
    15    21    22    1
    16    52    53    1
    17    43    37   am
    18    23    22    2
    19    53    56    1
    20    53    54    1
    21    22    27   am
    22    58    60   ar
    23    58    57   ar
    24    55    54    2
    25    38    37    2
    26    56    57    1
    27    37    36    1
    28    54    66   am
    29    60    61   ar
    30    57    59   ar
    31    27    28    1
    32    40    42    1
    33    40    39    1
    34    40    41    1
    35    66    67    1
    36    68    69    2
    37    68    67    1
    38    36    39    1
    39    36    35    1
    40    35    29   am
    41   138   136   ar
    42    61    59   ar
    43    61    63   ar
    44    59    62   ar
    45   172   171    2
    46    28    29    1
    47    28    31    1
    48   176   174    1
    49    29    30    2
    50   171   170    1
    51   170   169    1
    52   170   173    1
    53    67    70    1
    54   137   136   ar
    55   136   135    1
    56    63    65   ar
    57    62    64   ar
    58   173   174    1
    59    31    32    1
    60   174   175    1
    61    70    71    1
    62   135   132    1
    63    65    64   ar
    64   188   187    2
    65    33    32    1
    66    14    13    2
    67    32    34    1
    68    71    73    1
    69    71    72    1
    70   130   128   am
    71   132   131    1
    72   132   133    1
    73   187   186    1
    74   186   185    1
    75   166   165    2
    76    13    12    1
    77   128   127    1
    78   128   129    2
    79    12    15    1
    80    12    11    1
    81   133   134    2
    82   133   139   am
    83    15    16    1
    84   127   124    1
    85   165   164    1
    86    16    17    1
    87    18    17    2
    88   164   163    1
    89   164   167    1
    90   139   140    1
    91    17    19   am
    92   152   149    1
    93   168   167    1
    94   125   124    1
    95   125   126    2
    96   124   123    1
    97   148   149    1
    98   149   150    1
    99   140   143    1
   100   140   141    1
   101   122   120   ar
   102   180   179    2
   103    84    82    1
   104   143   144    1
   105   102   101    1
   106   123   116   am
   107   120   121   ar
   108   120   119    1
   109    95    94   ar
   110    95    93   ar
   111   117   116    2
   112   184   182   ar
   113   141   142    2
   114    82    81    2
   115    82    83    1
   116   150   151    2
   117   119   118    1
   118   179   178    1
   119    81    80    1
   120   116   115    1
   121     4     3    2
   122    94    92   ar
   123    93    91   ar
   124   182   183   ar
   125   182   181    1
   126   100   101    1
   127   100    97    1
   128   103   101    1
   129    99    98    2
   130   144   145    1
   131     5     6    1
   132     5     2    1
   133    80    79    1
   134   118   115    1
   135   181   178    1
   136   146   145   ar
   137     6     8   ar
   138     6     7   ar
   139   145   147   ar
   140     3     2    1
   141   178   177    1
   142   115   114    1
   143    98    97    1
   144     8    10   ar
   145     7     9   ar
   146   161   162   ar
   147   161   159   ar
   148    92    90   ar
   149    97    96    1
   150    10     9   ar
   151    91    90   ar
   152     2     1    1
   153   162   160   ar
   154   159   158   ar
   155    79    78    1
   156    90    89    1
   157   160   158   ar
   158   158   157    1
   159   113   111   ar
   160   113   112   ar
   161   111   109   ar
   162    78    75    1
   163   112   110   ar
   164   157   154    1
   165   109   110   ar
   166   109   108    1
   167    89    86    1
   168   108   105    1
   169    88    87    2
   170    85    76   am
   171    85    86    1
   172    75    76    1
   173    75    74    1
   174    77    76    2
   175   154   155    1
   176   154   153    1
   177    87    86    1
   178   155   156    2
   179   105   106    1
   180   105   104    1
   181   106   107    2
