@<TRIPOS>MOLECULE
tmp/4ar2A00.pdb
 145 140 0 0 0
SMALL
GASTEIGER

@<TRIPOS>ATOM
      1  N         71.4670  -43.0070  -22.3520 N.3   151  ILE151     -0.1245
      2  CA        70.2020  -43.5170  -22.8640 C.3   151  ILE151      0.1561
      3  C         70.5450  -44.2520  -24.1550 C.2   151  ILE151      0.2260
      4  O         70.0680  -45.3580  -24.4130 O.2   151  ILE151     -0.2867
      5  CB        69.2150  -42.3450  -23.2000 C.3   151  ILE151      0.0252
      6  CG1       68.6080  -41.7610  -21.9150 C.3   151  ILE151      0.0019
      7  CG2       68.1520  -42.8180  -24.1680 C.3   151  ILE151      0.0019
      8  CD1       68.0480  -40.3590  -22.1030 C.3   151  ILE151      0.0001
      9  N         70.8480  -47.5650  -23.2470 N.3   154  TYR154     -0.1227
     10  CA        69.5980  -48.1780  -22.8460 C.3   154  TYR154      0.1736
     11  C         68.8000  -48.5930  -24.0680 C.2   154  TYR154      0.2595
     12  O         68.5620  -49.7690  -24.2870 O.2   154  TYR154     -0.2718
     13  CB        68.7500  -47.2100  -22.0190 C.3   154  TYR154      0.0548
     14  CG        67.2640  -47.5420  -22.0210 C.ar  154  TYR154     -0.0200
     15  CD1       66.7220  -48.4500  -21.1120 C.ar  154  TYR154     -0.0009
     16  CD2       66.4050  -46.9630  -22.9570 C.ar  154  TYR154     -0.0009
     17  CE1       65.3430  -48.7750  -21.1350 C.ar  154  TYR154      0.0417
     18  CE2       65.0380  -47.2800  -22.9950 C.ar  154  TYR154      0.0417
     19  CZ        64.5080  -48.1850  -22.0830 C.ar  154  TYR154      0.1957
     20  OH        63.1560  -48.4980  -22.1220 O.3   154  TYR154     -0.2866
     21  N         68.3810  -47.6140  -24.8570 N.am  155  LEU155     -0.1980
     22  CA        67.5980  -47.8860  -26.0490 C.3   155  LEU155      0.1596
     23  C         68.0780  -49.1240  -26.7890 C.2   155  LEU155      0.2287
     24  O         67.2760  -49.8900  -27.3230 O.2   155  LEU155     -0.2864
     25  CB        67.6490  -46.6850  -26.9730 C.3   155  LEU155      0.0297
     26  CG        68.9760  -45.9370  -27.0150 C.3   155  LEU155      0.0022
     27  CD1       69.9390  -46.6320  -27.9540 C.3   155  LEU155      0.0001
     28  CD2       68.7140  -44.5140  -27.4740 C.3   155  LEU155      0.0001
     29  N         65.1660  -51.6450  -23.8630 N.3   159  ARG159     -0.1245
     30  CA        63.8840  -52.0380  -24.4390 C.3   159  ARG159      0.1563
     31  C         63.8750  -53.5310  -24.7250 C.2   159  ARG159      0.2260
     32  O         62.9750  -54.2580  -24.3090 O.2   159  ARG159     -0.2867
     33  CB        63.6120  -51.3520  -25.7880 C.3   159  ARG159      0.0307
     34  CG        64.0140  -49.9100  -25.9240 C.3   159  ARG159      0.0489
     35  CD        63.6930  -49.4220  -27.3480 C.3   159  ARG159      0.2205
     36  NE        64.8460  -48.8020  -28.0010 N.pl3 159  ARG159     -0.0865
     37  CZ        64.7990  -48.1250  -29.1470 C.cat 159  ARG159      0.5346
     38  NH1       63.6500  -47.9730  -29.7870 N.pl3 159  ARG159      0.1354
     39  NH2       65.9030  -47.5880  -29.6480 N.pl3 159  ARG159      0.1354
     40  N         61.9190  -47.4450  -18.8480 N.3   165  GLU165     -0.1245
     41  CA        62.4940  -46.1130  -18.8540 C.3   165  GLU165      0.1567
     42  C         62.4880  -45.6860  -17.4120 C.2   165  GLU165      0.2260
     43  O         63.3730  -44.9740  -16.9340 O.2   165  GLU165     -0.2867
     44  CB        61.6200  -45.1890  -19.6870 C.3   165  GLU165      0.0388
     45  CG        60.7830  -45.9150  -20.7370 C.3   165  GLU165      0.1160
     46  CD        59.3120  -45.5860  -20.6250 C.2   165  GLU165      0.3649
     47  OE1       58.7480  -45.7730  -19.5220 O.co2 165  GLU165     -0.2457
     48  OE2       58.7260  -45.1460  -21.6400 O.co2 165  GLU165     -0.2457
     49  N         52.3330  -40.2630  -18.1980 N.3   274  LYS274     -0.1245
     50  CA        52.5700  -41.2680  -19.2240 C.3   274  LYS274      0.1561
     51  C         52.7540  -42.6460  -18.5820 C.2   274  LYS274      0.2260
     52  O         53.2210  -43.5950  -19.2140 O.2   274  LYS274     -0.2867
     53  CB        53.7880  -40.8730  -20.0660 C.3   274  LYS274      0.0271
     54  CG        53.5270  -39.7220  -21.0570 C.3   274  LYS274      0.0035
     55  CD        53.5340  -40.2050  -22.5150 C.3   274  LYS274      0.0206
     56  CE        53.1490  -39.0990  -23.5030 C.3   274  LYS274      0.1093
     57  NZ        51.6750  -38.8630  -23.5530 N.3   274  LYS274     -0.1314
     58  N         54.8280  -43.7470  -16.3590 N.3   276  ARG276     -0.1245
     59  CA        56.1990  -44.1680  -16.0760 C.3   276  ARG276      0.1563
     60  C         56.3020  -44.1080  -14.5580 C.2   276  ARG276      0.2260
     61  O         55.9020  -43.1150  -13.9480 O.2   276  ARG276     -0.2867
     62  CB        57.1610  -43.1910  -16.7480 C.3   276  ARG276      0.0307
     63  CG        56.4330  -42.2010  -17.6580 C.3   276  ARG276      0.0489
     64  CD        57.3460  -41.3540  -18.5270 C.3   276  ARG276      0.2205
     65  NE        57.9900  -42.1270  -19.5880 N.pl3 276  ARG276     -0.0865
     66  CZ        58.2720  -41.6480  -20.7990 C.cat 276  ARG276      0.5346
     67  NH1       57.9650  -40.3950  -21.1130 N.pl3 276  ARG276      0.1354
     68  NH2       58.8600  -42.4250  -21.7040 N.pl3 276  ARG276      0.1354
     69  N         63.6540  -26.4740  -26.5190 N.3   374  GLN374     -0.1231
     70  CA        62.9680  -27.7650  -26.5200 C.3   374  GLN374      0.1698
     71  C         61.9880  -27.6050  -27.6650 C.2   374  GLN374      0.2592
     72  O         61.4400  -28.5820  -28.1610 O.2   374  GLN374     -0.2718
     73  CB        62.2250  -28.0040  -25.1850 C.3   374  GLN374      0.0381
     74  CG        60.8410  -27.3290  -25.0750 C.3   374  GLN374      0.0905
     75  CD        60.3420  -27.1480  -23.6440 C.2   374  GLN374      0.2608
     76  OE1       59.3320  -26.4730  -23.4040 O.2   374  GLN374     -0.2717
     77  NE2       61.0460  -27.7430  -22.6920 N.am  374  GLN374     -0.0878
     78  N         61.8020  -26.3480  -28.0780 N.am  375  ALA375     -0.1980
     79  CA        60.9050  -25.9860  -29.1810 C.3   375  ALA375      0.1597
     80  C         61.6340  -25.5920  -30.4780 C.2   375  ALA375      0.2287
     81  O         61.0770  -25.7130  -31.5740 O.2   375  ALA375     -0.2864
     82  CB        59.9520  -24.8410  -28.7540 C.3   375  ALA375      0.0319
     83  N         63.3560  -28.6840  -32.3730 N.3   378  LEU378     -0.1231
     84  CA        62.3130  -29.4260  -33.0920 C.3   378  LEU378      0.1693
     85  C         62.1430  -30.8300  -32.4710 C.2   378  LEU378      0.2593
     86  O         61.0780  -31.4580  -32.5790 O.2   378  LEU378     -0.2718
     87  CB        62.6440  -29.4910  -34.6060 C.3   378  LEU378      0.0284
     88  CG        61.5540  -29.6380  -35.7030 C.3   378  LEU378      0.0019
     89  CD1       60.3720  -28.6870  -35.4540 C.3   378  LEU378      0.0001
     90  CD2       62.1770  -29.3550  -37.0800 C.3   378  LEU378      0.0001
     91  N         63.1850  -31.2950  -31.7850 N.am  379  THR379     -0.1939
     92  CA        63.1540  -32.5960  -31.1420 C.3   379  THR379      0.2028
     93  C         63.4690  -32.5430  -29.6740 C.2   379  THR379      0.2642
     94  O         64.1400  -31.6450  -29.1760 O.2   379  THR379     -0.2714
     95  CB        64.1700  -33.5710  -31.7440 C.3   379  THR379      0.1808
     96  OG1       64.0530  -33.5640  -33.1680 O.3   379  THR379     -0.2208
     97  CG2       63.9040  -34.9760  -31.2290 C.3   379  THR379      0.0379
     98  N         62.9780  -33.5570  -28.9950 N.am  380  HIS380     -0.1973
     99  CA        63.2010  -33.7010  -27.5900 C.3   380  HIS380      0.1656
    100  C         64.1550  -34.8720  -27.5930 C.2   380  HIS380      0.2291
    101  O         63.9010  -35.9230  -27.0250 O.2   380  HIS380     -0.2864
    102  CB        61.8570  -33.9770  -26.9150 C.3   380  HIS380      0.0771
    103  CG        60.7630  -33.0490  -27.3770 C.ar  380  HIS380      0.0820
    104  ND1       60.2150  -33.1200  -28.6390 N.ar  380  HIS380     -0.2267
    105  CD2       60.1930  -31.9720  -26.7810 C.ar  380  HIS380      0.1154
    106  CE1       59.3610  -32.1220  -28.8070 C.ar  380  HIS380      0.1986
    107  NE2       59.3320  -31.4110  -27.6950 N.ar  380  HIS380     -0.2212
    108  N         63.9490  -37.0000  -23.7760 N.3   384  ARG384     -0.1231
    109  CA        63.0530  -38.0190  -24.3060 C.3   384  ARG384      0.1694
    110  C         61.7670  -38.0400  -23.5290 C.2   384  ARG384      0.2592
    111  O         60.7190  -38.4410  -24.0230 O.2   384  ARG384     -0.2718
    112  CB        63.6770  -39.4110  -24.1900 C.3   384  ARG384      0.0321
    113  CG        65.0470  -39.5620  -24.8000 C.3   384  ARG384      0.0489
    114  CD        64.9730  -39.9770  -26.2520 C.3   384  ARG384      0.2205
    115  NE        66.2980  -40.2720  -26.7850 N.pl3 384  ARG384     -0.0865
    116  CZ        66.5160  -40.9890  -27.8810 C.cat 384  ARG384      0.5346
    117  NH1       65.4920  -41.4880  -28.5630 N.pl3 384  ARG384      0.1354
    118  NH2       67.7560  -41.2100  -28.2920 N.pl3 384  ARG384      0.1354
    119  N         61.8630  -37.6180  -22.2850 N.am  385  PHE385     -0.1963
    120  CA        60.7150  -37.6310  -21.4160 C.3   385  PHE385      0.1756
    121  C         60.4480  -36.2700  -20.8160 C.2   385  PHE385      0.2461
    122  O         60.9850  -35.9350  -19.7660 O.2   385  PHE385     -0.2730
    123  CB        60.9660  -38.6470  -20.3230 C.3   385  PHE385      0.0574
    124  CG        62.0710  -39.6030  -20.6450 C.ar  385  PHE385     -0.0200
    125  CD1       63.3970  -39.2670  -20.4030 C.ar  385  PHE385     -0.0042
    126  CD2       61.7850  -40.8380  -21.2030 C.ar  385  PHE385     -0.0042
    127  CE1       64.4250  -40.1630  -20.7090 C.ar  385  PHE385     -0.0003
    128  CE2       62.8040  -41.7360  -21.5120 C.ar  385  PHE385     -0.0003
    129  CZ        64.1220  -41.3980  -21.2670 C.ar  385  PHE385     -0.0000
    130  N         59.6020  -35.4670  -21.4730 N.am  386  PRO386     -0.2716
    131  CA        59.2570  -34.1220  -21.0060 C.3   386  PRO386      0.1536
    132  C         58.1190  -34.1190  -20.0000 C.2   386  PRO386      0.2598
    133  O         57.2450  -33.2520  -20.0360 O.2   386  PRO386     -0.2715
    134  CB        58.8700  -33.3770  -22.2890 C.3   386  PRO386      0.0310
    135  CG        59.3160  -34.2850  -23.4110 C.3   386  PRO386      0.0237
    136  CD        59.1370  -35.6590  -22.8490 C.3   386  PRO386      0.0939
    137  N         58.1200  -35.0910  -19.1020 N.am  387  GLU387     -0.1978
    138  CA        57.0930  -35.1300  -18.0800 C.3   387  GLU387      0.1602
    139  C         57.5450  -35.8670  -16.8150 C.2   387  GLU387      0.2287
    140  O         57.1160  -35.5300  -15.7060 O.2   387  GLU387     -0.2864
    141  CB        55.7830  -35.6830  -18.6690 C.3   387  GLU387      0.0415
    142  CG        55.8370  -37.0770  -19.2940 C.3   387  GLU387      0.1163
    143  CD        56.9960  -37.2830  -20.2460 C.2   387  GLU387      0.3649
    144  OE1       58.1150  -37.5290  -19.7570 O.co2 387  GLU387     -0.2457
    145  OE2       56.7890  -37.2030  -21.4740 O.co2 387  GLU387     -0.2457
@<TRIPOS>BOND
     1    90    88    1
     2    88    89    1
     3    88    87    1
     4    87    84    1
     5    96    95    1
     6    84    85    1
     7    84    83    1
     8    86    85    2
     9    85    91   am
    10    91    92    1
    11    95    97    1
    12    95    92    1
    13    81    80    2
    14    92    93    1
    15    80    79    1
    16    38    37    1
    17    93    94    2
    18    93    98   am
    19    39    37    1
    20    79    82    1
    21    79    78    1
    22    37    36    2
    23    98    99    1
    24   106   104   ar
    25   106   107   ar
    26   104   103   ar
    27   117   116    1
    28   118   116    1
    29    72    71    2
    30    78    71   am
    31    36    35    1
    32    27    26    1
    33   116   115    2
    34   107   105   ar
    35    71    70    1
    36   100    99    1
    37   100   101    2
    38    99   102    1
    39    28    26    1
    40   103   102    1
    41   103   105   ar
    42    35    34    1
    43    24    23    2
    44    26    25    1
    45    25    22    1
    46    23    22    1
    47   115   114    1
    48    70    69    1
    49    70    73    1
    50   114   113    1
    51    22    21    1
    52    34    33    1
    53    33    30    1
    54    73    74    1
    55    74    75    1
    56    21    11   am
    57   113   112    1
    58    31    30    1
    59    31    32    2
    60    30    29    1
    61     4     3    2
    62   109   112    1
    63   109   108    1
    64   109   110    1
    65    12    11    2
    66     7     5    1
    67     3     2    1
    68    11    10    1
    69   111   110    2
    70    75    76    2
    71    75    77   am
    72    57    56    1
    73   110   119   am
    74    56    55    1
    75   135   136    1
    76   135   134    1
    77     9    10    1
    78     5     2    1
    79     5     6    1
    80    18    16   ar
    81    18    19   ar
    82    16    14   ar
    83     2     1    1
    84   136   130    1
    85    10    13    1
    86    55    54    1
    87   134   131    1
    88   119   120    1
    89    20    19    1
    90     8     6    1
    91    19    17   ar
    92    14    13    1
    93    14    15   ar
    94    68    66    1
    95    48    46   ar
    96   128   129   ar
    97   128   126   ar
    98   145   143   ar
    99   130   131    1
   100   130   121   am
   101   120   121    1
   102   120   123    1
   103   129   127   ar
   104   126   124   ar
   105    17    15   ar
   106    67    66    1
   107    54    53    1
   108   131   132    1
   109   121   122    2
   110    66    65    2
   111    45    46    1
   112    45    44    1
   113   127   125   ar
   114   124   125   ar
   115   124   123    1
   116    46    47   ar
   117   143   144   ar
   118   143   142    1
   119    53    50    1
   120   133   132    2
   121   132   137   am
   122    44    41    1
   123    65    64    1
   124   142   141    1
   125    50    51    1
   126    50    49    1
   127    52    51    2
   128   137   138    1
   129    41    40    1
   130    41    42    1
   131   141   138    1
   132    64    63    1
   133   138   139    1
   134    63    62    1
   135    42    43    2
   136   139   140    2
   137    62    59    1
   138    58    59    1
   139    59    60    1
   140    60    61    2
