@<TRIPOS>MOLECULE
tmp/4ar8A00.pdb
 221 217 0 0 0
SMALL
GASTEIGER

@<TRIPOS>ATOM
      1  N         24.5560   31.5290  -32.7130 N.3    92  SER92      -0.1217
      2  CA        25.7370   32.3170  -32.3620 C.3    92  SER92       0.1889
      3  C         27.0280   31.6970  -32.8830 C.2    92  SER92       0.2288
      4  O         27.2080   30.4800  -32.8060 O.2    92  SER92      -0.2866
      5  CB        25.8330   32.4650  -30.8390 C.3    92  SER92       0.2089
      6  OG        27.0280   33.1250  -30.4560 O.3    92  SER92      -0.2183
      7  N         30.1250   33.0370  -31.8550 N.3    94  ASP94      -0.1225
      8  CA        31.1960   33.4670  -30.9480 C.3    94  ASP94       0.1805
      9  C         31.7170   32.2950  -30.1300 C.2    94  ASP94       0.2598
     10  O         31.6300   32.2860  -28.9010 O.2    94  ASP94      -0.2718
     11  CB        30.7200   34.5790  -30.0210 C.3    94  ASP94       0.1424
     12  CG        30.3590   35.8300  -30.7710 C.2    94  ASP94       0.3668
     13  OD1       29.2840   35.8430  -31.4050 O.co2  94  ASP94      -0.2456
     14  OD2       31.1580   36.7830  -30.7500 O.co2  94  ASP94      -0.2456
     15  N         32.2700   31.3130  -30.8300 N.am   95  ASN95      -0.1960
     16  CA        32.6760   30.0560  -30.2200 C.3    95  ASN95       0.1819
     17  C         33.4720   29.2080  -31.2060 C.2    95  ASN95       0.2622
     18  O         33.4970   29.4990  -32.4040 O.2    95  ASN95      -0.2715
     19  CB        31.4390   29.2810  -29.7500 C.3    95  ASN95       0.1195
     20  CG        30.3560   29.2040  -30.8160 C.2    95  ASN95       0.2630
     21  OD1       30.6200   28.8430  -31.9620 O.2    95  ASN95      -0.2716
     22  ND2       29.1290   29.5560  -30.4410 N.am   95  ASN95      -0.0877
     23  N         34.1170   28.1650  -30.6950 N.am   96  GLY96      -0.1940
     24  CA        34.7690   27.1680  -31.5400 C.3    96  GLY96       0.2014
     25  C         33.7480   26.2790  -32.2190 C.2    96  GLY96       0.2639
     26  O         33.9880   25.7490  -33.3010 O.2    96  GLY96      -0.2714
     27  N         32.6030   26.1060  -31.5650 N.am   97  GLY97      -0.1939
     28  CA        31.4990   25.3360  -32.1200 C.3    97  GLY97       0.2014
     29  C         30.2880   25.4510  -31.2200 C.2    97  GLY97       0.2639
     30  O         30.3670   26.0310  -30.1340 O.2    97  GLY97      -0.2714
     31  N         29.1630   24.9050  -31.6610 N.am   98  ILE98      -0.1963
     32  CA        27.9400   24.9690  -30.8600 C.3    98  ILE98       0.1727
     33  C         26.9930   23.8160  -31.1800 C.2    98  ILE98       0.2616
     34  O         26.8240   23.4390  -32.3460 O.2    98  ILE98      -0.2715
     35  CB        27.2240   26.3260  -31.0420 C.3    98  ILE98       0.0290
     36  CG1       26.1880   26.5480  -29.9380 C.3    98  ILE98       0.0022
     37  CG2       26.5720   26.4190  -32.4130 C.3    98  ILE98       0.0023
     38  CD1       25.7620   27.9940  -29.7960 C.3    98  ILE98       0.0001
     39  N         26.3980   23.2480  -30.1320 N.am   99  TYR99      -0.1974
     40  CA        25.3810   22.2130  -30.2810 C.3    99  TYR99       0.1639
     41  C         24.0090   22.7560  -29.9160 C.2    99  TYR99       0.2290
     42  O         23.8160   23.3000  -28.8240 O.2    99  TYR99      -0.2864
     43  CB        25.6970   21.0040  -29.4020 C.3    99  TYR99       0.0560
     44  CG        24.6120   19.9480  -29.4470 C.ar   99  TYR99      -0.0198
     45  CD1       24.3480   19.2530  -30.6190 C.ar   99  TYR99      -0.0009
     46  CD2       23.8360   19.6670  -28.3310 C.ar   99  TYR99      -0.0009
     47  CE1       23.3580   18.2970  -30.6820 C.ar   99  TYR99       0.0417
     48  CE2       22.8380   18.7100  -28.3820 C.ar   99  TYR99       0.0417
     49  CZ        22.6060   18.0280  -29.5630 C.ar   99  TYR99       0.1957
     50  OH        21.6260   17.0730  -29.6400 O.3    99  TYR99      -0.2866
     51  N         33.8350   24.0240  -37.4610 N.3   109  TYR109     -0.1241
     52  CA        34.6140   24.3410  -38.6510 C.3   109  TYR109      0.1605
     53  C         36.0030   23.7270  -38.5920 C.2   109  TYR109      0.2264
     54  O         36.5770   23.5700  -37.5140 O.2   109  TYR109     -0.2867
     55  CB        34.7370   25.8600  -38.8110 C.3   109  TYR109      0.0534
     56  CG        35.3000   26.5660  -37.5930 C.ar  109  TYR109     -0.0201
     57  CD1       34.4700   26.9690  -36.5540 C.ar  109  TYR109     -0.0009
     58  CD2       36.6630   26.8260  -37.4790 C.ar  109  TYR109     -0.0009
     59  CE1       34.9770   27.6140  -35.4370 C.ar  109  TYR109      0.0417
     60  CE2       37.1810   27.4660  -36.3630 C.ar  109  TYR109      0.0417
     61  CZ        36.3340   27.8610  -35.3460 C.ar  109  TYR109      0.1957
     62  OH        36.8420   28.4980  -34.2380 O.3   109  TYR109     -0.2866
     63  N         40.0210   23.8680  -39.0810 N.3   111  ARG111     -0.1245
     64  CA        40.9640   24.9340  -38.7580 C.3   111  ARG111      0.1563
     65  C         42.4070   24.4420  -38.8180 C.2   111  ARG111      0.2260
     66  O         42.6810   23.2620  -38.5930 O.2   111  ARG111     -0.2867
     67  CB        40.6600   25.5250  -37.3720 C.3   111  ARG111      0.0307
     68  CG        41.0230   24.6450  -36.1780 C.3   111  ARG111      0.0489
     69  CD        40.0900   23.4540  -35.9990 C.3   111  ARG111      0.2205
     70  NE        38.6940   23.8560  -35.8480 N.pl3 111  ARG111     -0.0865
     71  CZ        38.1360   24.2260  -34.6970 C.cat 111  ARG111      0.5346
     72  NH1       38.8450   24.2610  -33.5670 N.pl3 111  ARG111      0.1354
     73  NH2       36.8570   24.5730  -34.6800 N.pl3 111  ARG111      0.1354
     74  N         45.1830   28.9400  -36.3100 N.3   115  GLU115     -0.1231
     75  CA        43.9040   29.6060  -36.0120 C.3   115  GLU115      0.1699
     76  C         43.3630   29.2120  -34.6390 C.2   115  GLU115      0.2593
     77  O         42.6660   30.0000  -34.0040 O.2   115  GLU115     -0.2718
     78  CB        42.8280   29.3060  -37.0800 C.3   115  GLU115      0.0402
     79  CG        43.3770   28.7840  -38.4020 C.3   115  GLU115      0.1161
     80  CD        42.5320   29.1220  -39.6160 C.2   115  GLU115      0.3649
     81  OE1       42.3890   30.3250  -39.9090 O.co2 115  GLU115     -0.2457
     82  OE2       42.0570   28.1920  -40.3090 O.co2 115  GLU115     -0.2457
     83  N         43.6600   27.9910  -34.1960 N.am  116  SER116     -0.1938
     84  CA        43.1810   27.5140  -32.8990 C.3   116  SER116      0.2055
     85  C         44.1270   26.4970  -32.2730 C.2   116  SER116      0.2643
     86  O         44.7780   25.7270  -32.9800 O.2   116  SER116     -0.2714
     87  CB        41.7960   26.8830  -33.0520 C.3   116  SER116      0.2130
     88  OG        41.2950   26.4370  -31.8050 O.3   116  SER116     -0.2179
     89  N         44.1690   26.4860  -30.9410 N.am  117  ILE117     -0.1963
     90  CA        44.9570   25.5030  -30.1970 C.3   117  ILE117      0.1727
     91  C         44.2560   24.1370  -30.1640 C.2   117  ILE117      0.2616
     92  O         44.8680   23.1340  -29.8040 O.2   117  ILE117     -0.2715
     93  CB        45.3010   25.9870  -28.7620 C.3   117  ILE117      0.0290
     94  CG1       44.0690   26.0270  -27.8500 C.3   117  ILE117      0.0022
     95  CG2       45.9740   27.3540  -28.8030 C.3   117  ILE117      0.0023
     96  CD1       44.4160   26.2180  -26.3860 C.3   117  ILE117      0.0001
     97  N         42.9780   24.1030  -30.5460 N.am  118  TYR118     -0.1974
     98  CA        42.2100   22.8650  -30.5990 C.3   118  TYR118      0.1639
     99  C         42.0380   22.4050  -32.0350 C.2   118  TYR118      0.2290
    100  O         41.7530   23.2100  -32.9150 O.2   118  TYR118     -0.2864
    101  CB        40.8300   23.0650  -29.9660 C.3   118  TYR118      0.0560
    102  CG        40.8870   23.6400  -28.5740 C.ar  118  TYR118     -0.0198
    103  CD1       41.2890   22.8590  -27.4990 C.ar  118  TYR118     -0.0009
    104  CD2       40.5480   24.9680  -28.3310 C.ar  118  TYR118     -0.0009
    105  CE1       41.3500   23.3810  -26.2210 C.ar  118  TYR118      0.0417
    106  CE2       40.6080   25.5000  -27.0540 C.ar  118  TYR118      0.0417
    107  CZ        41.0050   24.7020  -26.0030 C.ar  118  TYR118      0.1957
    108  OH        41.0640   25.2210  -24.7320 O.3   118  TYR118     -0.2866
    109  N         37.4870   19.5480  -30.9560 N.3   123  LEU123     -0.1245
    110  CA        36.2560   20.2970  -30.7810 C.3   123  LEU123      0.1561
    111  C         35.0410   19.4370  -31.1270 C.2   123  LEU123      0.2260
    112  O         34.0110   19.5230  -30.4720 O.2   123  LEU123     -0.2867
    113  CB        36.2660   21.5540  -31.6410 C.3   123  LEU123      0.0270
    114  CG        35.2210   22.5730  -31.1980 C.3   123  LEU123      0.0019
    115  CD1       35.7210   23.4330  -30.0510 C.3   123  LEU123      0.0001
    116  CD2       34.8320   23.4340  -32.3770 C.3   123  LEU123      0.0001
    117  N         34.2970   17.2680  -28.1380 N.3   126  HIS126     -0.1226
    118  CA        33.6780   18.1130  -27.1150 C.3   126  HIS126      0.1752
    119  C         32.2220   18.3280  -27.4060 C.2   126  HIS126      0.2595
    120  O         31.3770   18.1500  -26.5290 O.2   126  HIS126     -0.2718
    121  CB        34.4160   19.4550  -27.0320 C.3   126  HIS126      0.0759
    122  CG        33.7310   20.5070  -26.1800 C.ar  126  HIS126      0.0818
    123  ND1       34.2930   21.0020  -25.0660 N.ar  126  HIS126     -0.2268
    124  CD2       32.5160   21.1820  -26.3390 C.ar  126  HIS126      0.1154
    125  CE1       33.4900   21.9390  -24.5320 C.ar  126  HIS126      0.1986
    126  NE2       32.3870   22.0280  -25.2950 N.ar  126  HIS126     -0.2212
    127  N         31.9180   18.7240  -28.6390 N.am  127  GLU127     -0.1979
    128  CA        30.5420   19.0290  -29.0260 C.3   127  GLU127      0.1602
    129  C         29.6800   17.7870  -29.0750 C.2   127  GLU127      0.2287
    130  O         28.4880   17.8410  -28.7740 O.2   127  GLU127     -0.2864
    131  CB        30.5080   19.7310  -30.3800 C.3   127  GLU127      0.0415
    132  CG        31.0960   21.1290  -30.3400 C.3   127  GLU127      0.1163
    133  CD        30.2900   22.0870  -29.4900 C.2   127  GLU127      0.3649
    134  OE1       29.0730   21.8700  -29.3100 O.co2 127  GLU127     -0.2457
    135  OE2       30.8920   23.0620  -29.0020 O.co2 127  GLU127     -0.2457
    136  N         28.0540   17.0740  -25.7000 N.3   130  HIS130     -0.1241
    137  CA        26.8120   17.8210  -25.4560 C.3   130  HIS130      0.1621
    138  C         25.6190   17.1030  -26.0050 C.2   130  HIS130      0.2264
    139  O         24.5590   17.0660  -25.3830 O.2   130  HIS130     -0.2867
    140  CB        26.8780   19.2200  -26.0570 C.3   130  HIS130      0.0745
    141  CG        27.7890   20.1520  -25.3170 C.ar  130  HIS130      0.0817
    142  ND1       27.7930   20.2320  -23.9850 N.ar  130  HIS130     -0.2268
    143  CD2       28.7280   21.0680  -25.7690 C.ar  130  HIS130      0.1154
    144  CE1       28.6990   21.1360  -23.5920 C.ar  130  HIS130      0.1986
    145  NE2       29.2550   21.6680  -24.6870 N.ar  130  HIS130     -0.2212
    146  N         17.8410   21.8320  -23.6950 N.3   142  PHE142     -0.1241
    147  CA        18.8000   22.8130  -23.2000 C.3   142  PHE142      0.1605
    148  C         18.1020   24.1240  -22.8810 C.2   142  PHE142      0.2264
    149  O         17.2930   24.6140  -23.6680 O.2   142  PHE142     -0.2867
    150  CB        19.9080   23.0590  -24.2310 C.3   142  PHE142      0.0534
    151  CG        20.9710   24.0150  -23.7640 C.ar  142  PHE142     -0.0203
    152  CD1       21.8740   23.6410  -22.7750 C.ar  142  PHE142     -0.0042
    153  CD2       21.0770   25.2850  -24.3150 C.ar  142  PHE142     -0.0042
    154  CE1       22.8590   24.5150  -22.3440 C.ar  142  PHE142     -0.0003
    155  CE2       22.0630   26.1620  -23.8900 C.ar  142  PHE142     -0.0003
    156  CZ        22.9550   25.7760  -22.8990 C.ar  142  PHE142     -0.0000
    157  N         29.9330   21.6960  -19.2610 N.3   160  GLU160     -0.1245
    158  CA        31.1060   22.0640  -20.0500 C.3   160  GLU160      0.1567
    159  C         32.3660   21.3230  -19.6170 C.2   160  GLU160      0.2260
    160  O         33.1520   20.9000  -20.4550 O.2   160  GLU160     -0.2867
    161  CB        31.3400   23.5770  -19.9990 C.3   160  GLU160      0.0388
    162  CG        30.2040   24.3970  -20.5880 C.3   160  GLU160      0.1160
    163  CD        29.8420   24.0040  -22.0140 C.2   160  GLU160      0.3649
    164  OE1       30.6810   23.4250  -22.7520 O.co2 160  GLU160     -0.2457
    165  OE2       28.6890   24.2900  -22.3990 O.co2 160  GLU160     -0.2457
    166  N         34.5810   18.6890  -22.0260 N.3   164  GLU164     -0.1245
    167  CA        36.0150   18.7940  -22.2540 C.3   164  GLU164      0.1567
    168  C         36.7100   17.4930  -21.8670 C.2   164  GLU164      0.2260
    169  O         37.5790   17.0000  -22.5930 O.2   164  GLU164     -0.2867
    170  CB        36.6080   19.9680  -21.4680 C.3   164  GLU164      0.0388
    171  CG        36.0780   21.3360  -21.8740 C.3   164  GLU164      0.1160
    172  CD        36.7310   21.8950  -23.1250 C.2   164  GLU164      0.3649
    173  OE1       36.9570   21.1410  -24.0940 O.co2 164  GLU164     -0.2457
    174  OE2       37.0160   23.1040  -23.1470 O.co2 164  GLU164     -0.2457
    175  N         28.2450   30.8080  -17.6850 N.3   202  TYR202     -0.1241
    176  CA        28.7550   31.2470  -18.9890 C.3   202  TYR202      0.1605
    177  C         29.2340   32.6980  -19.0070 C.2   202  TYR202      0.2264
    178  O         30.2130   33.0180  -19.6780 O.2   202  TYR202     -0.2867
    179  CB        27.7060   31.0420  -20.0850 C.3   202  TYR202      0.0534
    180  CG        27.4700   29.5940  -20.4360 C.ar  202  TYR202     -0.0201
    181  CD1       28.5040   28.8030  -20.9230 C.ar  202  TYR202     -0.0009
    182  CD2       26.2080   29.0140  -20.2940 C.ar  202  TYR202     -0.0009
    183  CE1       28.2980   27.4760  -21.2520 C.ar  202  TYR202      0.0417
    184  CE2       25.9930   27.6860  -20.6180 C.ar  202  TYR202      0.0417
    185  CZ        27.0400   26.9200  -21.0990 C.ar  202  TYR202      0.1957
    186  OH        26.8270   25.5980  -21.4230 O.3   202  TYR202     -0.2866
    187  N         35.6070   31.9780  -19.9350 N.3   206  TRP206     -0.1241
    188  CA        35.9780   30.6610  -20.4470 C.3   206  TRP206      0.1605
    189  C         36.8990   29.8590  -19.5570 C.2   206  TRP206      0.2264
    190  O         37.1820   28.7010  -19.8620 O.2   206  TRP206     -0.2867
    191  CB        36.5930   30.8120  -21.8350 C.3   206  TRP206      0.0550
    192  CG        35.6470   31.4200  -22.8460 C.ar  206  TRP206      0.0003
    193  CD1       35.3820   32.7710  -23.0560 C.ar  206  TRP206      0.0946
    194  CD2       34.8100   30.7120  -23.8260 C.ar  206  TRP206      0.0152
    195  NE1       34.4660   32.9410  -24.0630 N.ar  206  TRP206     -0.2442
    196  CE2       34.0830   31.7470  -24.5680 C.ar  206  TRP206      0.0810
    197  CE3       34.5940   29.3750  -24.1470 C.ar  206  TRP206      0.0012
    198  CZ2       33.1870   31.4340  -25.5830 C.ar  206  TRP206      0.0191
    199  CZ3       33.6880   29.0740  -25.1730 C.ar  206  TRP206      0.0001
    200  CH2       33.0040   30.0800  -25.8710 C.ar  206  TRP206      0.0015
    201  N         35.9190   26.2600  -17.9960 N.3   209  TYR209     -0.1227
    202  CA        36.0230   25.1030  -18.8790 C.3   209  TYR209      0.1736
    203  C         37.2130   24.2270  -18.4900 C.2   209  TYR209      0.2595
    204  O         37.0660   23.0180  -18.2980 O.2   209  TYR209     -0.2718
    205  CB        36.1740   25.5470  -20.3340 C.3   209  TYR209      0.0548
    206  CG        34.8720   25.9030  -21.0190 C.ar  209  TYR209     -0.0200
    207  CD1       34.1100   26.9920  -20.6070 C.ar  209  TYR209     -0.0009
    208  CD2       34.4120   25.1560  -22.0920 C.ar  209  TYR209     -0.0009
    209  CE1       32.9230   27.3180  -21.2430 C.ar  209  TYR209      0.0417
    210  CE2       33.2290   25.4750  -22.7320 C.ar  209  TYR209      0.0417
    211  CZ        32.4870   26.5530  -22.3050 C.ar  209  TYR209      0.1957
    212  OH        31.3120   26.8610  -22.9490 O.3   209  TYR209     -0.2866
    213  N         38.3860   24.8500  -18.3770 N.am  210  LYS210     -0.1980
    214  CA        39.6180   24.1490  -18.0170 C.3   210  LYS210      0.1596
    215  C         39.5520   23.5490  -16.6100 C.2   210  LYS210      0.2287
    216  O         39.9570   22.4110  -16.3910 O.2   210  LYS210     -0.2864
    217  CB        40.8140   25.0970  -18.1120 C.3   210  LYS210      0.0298
    218  CG        41.0970   25.5990  -19.5250 C.3   210  LYS210      0.0038
    219  CD        41.5040   27.0660  -19.5540 C.3   210  LYS210      0.0206
    220  CE        41.3890   27.6420  -20.9620 C.3   210  LYS210      0.1093
    221  NZ        41.2860   29.1290  -20.9600 N.3   210  LYS210     -0.1314
@<TRIPOS>BOND
     1    82    80   ar
     2    81    80   ar
     3    80    79    1
     4    63    64    1
     5    65    64    1
     6    65    66    2
     7    55    52    1
     8    55    56    1
     9    64    67    1
    10    52    53    1
    11    52    51    1
    12    53    54    2
    13    79    78    1
    14    56    58   ar
    15    56    57   ar
    16    58    60   ar
    17    67    68    1
    18    78    75    1
    19    57    59   ar
    20    60    61   ar
    21    74    75    1
    22    68    69    1
    23    75    76    1
    24    69    70    1
    25    70    71    2
    26    59    61   ar
    27    61    62    1
    28    71    73    1
    29    71    72    1
    30    76    83   am
    31    76    77    2
    32    83    84    1
    33    26    25    2
    34    87    84    1
    35    87    88    1
    36    86    85    2
    37   100    99    2
    38    84    85    1
    39     3     4    2
    40     3     2    1
    41     1     2    1
    42    37    35    1
    43    18    17    2
    44   116   114    1
    45     2     5    1
    46    34    33    2
    47    85    89   am
    48    25    27   am
    49    25    24    1
    50    28    27    1
    51    28    29    1
    52    99    98    1
    53    21    20    2
    54     7     8    1
    55    31    29   am
    56    31    32    1
    57   113   114    1
    58   113   110    1
    59    24    23    1
    60    13    12   ar
    61    29    30    2
    62    17    23   am
    63    17    16    1
    64   114   115    1
    65    33    32    1
    66    33    39   am
    67   111   110    1
    68   111   112    2
    69    35    32    1
    70    35    36    1
    71   109   110    1
    72     8     9    1
    73     8    11    1
    74    89    90    1
    75     5     6    1
    76    15    16    1
    77    15     9   am
    78    20    22   am
    79    20    19    1
    80    12    14   ar
    81    12    11    1
    82    47    45   ar
    83    47    49   ar
    84    45    44   ar
    85    98    97    1
    86    98   101    1
    87    97    91   am
    88   131   132    1
    89   131   128    1
    90   132   133    1
    91    40    39    1
    92    40    41    1
    93    40    43    1
    94    16    19    1
    95    90    91    1
    96    90    93    1
    97    91    92    2
    98     9    10    2
    99   101   102    1
   100    36    38    1
   101    41    42    2
   102    50    49    1
   103    49    48   ar
   104   133   134   ar
   105   133   135   ar
   106    44    43    1
   107    44    46   ar
   108   129   128    1
   109   129   130    2
   110   128   127    1
   111    95    93    1
   112    93    94    1
   113   127   119   am
   114   102   104   ar
   115   102   103   ar
   116    48    46   ar
   117   104   106   ar
   118   117   118    1
   119    94    96    1
   120   103   105   ar
   121   119   118    1
   122   119   120    2
   123   118   121    1
   124   106   107   ar
   125   121   122    1
   126   124   122   ar
   127   124   126   ar
   128   105   107   ar
   129   122   123   ar
   130   140   137    1
   131   140   141    1
   132   138   137    1
   133   138   139    2
   134   107   108    1
   135   200   198   ar
   136   200   199   ar
   137   143   141   ar
   138   143   145   ar
   139   136   137    1
   140   198   196   ar
   141   141   142   ar
   142   126   125   ar
   143   199   197   ar
   144   123   125   ar
   145   145   144   ar
   146   196   195   ar
   147   196   194   ar
   148   153   155   ar
   149   153   151   ar
   150   150   151    1
   151   150   147    1
   152   197   194   ar
   153   173   172   ar
   154   195   193   ar
   155   142   144   ar
   156   155   156   ar
   157   194   192   ar
   158   151   152   ar
   159   146   147    1
   160   149   148    2
   161   147   148    1
   162   174   172   ar
   163   172   171    1
   164   193   192   ar
   165   212   211    1
   166   156   154   ar
   167   192   191    1
   168   152   154   ar
   169   164   163   ar
   170   210   211   ar
   171   210   208   ar
   172   169   168    2
   173   165   163   ar
   174   211   209   ar
   175   167   166    1
   176   167   168    1
   177   167   170    1
   178   208   206   ar
   179   163   162    1
   180   171   170    1
   181   191   188    1
   182   186   185    1
   183   183   185   ar
   184   183   181   ar
   185   209   207   ar
   186   185   184   ar
   187   206   207   ar
   188   206   205    1
   189   220   221    1
   190   220   219    1
   191   181   180   ar
   192   184   182   ar
   193   162   161    1
   194   160   159    2
   195   188   187    1
   196   188   189    1
   197   180   182   ar
   198   180   179    1
   199   205   202    1
   200   179   176    1
   201   158   161    1
   202   158   159    1
   203   158   157    1
   204   190   189    2
   205   178   177    2
   206   219   218    1
   207   218   217    1
   208   177   176    1
   209   176   175    1
   210   202   203    1
   211   202   201    1
   212   203   213   am
   213   203   204    2
   214   213   214    1
   215   217   214    1
   216   214   215    1
   217   215   216    2
