@<TRIPOS>MOLECULE
tmp/4araB00.pdb
 210 210 0 0 0
SMALL
GASTEIGER

@<TRIPOS>ATOM
      1  N         11.3530   -9.6430  -46.5970 N.3    69  TYR69      -0.1241
      2  CA        11.1350  -10.7170  -45.6430 C.3    69  TYR69       0.1605
      3  C          9.6710  -10.7370  -45.2080 C.2    69  TYR69       0.2264
      4  O          9.0450   -9.6850  -45.0800 O.2    69  TYR69      -0.2867
      5  CB        12.0480  -10.5100  -44.4310 C.3    69  TYR69       0.0534
      6  CG        11.7780  -11.4360  -43.2720 C.ar   69  TYR69      -0.0201
      7  CD1       12.2870  -12.7290  -43.2560 C.ar   69  TYR69      -0.0009
      8  CD2       11.0210  -11.0150  -42.1870 C.ar   69  TYR69      -0.0009
      9  CE1       12.0420  -13.5760  -42.1930 C.ar   69  TYR69       0.0417
     10  CE2       10.7710  -11.8550  -41.1240 C.ar   69  TYR69       0.0417
     11  CZ        11.2850  -13.1320  -41.1290 C.ar   69  TYR69       0.1957
     12  OH        11.0360  -13.9700  -40.0660 O.3    69  TYR69      -0.2866
     13  N          7.0430  -12.0700  -42.2100 N.3    71  ASP71      -0.1239
     14  CA         7.0160  -12.5030  -40.8110 C.3    71  ASP71       0.1674
     15  C          6.2210  -13.7940  -40.5910 C.2    71  ASP71       0.2266
     16  O          5.0860  -13.9260  -41.0560 O.2    71  ASP71      -0.2867
     17  CB         6.4670  -11.3800  -39.9260 C.3    71  ASP71       0.1410
     18  CG         6.6780  -11.6390  -38.4480 C.2    71  ASP71       0.3668
     19  OD1        7.5890  -12.4170  -38.0910 O.co2  71  ASP71      -0.2456
     20  OD2        5.9330  -11.0490  -37.6380 O.co2  71  ASP71      -0.2456
     21  N          0.0320   -9.7510  -36.7110 N.3    80  THR80      -0.1218
     22  CA         1.2950   -9.7570  -37.4490 C.3    80  THR80       0.1862
     23  C          1.0550   -9.7360  -38.9580 C.2    80  THR80       0.2287
     24  O          1.7870   -9.0870  -39.7100 O.2    80  THR80      -0.2866
     25  CB         2.1580  -10.9860  -37.0890 C.3    80  THR80       0.1770
     26  OG1        1.3320  -12.1560  -37.0240 O.3    80  THR80      -0.2211
     27  CG2        2.8430  -10.7860  -35.7520 C.3    80  THR80       0.0375
     28  N          0.6000   -6.5140  -41.2070 N.3    83  TRP83      -0.1241
     29  CA         1.7670   -5.8010  -41.7150 C.3    83  TRP83       0.1605
     30  C          2.4280   -6.5790  -42.8490 C.2    83  TRP83       0.2264
     31  O          3.3360   -6.0770  -43.5100 O.2    83  TRP83      -0.2867
     32  CB         2.7680   -5.5560  -40.5840 C.3    83  TRP83       0.0550
     33  CG         2.1320   -4.9480  -39.3760 C.ar   83  TRP83       0.0003
     34  CD1        1.7970   -5.5840  -38.2160 C.ar   83  TRP83       0.0946
     35  CD2        1.7380   -3.5810  -39.2140 C.ar   83  TRP83       0.0152
     36  NE1        1.2230   -4.6930  -37.3400 N.ar   83  TRP83      -0.2442
     37  CE2        1.1750   -3.4570  -37.9300 C.ar   83  TRP83       0.0810
     38  CE3        1.8110   -2.4480  -40.0300 C.ar   83  TRP83       0.0012
     39  CZ2        0.6860   -2.2410  -37.4420 C.ar   83  TRP83       0.0191
     40  CZ3        1.3250   -1.2450  -39.5460 C.ar   83  TRP83       0.0001
     41  CH2        0.7690   -1.1500  -38.2650 C.ar   83  TRP83       0.0015
     42  N          8.3250   -0.3120  -41.3470 N.3   118  GLY118     -0.1210
     43  CA         8.6580   -1.7170  -41.5130 C.3   118  GLY118      0.1956
     44  C         10.1430   -1.9750  -41.3170 C.2   118  GLY118      0.2612
     45  O         10.6960   -2.9230  -41.8800 O.2   118  GLY118     -0.2717
     46  N         10.7880   -1.1190  -40.5260 N.am  119  GLY119     -0.1956
     47  CA        12.2040   -1.2510  -40.2120 C.3   119  GLY119      0.1869
     48  C         13.1760   -1.2190  -41.3840 C.2   119  GLY119      0.2309
     49  O         14.2650   -1.7900  -41.2960 O.2   119  GLY119     -0.2863
     50  N         13.1090   -2.9160  -43.8440 N.3   121  TYR121     -0.1227
     51  CA        13.2420   -4.2770  -44.3760 C.3   121  TYR121      0.1736
     52  C         11.9200   -4.8180  -44.9200 C.2   121  TYR121      0.2596
     53  O         11.8810   -5.8790  -45.5500 O.2   121  TYR121     -0.2718
     54  CB        13.8130   -5.2380  -43.3200 C.3   121  TYR121      0.0548
     55  CG        12.8390   -5.6660  -42.2360 C.ar  121  TYR121     -0.0200
     56  CD1       12.0040   -6.7660  -42.4110 C.ar  121  TYR121     -0.0009
     57  CD2       12.7790   -4.9890  -41.0270 C.ar  121  TYR121     -0.0009
     58  CE1       11.1240   -7.1590  -41.4250 C.ar  121  TYR121      0.0417
     59  CE2       11.9020   -5.3760  -40.0350 C.ar  121  TYR121      0.0417
     60  CZ        11.0790   -6.4620  -40.2380 C.ar  121  TYR121      0.1957
     61  OH        10.2050   -6.8510  -39.2500 O.3   121  TYR121     -0.2866
     62  N         10.8420   -4.0820  -44.6720 N.am  122  SER122     -0.1952
     63  CA         9.5120   -4.5350  -45.0500 C.3   122  SER122      0.1924
     64  C          8.5660   -3.3610  -45.2360 C.2   122  SER122      0.2314
     65  O          8.9430   -2.2030  -45.0240 O.2   122  SER122     -0.2863
     66  CB         8.9560   -5.4650  -43.9750 C.3   122  SER122      0.2116
     67  OG         8.8750   -4.8020  -42.7250 O.3   122  SER122     -0.2180
     68  N          5.4240    6.6560  -40.3180 N.3   199  GLU199     -0.1231
     69  CA         5.5500    6.0430  -39.0010 C.3   199  GLU199      0.1699
     70  C          6.7620    5.1180  -38.9500 C.2   199  GLU199      0.2592
     71  O          7.1000    4.4750  -39.9460 O.2   199  GLU199     -0.2718
     72  CB         4.2680    5.2820  -38.6520 C.3   199  GLU199      0.0402
     73  CG         4.2020    4.7580  -37.2250 C.3   199  GLU199      0.1161
     74  CD         4.7480    3.3570  -37.0950 C.2   199  GLU199      0.3649
     75  OE1        5.0260    2.7300  -38.1390 O.co2 199  GLU199     -0.2457
     76  OE2        4.9010    2.8830  -35.9500 O.co2 199  GLU199     -0.2457
     77  N          7.4150    5.0680  -37.7900 N.am  200  SER200     -0.1952
     78  CA         8.6100    4.2450  -37.5860 C.3   200  SER200      0.1924
     79  C          9.7040    4.5660  -38.6090 C.2   200  SER200      0.2314
     80  O         10.1800    5.7000  -38.6690 O.2   200  SER200     -0.2863
     81  CB         8.2560    2.7530  -37.6120 C.3   200  SER200      0.2116
     82  OG         9.3330    1.9690  -37.1310 O.3   200  SER200     -0.2180
     83  N         19.0320  -11.5330  -41.9750 N.3   276  TRP276     -0.1241
     84  CA        19.1370  -11.3390  -40.5250 C.3   276  TRP276      0.1605
     85  C         20.4500  -11.8450  -39.9220 C.2   276  TRP276      0.2264
     86  O         20.6960  -11.6740  -38.7270 O.2   276  TRP276     -0.2867
     87  CB        17.9530  -12.0070  -39.8140 C.3   276  TRP276      0.0550
     88  CG        16.6270  -11.3770  -40.1210 C.ar  276  TRP276      0.0003
     89  CD1       15.6900  -11.8240  -41.0070 C.ar  276  TRP276      0.0946
     90  CD2       16.0930  -10.1780  -39.5410 C.ar  276  TRP276      0.0152
     91  NE1       14.6040  -10.9770  -41.0120 N.ar  276  TRP276     -0.2442
     92  CE2       14.8280   -9.9600  -40.1220 C.ar  276  TRP276      0.0810
     93  CE3       16.5610   -9.2700  -38.5850 C.ar  276  TRP276      0.0012
     94  CZ2       14.0270   -8.8680  -39.7780 C.ar  276  TRP276      0.0191
     95  CZ3       15.7670   -8.1880  -38.2470 C.ar  276  TRP276      0.0001
     96  CH2       14.5150   -7.9970  -38.8400 C.ar  276  TRP276      0.0015
     97  N         23.8240   -9.0670  -38.6270 N.3   279  LEU279     -0.1245
     98  CA        23.8390   -8.1960  -37.4530 C.3   279  LEU279      0.1561
     99  C         24.9950   -8.5810  -36.5240 C.2   279  LEU279      0.2260
    100  O         25.2280   -9.7660  -36.2730 O.2   279  LEU279     -0.2867
    101  CB        22.4940   -8.2470  -36.7140 C.3   279  LEU279      0.0270
    102  CG        21.3240   -7.5320  -37.3980 C.3   279  LEU279      0.0019
    103  CD1       19.9950   -7.8580  -36.7350 C.3   279  LEU279      0.0001
    104  CD2       21.5550   -6.0350  -37.4000 C.3   279  LEU279      0.0001
    105  N         20.1970   -9.0690  -30.8730 N.3   283  SER283     -0.1202
    106  CA        19.4770   -7.8330  -30.5900 C.3   283  SER283      0.2020
    107  C         18.0020   -7.8490  -30.9840 C.2   283  SER283      0.2619
    108  O         17.5270   -8.7730  -31.6430 O.2   283  SER283     -0.2717
    109  CB        20.1760   -6.6670  -31.2930 C.3   283  SER283      0.2103
    110  OG        20.4460   -6.9710  -32.6520 O.3   283  SER283     -0.2182
    111  N         17.2870   -6.8180  -30.5410 N.am  284  ILE284     -0.1965
    112  CA        15.9570   -6.4960  -31.0400 C.3   284  ILE284      0.1727
    113  C         15.9540   -5.0130  -31.4030 C.2   284  ILE284      0.2616
    114  O         16.8700   -4.2850  -31.0200 O.2   284  ILE284     -0.2715
    115  CB        14.8510   -6.7900  -30.0160 C.3   284  ILE284      0.0290
    116  CG1       15.1420   -6.0790  -28.6950 C.3   284  ILE284      0.0022
    117  CG2       14.7000   -8.2950  -29.8060 C.3   284  ILE284      0.0023
    118  CD1       13.9690   -6.0880  -27.7340 C.3   284  ILE284      0.0001
    119  N         14.9320   -4.5770  -32.1340 N.am  285  PHE285     -0.1960
    120  CA        14.8680   -3.2210  -32.6820 C.3   285  PHE285      0.1771
    121  C         16.1590   -2.8330  -33.4100 C.2   285  PHE285      0.2619
    122  O         16.6590   -1.7140  -33.2780 O.2   285  PHE285     -0.2715
    123  CB        14.4890   -2.2040  -31.6030 C.3   285  PHE285      0.0574
    124  CG        13.5910   -1.1060  -32.1010 C.ar  285  PHE285     -0.0200
    125  CD1       13.8060   -0.5270  -33.3470 C.ar  285  PHE285     -0.0042
    126  CD2       12.5210   -0.6660  -31.3350 C.ar  285  PHE285     -0.0042
    127  CE1       12.9820    0.4850  -33.8140 C.ar  285  PHE285     -0.0003
    128  CE2       11.6910    0.3480  -31.7920 C.ar  285  PHE285     -0.0003
    129  CZ        11.9210    0.9250  -33.0350 C.ar  285  PHE285     -0.0000
    130  N         16.6900   -3.7790  -34.1800 N.am  286  ARG286     -0.1963
    131  CA        17.9000   -3.5520  -34.9610 C.3   286  ARG286      0.1729
    132  C         17.7740   -4.2380  -36.3210 C.2   286  ARG286      0.2616
    133  O         17.3490   -5.3930  -36.4120 O.2   286  ARG286     -0.2715
    134  CB        19.1350   -4.0500  -34.2010 C.3   286  ARG286      0.0348
    135  CG        20.3390   -3.1150  -34.2820 C.3   286  ARG286      0.0492
    136  CD        20.5780   -2.3690  -32.9760 C.3   286  ARG286      0.2205
    137  NE        19.4420   -1.5370  -32.5880 N.pl3 286  ARG286     -0.0865
    138  CZ        19.4640   -0.6540  -31.5930 C.cat 286  ARG286      0.5346
    139  NH1       20.5680   -0.4730  -30.8830 N.pl3 286  ARG286      0.1354
    140  NH2       18.3810    0.0550  -31.3150 N.pl3 286  ARG286      0.1354
    141  N         18.1280   -3.5220  -37.3820 N.am  287  PHE287     -0.1974
    142  CA        17.8900   -4.0310  -38.7300 C.3   287  PHE287      0.1639
    143  C         19.1450   -4.0090  -39.6050 C.2   287  PHE287      0.2290
    144  O         19.9760   -3.1040  -39.5030 O.2   287  PHE287     -0.2864
    145  CB        16.7170   -3.2800  -39.3700 C.3   287  PHE287      0.0560
    146  CG        15.5750   -3.0380  -38.4150 C.ar  287  PHE287     -0.0200
    147  CD1       14.7350   -4.0800  -38.0320 C.ar  287  PHE287     -0.0042
    148  CD2       15.3600   -1.7770  -37.8770 C.ar  287  PHE287     -0.0042
    149  CE1       13.6890   -3.8620  -37.1420 C.ar  287  PHE287     -0.0003
    150  CE2       14.3180   -1.5480  -36.9870 C.ar  287  PHE287     -0.0003
    151  CZ        13.4800   -2.5930  -36.6190 C.ar  287  PHE287     -0.0000
    152  N          6.1270   -4.7970  -28.3030 N.3   327  TYR327     -0.1227
    153  CA         6.1420   -5.9860  -29.1630 C.3   327  TYR327      0.1736
    154  C          7.4920   -6.4100  -29.7590 C.2   327  TYR327      0.2595
    155  O          7.5880   -7.4920  -30.3330 O.2   327  TYR327     -0.2718
    156  CB         4.9990   -6.0120  -30.1990 C.3   327  TYR327      0.0548
    157  CG         5.1650   -5.1390  -31.4210 C.ar  327  TYR327     -0.0200
    158  CD1        6.1730   -5.3750  -32.3510 C.ar  327  TYR327     -0.0009
    159  CD2        4.2730   -4.1140  -31.6750 C.ar  327  TYR327     -0.0009
    160  CE1        6.3100   -4.5860  -33.4650 C.ar  327  TYR327      0.0417
    161  CE2        4.3980   -3.3280  -32.7860 C.ar  327  TYR327      0.0417
    162  CZ         5.4170   -3.5650  -33.6810 C.ar  327  TYR327      0.1957
    163  OH         5.5440   -2.7750  -34.7960 O.3   327  TYR327     -0.2866
    164  N          8.5340   -5.5910  -29.6290 N.am  328  PHE328     -0.1976
    165  CA         9.8370   -6.0710  -30.0730 C.3   328  PHE328      0.1639
    166  C         10.4150   -7.1450  -29.1510 C.2   328  PHE328      0.2290
    167  O         11.3070   -7.8990  -29.5450 O.2   328  PHE328     -0.2864
    168  CB        10.8010   -4.8920  -30.2290 C.3   328  PHE328      0.0560
    169  CG        10.3490   -3.8660  -31.2410 C.ar  328  PHE328     -0.0200
    170  CD1        9.4620   -2.8540  -30.8850 C.ar  328  PHE328     -0.0042
    171  CD2       10.8170   -3.9110  -32.5480 C.ar  328  PHE328     -0.0042
    172  CE1        9.0480   -1.9090  -31.8160 C.ar  328  PHE328     -0.0003
    173  CE2       10.4100   -2.9690  -33.4820 C.ar  328  PHE328     -0.0003
    174  CZ         9.5230   -1.9680  -33.1150 C.ar  328  PHE328     -0.0000
    175  N         10.2050  -10.8370  -30.0730 N.3   331  TYR331     -0.1241
    176  CA        11.0160  -11.1660  -31.2430 C.3   331  TYR331      0.1605
    177  C         12.4840  -11.4610  -30.9100 C.2   331  TYR331      0.2264
    178  O         13.3260  -11.5060  -31.8100 O.2   331  TYR331     -0.2867
    179  CB        10.9500  -10.0340  -32.2720 C.3   331  TYR331      0.0534
    180  CG         9.6910  -10.0010  -33.1140 C.ar  331  TYR331     -0.0201
    181  CD1        9.5550  -10.8220  -34.2230 C.ar  331  TYR331     -0.0009
    182  CD2        8.6500   -9.1310  -32.8130 C.ar  331  TYR331     -0.0009
    183  CE1        8.4130  -10.7890  -35.0030 C.ar  331  TYR331      0.0417
    184  CE2        7.5040   -9.0910  -33.5890 C.ar  331  TYR331      0.0417
    185  CZ         7.3940   -9.9210  -34.6840 C.ar  331  TYR331      0.1957
    186  OH         6.2610   -9.8930  -35.4660 O.3   331  TYR331     -0.2866
    187  N         -3.2350   -8.1130  -29.9290 N.3   429  TRP429     -0.1241
    188  CA        -2.1060   -8.3340  -29.0310 C.3   429  TRP429      0.1605
    189  C         -2.6120   -8.3180  -27.5870 C.2   429  TRP429      0.2264
    190  O         -3.6340   -7.6910  -27.2950 O.2   429  TRP429     -0.2867
    191  CB        -1.0370   -7.2530  -29.2330 C.3   429  TRP429      0.0550
    192  CG        -0.4040   -7.2600  -30.5990 C.ar  429  TRP429      0.0003
    193  CD1       -0.7230   -6.4600  -31.6570 C.ar  429  TRP429      0.0946
    194  CD2        0.6660   -8.1050  -31.0440 C.ar  429  TRP429      0.0152
    195  NE1        0.0790   -6.7580  -32.7340 N.ar  429  TRP429     -0.2442
    196  CE2        0.9390   -7.7660  -32.3830 C.ar  429  TRP429      0.0810
    197  CE3        1.4160   -9.1190  -30.4400 C.ar  429  TRP429      0.0012
    198  CZ2        1.9320   -8.4070  -33.1290 C.ar  429  TRP429      0.0191
    199  CZ3        2.3990   -9.7490  -31.1780 C.ar  429  TRP429      0.0001
    200  CH2        2.6500   -9.3920  -32.5070 C.ar  429  TRP429      0.0015
    201  N          3.6880   -0.2020  -30.7530 N.3   437  HIS437     -0.1241
    202  CA         4.2660    0.4790  -31.9090 C.3   437  HIS437      0.1621
    203  C          3.4170    0.3350  -33.1770 C.2   437  HIS437      0.2264
    204  O          3.2520   -0.7640  -33.7010 O.2   437  HIS437     -0.2867
    205  CB         5.6690   -0.0950  -32.1460 C.3   437  HIS437      0.0745
    206  CG         6.4890    0.6550  -33.1490 C.ar  437  HIS437      0.0817
    207  ND1        6.8770    1.9670  -32.9630 N.ar  437  HIS437     -0.2268
    208  CD2        7.0220    0.2670  -34.3270 C.ar  437  HIS437      0.1154
    209  CE1        7.6000    2.3550  -33.9960 C.ar  437  HIS437      0.1986
    210  NE2        7.7060    1.3440  -34.8400 N.ar  437  HIS437     -0.2212
@<TRIPOS>BOND
     1     1     2    1
     2     2     3    1
     3     2     5    1
     4    53    52    2
     5    64    63    1
     6    64    65    2
     7     3     4    2
     8    63    62    1
     9    63    66    1
    10    52    62   am
    11    52    51    1
    12     5     6    1
    13    51    50    1
    14    51    54    1
    15    66    67    1
    16    31    30    2
    17    54    55    1
    18     6     7   ar
    19     6     8   ar
    20     7     9   ar
    21    30    29    1
    22    56    55   ar
    23    56    58   ar
    24    55    57   ar
    25    13    14    1
    26     9    11   ar
    27     8    10   ar
    28    83    84    1
    29    45    44    2
    30    29    28    1
    31    29    32    1
    32    43    42    1
    33    43    44    1
    34    58    60   ar
    35    48    49    2
    36    48    47    1
    37    44    46   am
    38    11    10   ar
    39    11    12    1
    40    16    15    2
    41    57    59   ar
    42    91    89   ar
    43    91    92   ar
    44    89    88   ar
    45    14    15    1
    46    14    17    1
    47    32    33    1
    48    46    47    1
    49    84    85    1
    50    84    87    1
    51    68    69    1
    52    60    59   ar
    53    60    61    1
    54    92    94   ar
    55    92    90   ar
    56    88    87    1
    57    88    90   ar
    58    38    40   ar
    59    38    35   ar
    60    71    70    2
    61    17    18    1
    62    85    86    2
    63    94    96   ar
    64    24    23    2
    65   143   144    2
    66   143   142    1
    67    40    41   ar
    68    90    93   ar
    69    33    35   ar
    70    33    34   ar
    71   145   142    1
    72   145   146    1
    73    35    37   ar
    74    69    70    1
    75    69    72    1
    76    23    22    1
    77    70    77   am
    78    96    95   ar
    79   142   141    1
    80    80    79    2
    81    72    73    1
    82    97    98    1
    83    79    78    1
    84    93    95   ar
    85    18    19   ar
    86    18    20   ar
    87   146   147   ar
    88   146   148   ar
    89    41    39   ar
    90    34    36   ar
    91    75    74   ar
    92   147   149   ar
    93    37    39   ar
    94    37    36   ar
    95   148   150   ar
    96    77    78    1
    97    81    78    1
    98    81    82    1
    99    98   101    1
   100    98    99    1
   101    22    25    1
   102    22    21    1
   103   104   102    1
   104   102   103    1
   105   102   101    1
   106   141   132   am
   107    73    74    1
   108   149   151   ar
   109    74    76   ar
   110    25    26    1
   111    25    27    1
   112   150   151   ar
   113    99   100    2
   114   133   132    2
   115   132   131    1
   116   186   185    1
   117   183   185   ar
   118   183   181   ar
   119   131   134    1
   120   131   130    1
   121   210   208   ar
   122   210   209   ar
   123   163   162    1
   124   185   184   ar
   125   208   206   ar
   126   135   134    1
   127   135   136    1
   128   181   180   ar
   129   130   121   am
   130   209   207   ar
   131   127   125   ar
   132   127   129   ar
   133   204   203    2
   134   162   160   ar
   135   162   161   ar
   136   184   182   ar
   137   173   174   ar
   138   173   171   ar
   139   160   158   ar
   140   121   122    2
   141   121   120    1
   142   125   124   ar
   143   203   202    1
   144   206   207   ar
   145   206   205    1
   146   198   200   ar
   147   198   196   ar
   148   174   172   ar
   149   180   182   ar
   150   180   179    1
   151   129   128   ar
   152   136   137    1
   153   161   159   ar
   154   195   196   ar
   155   195   193   ar
   156   120   119    1
   157   120   123    1
   158   110   109    1
   159   137   138    2
   160   171   169   ar
   161   200   199   ar
   162   196   194   ar
   163   158   157   ar
   164   179   176    1
   165   205   202    1
   166   119   113   am
   167   124   123    1
   168   124   126   ar
   169   202   201    1
   170   172   170   ar
   171   178   177    2
   172   128   126   ar
   173   159   157   ar
   174   193   192   ar
   175   108   107    2
   176   138   140    1
   177   138   139    1
   178   157   156    1
   179   113   112    1
   180   113   114    2
   181   109   106    1
   182   176   177    1
   183   176   175    1
   184   169   170   ar
   185   169   168    1
   186   199   197   ar
   187   194   192   ar
   188   194   197   ar
   189   112   111    1
   190   112   115    1
   191   107   106    1
   192   107   111   am
   193   105   106    1
   194   192   191    1
   195   155   154    2
   196   168   165    1
   197   156   153    1
   198   165   164    1
   199   165   166    1
   200   115   117    1
   201   115   116    1
   202   187   188    1
   203   154   164   am
   204   154   153    1
   205   167   166    2
   206   191   188    1
   207   153   152    1
   208   188   189    1
   209   116   118    1
   210   189   190    2
