@<TRIPOS>MOLECULE
tmp/4araB02.pdb
 87 85 0 0 0
SMALL
GASTEIGER

@<TRIPOS>ATOM
      1  N         24.0910    0.5000  -15.6560 N.3   367  ALA367     -0.1245
      2  CA        23.4630    1.8050  -15.4570 C.3   367  ALA367      0.1562
      3  C         21.9910    1.8010  -15.8680 C.2   367  ALA367      0.2260
      4  O         21.1510    2.4260  -15.2150 O.2   367  ALA367     -0.2867
      5  CB        24.2170    2.8690  -16.2320 C.3   367  ALA367      0.0290
      6  N         19.9060   -0.3390  -13.2590 N.3   370  LEU370     -0.1231
      7  CA        19.7630    0.3810  -11.9970 C.3   370  LEU370      0.1693
      8  C         18.8420    1.5980  -12.1260 C.2   370  LEU370      0.2592
      9  O         18.1760    1.9870  -11.1660 O.2   370  LEU370     -0.2718
     10  CB        21.1400    0.7830  -11.4580 C.3   370  LEU370      0.0284
     11  CG        22.1010   -0.3920  -11.2410 C.3   370  LEU370      0.0019
     12  CD1       23.4120    0.0540  -10.6260 C.3   370  LEU370      0.0001
     13  CD2       21.4630   -1.4730  -10.3890 C.3   370  LEU370      0.0001
     14  N         18.7980    2.1870  -13.3170 N.am  371  HIS371     -0.1976
     15  CA        17.9020    3.3110  -13.5750 C.3   371  HIS371      0.1656
     16  C         16.4510    2.8470  -13.7120 C.2   371  HIS371      0.2291
     17  O         15.5280    3.5320  -13.2720 O.2   371  HIS371     -0.2864
     18  CB        18.3280    4.0550  -14.8430 C.3   371  HIS371      0.0771
     19  CG        17.4770    5.2470  -15.1600 C.ar  371  HIS371      0.0820
     20  ND1       17.7950    6.5210  -14.7340 N.ar  371  HIS371     -0.2267
     21  CD2       16.3240    5.3590  -15.8570 C.ar  371  HIS371      0.1154
     22  CE1       16.8710    7.3640  -15.1560 C.ar  371  HIS371      0.1986
     23  NE2       15.9650    6.6880  -15.8390 N.ar  371  HIS371     -0.2212
     24  N         15.1100   -0.2350  -12.6530 N.3   373  THR373     -0.1218
     25  CA        14.5930   -0.9910  -11.5200 C.3   373  THR373      0.1862
     26  C         13.7870   -0.0730  -10.5960 C.2   373  THR373      0.2287
     27  O         14.2210    1.0410  -10.2880 O.2   373  THR373     -0.2866
     28  CB        15.7390   -1.6520  -10.7260 C.3   373  THR373      0.1770
     29  OG1       16.3630   -2.6580  -11.5350 O.3   373  THR373     -0.2211
     30  CG2       15.2150   -2.2900   -9.4440 C.3   373  THR373      0.0375
     31  N         13.1450    0.3460   -7.0650 N.3   375  TRP375     -0.1241
     32  CA        13.7820   -0.1750   -5.8580 C.3   375  TRP375      0.1605
     33  C         12.8170   -0.3840   -4.6930 C.2   375  TRP375      0.2264
     34  O         13.1990   -0.8980   -3.6430 O.2   375  TRP375     -0.2867
     35  CB        14.9950    0.6850   -5.4910 C.3   375  TRP375      0.0550
     36  CG        16.0130    0.5530   -6.5610 C.ar  375  TRP375      0.0003
     37  CD1       16.2740    1.4330   -7.5730 C.ar  375  TRP375      0.0946
     38  CD2       16.8550   -0.5790   -6.7850 C.ar  375  TRP375      0.0152
     39  NE1       17.2560    0.9280   -8.3940 N.ar  375  TRP375     -0.2442
     40  CE2       17.6280   -0.3080   -7.9300 C.ar  375  TRP375      0.0810
     41  CE3       17.0410   -1.7920   -6.1160 C.ar  375  TRP375      0.0012
     42  CZ2       18.5750   -1.2110   -8.4180 C.ar  375  TRP375      0.0191
     43  CZ3       17.9780   -2.6820   -6.6010 C.ar  375  TRP375      0.0001
     44  CH2       18.7330   -2.3900   -7.7390 C.ar  375  TRP375      0.0015
     45  N         13.5760   13.3750  -17.2780 N.3   517  GLN517     -0.1231
     46  CA        14.6340   12.7830  -16.4590 C.3   517  GLN517      0.1698
     47  C         15.2780   11.5770  -17.1370 C.2   517  GLN517      0.2592
     48  O         16.5020   11.4840  -17.2210 O.2   517  GLN517     -0.2718
     49  CB        14.0990   12.3830  -15.0790 C.3   517  GLN517      0.0381
     50  CG        13.6080   13.5520  -14.2420 C.3   517  GLN517      0.0905
     51  CD        14.6240   14.6720  -14.1680 C.2   517  GLN517      0.2608
     52  OE1       14.3510   15.8030  -14.5740 O.2   517  GLN517     -0.2717
     53  NE2       15.8070   14.3640  -13.6490 N.am  517  GLN517     -0.0878
     54  N         14.4450   10.6610  -17.6210 N.am  518  THR518     -0.1953
     55  CA        14.9180    9.4240  -18.2410 C.3   518  THR518      0.1897
     56  C         15.6280    9.6650  -19.5790 C.2   518  THR518      0.2313
     57  O         16.6290    9.0120  -19.8900 O.2   518  THR518     -0.2863
     58  CB        13.7520    8.4210  -18.4260 C.3   518  THR518      0.1794
     59  OG1       13.2530    8.0230  -17.1400 O.3   518  THR518     -0.2208
     60  CG2       14.2020    7.1850  -19.1960 C.3   518  THR518      0.0378
     61  N         17.1550   12.4440  -20.4110 N.3   520  ALA520     -0.1231
     62  CA        18.4230   13.0690  -20.0550 C.3   520  ALA520      0.1694
     63  C         19.4740   11.9930  -19.7810 C.2   520  ALA520      0.2592
     64  O         20.6440   12.1550  -20.1260 O.2   520  ALA520     -0.2718
     65  CB        18.2540   13.9680  -18.8430 C.3   520  ALA520      0.0304
     66  N         19.0490   10.8970  -19.1580 N.am  521  PHE521     -0.1976
     67  CA        19.9160    9.7400  -18.9510 C.3   521  PHE521      0.1639
     68  C         20.4080    9.1520  -20.2710 C.2   521  PHE521      0.2290
     69  O         21.5890    8.8340  -20.4090 O.2   521  PHE521     -0.2864
     70  CB        19.1910    8.6610  -18.1430 C.3   521  PHE521      0.0560
     71  CG        19.9030    7.3330  -18.1250 C.ar  521  PHE521     -0.0200
     72  CD1       21.0910    7.1730  -17.4190 C.ar  521  PHE521     -0.0042
     73  CD2       19.3780    6.2400  -18.8060 C.ar  521  PHE521     -0.0042
     74  CE1       21.7460    5.9480  -17.4000 C.ar  521  PHE521     -0.0003
     75  CE2       20.0250    5.0140  -18.7920 C.ar  521  PHE521     -0.0003
     76  CZ        21.2090    4.8660  -18.0870 C.ar  521  PHE521     -0.0000
     77  N         23.8140   11.4240  -20.6250 N.3   525  PHE525     -0.1241
     78  CA        24.7630   10.6650  -19.8140 C.3   525  PHE525      0.1605
     79  C         25.3800    9.4420  -20.4880 C.2   525  PHE525      0.2264
     80  O         26.6010    9.2900  -20.4910 O.2   525  PHE525     -0.2867
     81  CB        24.1630   10.2360  -18.4800 C.3   525  PHE525      0.0534
     82  CG        25.1330    9.4820  -17.6300 C.ar  525  PHE525     -0.0203
     83  CD1       26.2440   10.1280  -17.1050 C.ar  525  PHE525     -0.0042
     84  CD2       24.9740    8.1230  -17.3960 C.ar  525  PHE525     -0.0042
     85  CE1       27.1680    9.4420  -16.3390 C.ar  525  PHE525     -0.0003
     86  CE2       25.8940    7.4260  -16.6280 C.ar  525  PHE525     -0.0003
     87  CZ        26.9920    8.0880  -16.0950 C.ar  525  PHE525     -0.0000
@<TRIPOS>BOND
     1    77    78    1
     2    80    79    2
     3    79    78    1
     4    61    62    1
     5    69    68    2
     6    68    67    1
     7    64    63    2
     8    62    63    1
     9    62    65    1
    10    57    56    2
    11    78    81    1
    12    63    66   am
    13    56    55    1
    14    60    58    1
    15    66    67    1
    16    67    70    1
    17    73    75   ar
    18    73    71   ar
    19    75    76   ar
    20    81    82    1
    21    58    55    1
    22    58    59    1
    23    55    54    1
    24    70    71    1
    25    71    72   ar
    26    76    74   ar
    27    82    84   ar
    28    82    83   ar
    29    54    47   am
    30    72    74   ar
    31    84    86   ar
    32    45    46    1
    33    48    47    2
    34    47    46    1
    35    83    85   ar
    36    86    87   ar
    37    46    49    1
    38    85    87   ar
    39     5     2    1
    40     3     2    1
    41     3     4    2
    42    21    23   ar
    43    21    19   ar
    44    23    22   ar
    45     1     2    1
    46    19    18    1
    47    19    20   ar
    48    22    20   ar
    49    49    50    1
    50    18    15    1
    51    52    51    2
    52    50    51    1
    53    51    53   am
    54    16    15    1
    55    16    17    2
    56    15    14    1
    57    14     8   am
    58     6     7    1
    59    24    25    1
    60     8     7    1
    61     8     9    2
    62     7    10    1
    63    29    28    1
    64    25    28    1
    65    25    26    1
    66    10    11    1
    67    11    12    1
    68    11    13    1
    69    28    30    1
    70    26    27    2
    71    42    40   ar
    72    42    44   ar
    73    39    40   ar
    74    39    37   ar
    75    40    38   ar
    76    44    43   ar
    77    37    36   ar
    78    31    32    1
    79    38    36   ar
    80    38    41   ar
    81    43    41   ar
    82    36    35    1
    83    32    35    1
    84    32    33    1
    85    33    34    2
