@<TRIPOS>MOLECULE
tmp/4arcA00.pdb
 126 125 0 0 0
SMALL
GASTEIGER

@<TRIPOS>ATOM
      1  N         -7.5750   20.5240   18.2700 N.3    40  MET40      -0.1230
      2  CA        -7.0620   21.8630   18.1870 C.3    40  MET40       0.1702
      3  C         -7.8360   22.6790   17.1380 C.2    40  MET40       0.2592
      4  O         -7.9270   22.2920   16.0050 O.2    40  MET40      -0.2718
      5  CB        -5.5840   21.8550   17.8600 C.3    40  MET40       0.0401
      6  CG        -4.7400   21.3530   19.0330 C.3    40  MET40       0.0596
      7  SD        -3.0030   21.7880   18.8250 S.3    40  MET40      -0.1393
      8  CE        -2.2530   21.0720   20.2840 C.3    40  MET40       0.0692
      9  N         -8.4460   23.7770   17.5560 N.am   41  LEU41      -0.1966
     10  CA        -9.3610   24.5560   16.6400 C.3    41  LEU41       0.1713
     11  C         -8.5480   25.2440   15.4720 C.2    41  LEU41       0.2458
     12  O         -7.4350   25.7020   15.6610 O.2    41  LEU41      -0.2730
     13  CB       -10.1140   25.6260   17.4260 C.3    41  LEU41       0.0310
     14  CG        -9.5110   27.0000   17.7540 C.3    41  LEU41       0.0022
     15  CD1      -10.5760   27.8970   18.4810 C.3    41  LEU41       0.0001
     16  CD2       -8.2220   26.8950   18.5850 C.3    41  LEU41       0.0001
     17  N         -9.1110   25.2910   14.2740 N.am   42  PRO42      -0.2716
     18  CA        -8.3510   25.7840   13.1140 C.3    42  PRO42       0.1536
     19  C         -8.2950   27.2990   13.0360 C.2    42  PRO42       0.2598
     20  O         -9.1530   27.9600   13.5980 O.2    42  PRO42      -0.2715
     21  CB        -9.1500   25.2090   11.9280 C.3    42  PRO42       0.0310
     22  CG       -10.5390   25.1480   12.4820 C.3    42  PRO42       0.0237
     23  CD       -10.3780   24.6640   13.8980 C.3    42  PRO42       0.0939
     24  N         -7.2660   27.8430   12.3900 N.am   43  TYR43      -0.1974
     25  CA        -7.2320   29.2530   11.9910 C.3    43  TYR43       0.1639
     26  C         -8.1330   29.2790   10.7580 C.2    43  TYR43       0.2290
     27  O         -8.0030   28.4090    9.9310 O.2    43  TYR43      -0.2864
     28  CB        -5.8480   29.6900   11.4840 C.3    43  TYR43       0.0560
     29  CG        -4.6880   29.6090   12.4920 C.ar   43  TYR43      -0.0198
     30  CD1       -4.7350   30.3520   13.6490 C.ar   43  TYR43      -0.0009
     31  CD2       -3.5430   28.8430   12.2400 C.ar   43  TYR43      -0.0009
     32  CE1       -3.7020   30.3540   14.5590 C.ar   43  TYR43       0.0417
     33  CE2       -2.4990   28.8050   13.1550 C.ar   43  TYR43       0.0417
     34  CZ        -2.5860   29.5710   14.3110 C.ar   43  TYR43       0.1957
     35  OH        -1.6190   29.6140   15.2660 O.3    43  TYR43      -0.2866
     36  N         -5.5990   19.1580    8.7970 N.3    52  HIS52      -0.1241
     37  CA        -6.8920   19.3520    9.4750 C.3    52  HIS52       0.1621
     38  C         -7.6920   18.1170    9.3230 C.2    52  HIS52       0.2264
     39  O         -8.3150   17.6830   10.2780 O.2    52  HIS52      -0.2867
     40  CB        -7.7670   20.5100    8.8910 C.3    52  HIS52       0.0745
     41  CG        -7.1800   21.8980    9.0490 C.ar   52  HIS52       0.0817
     42  ND1       -6.8930   22.6890    7.9870 N.ar   52  HIS52      -0.2268
     43  CD2       -6.8640   22.6160   10.1660 C.ar   52  HIS52       0.1154
     44  CE1       -6.3790   23.8420    8.4170 C.ar   52  HIS52       0.1986
     45  NE2       -6.3500   23.7980    9.7620 N.ar   52  HIS52      -0.2212
     46  N         -8.9650   15.9720   12.5740 N.3    56  TYR56      -0.1241
     47  CA       -10.3630   16.0260   12.9720 C.3    56  TYR56       0.1605
     48  C        -11.0030   14.6750   12.7180 C.2    56  TYR56       0.2264
     49  O        -11.9310   14.3440   13.4070 O.2    56  TYR56      -0.2867
     50  CB       -11.1290   17.2000   12.3380 C.3    56  TYR56       0.0534
     51  CG       -10.4910   18.5380   12.5840 C.ar   56  TYR56      -0.0201
     52  CD1       -9.8030   18.8040   13.7310 C.ar   56  TYR56      -0.0009
     53  CD2      -10.5810   19.5250   11.6830 C.ar   56  TYR56      -0.0009
     54  CE1       -9.1970   20.0210   13.9570 C.ar   56  TYR56       0.0417
     55  CE2       -9.9730   20.7460   11.9110 C.ar   56  TYR56       0.0417
     56  CZ        -9.3040   20.9910   13.0570 C.ar   56  TYR56       0.1957
     57  OH        -8.6850   22.2230   13.2580 O.3    56  TYR56      -0.2866
     58  N        -10.0440   30.1200   15.5320 N.3    80  ASP80      -0.1239
     59  CA        -8.9800   30.9150   16.2010 C.3    80  ASP80       0.1674
     60  C         -8.7590   32.0330   15.2100 C.2    80  ASP80       0.2266
     61  O         -7.9540   31.9000   14.2950 O.2    80  ASP80      -0.2867
     62  CB        -7.7420   30.0440   16.3620 C.3    80  ASP80       0.1410
     63  CG        -6.6040   30.7120   17.1300 C.2    80  ASP80       0.3668
     64  OD1       -6.6960   31.8560   17.4790 O.co2  80  ASP80      -0.2456
     65  OD2       -5.5890   30.0240   17.3660 O.co2  80  ASP80      -0.2456
     66  N         -2.2290   34.0360   21.0780 N.3   447  PHE447     -0.1241
     67  CA        -2.1470   32.8620   21.9490 C.3   447  PHE447      0.1605
     68  C         -3.0940   33.0730   23.1400 C.2   447  PHE447      0.2264
     69  O         -3.5040   32.1410   23.7750 O.2   447  PHE447     -0.2867
     70  CB        -0.7150   32.6060   22.4150 C.3   447  PHE447      0.0534
     71  CG         0.1280   31.9120   21.4020 C.ar  447  PHE447     -0.0203
     72  CD1       -0.1840   30.6090   20.9700 C.ar  447  PHE447     -0.0042
     73  CD2        1.2320   32.5440   20.8440 C.ar  447  PHE447     -0.0042
     74  CE1        0.5990   29.9600   19.9910 C.ar  447  PHE447     -0.0003
     75  CE2        2.0430   31.8620   19.8850 C.ar  447  PHE447     -0.0003
     76  CZ         1.7160   30.5960   19.4580 C.ar  447  PHE447     -0.0000
     77  N         -6.4590   31.1820   22.2890 N.3   450  SER450     -0.1217
     78  CA        -6.3970   29.7350   22.2350 C.3   450  SER450      0.1889
     79  C         -6.0210   29.0930   23.6000 C.2   450  SER450      0.2288
     80  O         -5.8530   27.8670   23.7230 O.2   450  SER450     -0.2866
     81  CB        -5.3750   29.3100   21.1490 C.3   450  SER450      0.2089
     82  OG        -4.0860   29.8390   21.4230 O.3   450  SER450     -0.2183
     83  N        -10.0410   28.5880   25.1700 N.3   453  TYR453     -0.1241
     84  CA       -11.2280   28.2220   24.3780 C.3   453  TYR453      0.1605
     85  C        -11.8090   26.8860   24.7890 C.2   453  TYR453      0.2264
     86  O        -13.0300   26.6820   24.7990 O.2   453  TYR453     -0.2867
     87  CB       -10.8750   28.1890   22.8790 C.3   453  TYR453      0.0534
     88  CG       -10.1170   26.9500   22.4140 C.ar  453  TYR453     -0.0201
     89  CD1       -8.7790   26.7680   22.7250 C.ar  453  TYR453     -0.0009
     90  CD2      -10.7420   25.9850   21.6270 C.ar  453  TYR453     -0.0009
     91  CE1       -8.0760   25.6690   22.2450 C.ar  453  TYR453      0.0417
     92  CE2      -10.0570   24.8700   21.1910 C.ar  453  TYR453      0.0417
     93  CZ        -8.7360   24.7160   21.5190 C.ar  453  TYR453      0.1957
     94  OH        -8.0660   23.6000   21.0790 O.3   453  TYR453     -0.2866
     95  N         -6.9460   15.2830   23.9210 N.3   481  TYR481     -0.1241
     96  CA        -6.6710   16.4660   23.1450 C.3   481  TYR481      0.1605
     97  C         -5.7720   16.0680   21.9600 C.2   481  TYR481      0.2264
     98  O         -4.6930   15.4610   22.1620 O.2   481  TYR481     -0.2867
     99  CB        -5.9820   17.4890   24.0260 C.3   481  TYR481      0.0534
    100  CG        -5.8530   18.9090   23.5090 C.ar  481  TYR481     -0.0201
    101  CD1       -6.7090   19.3940   22.5540 C.ar  481  TYR481     -0.0009
    102  CD2       -4.9180   19.7920   24.0250 C.ar  481  TYR481     -0.0009
    103  CE1       -6.6200   20.6560   22.0710 C.ar  481  TYR481      0.0417
    104  CE2       -4.8420   21.1160   23.5680 C.ar  481  TYR481      0.0417
    105  CZ        -5.7740   21.5420   22.6130 C.ar  481  TYR481      0.1957
    106  OH        -5.8010   22.7950   22.0820 O.3   481  TYR481     -0.2866
    107  N          3.0970   22.4290   18.6130 N.3   487  HIS487     -0.1241
    108  CA         2.5500   23.3650   19.6380 C.3   487  HIS487      0.1621
    109  C          3.1180   23.1930   21.0330 C.2   487  HIS487      0.2264
    110  O          2.6470   23.8430   22.0210 O.2   487  HIS487     -0.2867
    111  CB         1.0490   23.1460   19.7160 C.3   487  HIS487      0.0745
    112  CG         0.3350   23.2820   18.3810 C.ar  487  HIS487      0.0817
    113  ND1       -0.0370   22.2030   17.6250 N.ar  487  HIS487     -0.2268
    114  CD2       -0.0730   24.4190   17.6820 C.ar  487  HIS487      0.1154
    115  CE1       -0.6380   22.6490   16.4960 C.ar  487  HIS487      0.1986
    116  NE2       -0.6850   24.0030   16.5430 N.ar  487  HIS487     -0.2212
    117  N          1.4690   27.0240   22.5630 N.3   491  HIS491     -0.1241
    118  CA         0.1060   26.7770   23.0100 C.3   491  HIS491      0.1621
    119  C         -0.0160   25.7430   24.1290 C.2   491  HIS491      0.2264
    120  O         -0.7370   25.9720   25.0920 O.2   491  HIS491     -0.2867
    121  CB        -0.7980   26.3700   21.8380 C.3   491  HIS491      0.0745
    122  CG        -2.0910   25.7600   22.2740 C.ar  491  HIS491      0.0817
    123  ND1       -2.9810   26.4370   23.0160 N.ar  491  HIS491     -0.2268
    124  CD2       -2.6000   24.4670   22.1270 C.ar  491  HIS491      0.1154
    125  CE1       -4.0390   25.6260   23.2810 C.ar  491  HIS491      0.1986
    126  NE2       -3.8020   24.4270   22.7430 N.ar  491  HIS491     -0.2212
@<TRIPOS>BOND
     1    42    44   ar
     2    42    41   ar
     3    44    45   ar
     4    36    37    1
     5    40    41    1
     6    40    37    1
     7    41    43   ar
     8    38    37    1
     9    38    39    2
    10    45    43   ar
    11    27    26    2
    12    26    25    1
    13    28    25    1
    14    28    29    1
    15    53    55   ar
    16    53    51   ar
    17    55    56   ar
    18    21    22    1
    19    21    18    1
    20    25    24    1
    21    31    29   ar
    22    31    33   ar
    23    50    51    1
    24    50    47    1
    25    24    19   am
    26    22    23    1
    27    29    30   ar
    28    46    47    1
    29    51    52   ar
    30    48    47    1
    31    48    49    2
    32    19    18    1
    33    19    20    2
    34    56    57    1
    35    56    54   ar
    36    18    17    1
    37    33    34   ar
    38    30    32   ar
    39    52    54   ar
    40    23    17    1
    41    17    11   am
    42    61    60    2
    43    34    32   ar
    44    34    35    1
    45    60    59    1
    46    11    12    2
    47    11    10    1
    48    58    59    1
    49     4     3    2
    50    59    62    1
    51    62    63    1
    52   115   116   ar
    53   115   113   ar
    54   116   114   ar
    55    10    13    1
    56    10     9    1
    57    63    65   ar
    58    63    64   ar
    59     3     9   am
    60     3     2    1
    61    13    14    1
    62   113   112   ar
    63   114   112   ar
    64    14    15    1
    65    14    16    1
    66     5     2    1
    67     5     6    1
    68     2     1    1
    69   112   111    1
    70   107   108    1
    71     7     6    1
    72     7     8    1
    73    76    75   ar
    74    76    74   ar
    75   108   111    1
    76   108   109    1
    77    75    73   ar
    78    74    72   ar
    79    73    71   ar
    80    72    71   ar
    81   109   110    2
    82    66    67    1
    83    94    93    1
    84    81    82    1
    85    81    78    1
    86    92    93   ar
    87    92    90   ar
    88    71    70    1
    89    93    91   ar
    90    90    88   ar
    91   121   122    1
    92   121   118    1
    93    67    70    1
    94    67    68    1
    95    97    98    2
    96    97    96    1
    97   103   101   ar
    98   103   105   ar
    99   106   105    1
   100   124   122   ar
   101   124   126   ar
   102    78    77    1
   103    78    79    1
   104    91    89   ar
   105   122   123   ar
   106    88    89   ar
   107    88    87    1
   108   101   100   ar
   109   117   118    1
   110   105   104   ar
   111   126   125   ar
   112    87    84    1
   113   118   119    1
   114   123   125   ar
   115    68    69    2
   116    96    95    1
   117    96    99    1
   118   100   102   ar
   119   100    99    1
   120   104   102   ar
   121    79    80    2
   122   119   120    2
   123    84    85    1
   124    84    83    1
   125    85    86    2
