@<TRIPOS>MOLECULE
tmp/4areA00.pdb
 118 116 0 0 0
SMALL
GASTEIGER

@<TRIPOS>ATOM
      1  N         -8.9060   27.8120  -26.2310 N.3   166  ALA166     -0.1231
      2  CA       -10.0850   27.0430  -25.8060 C.3   166  ALA166      0.1679
      3  C         -9.7450   25.7910  -24.9910 C.2   166  ALA166      0.2434
      4  O        -10.5120   25.4310  -24.0980 O.2   166  ALA166     -0.2733
      5  CB       -10.9520   26.6730  -26.9960 C.3   166  ALA166      0.0304
      6  N         -8.6130   25.1190  -25.3060 N.am  167  PRO167     -0.2718
      7  CA        -8.1590   23.9860  -24.4960 C.3   167  PRO167      0.1535
      8  C         -7.5700   24.3780  -23.1480 C.2   167  PRO167      0.2599
      9  O         -7.6390   23.5910  -22.2010 O.2   167  PRO167     -0.2715
     10  CB        -7.0510   23.3500  -25.3520 C.3   167  PRO167      0.0310
     11  CG        -7.2530   23.8830  -26.7290 C.3   167  PRO167      0.0237
     12  CD        -7.8080   25.2540  -26.5330 C.3   167  PRO167      0.0939
     13  N         -6.9660   25.5640  -23.0680 N.am  168  ASP168     -0.1958
     14  CA        -6.3590   26.0200  -21.8170 C.3   168  ASP168      0.1840
     15  C         -7.4300   26.2230  -20.7520 C.2   168  ASP168      0.2622
     16  O         -8.4140   26.9360  -20.9850 O.2   168  ASP168     -0.2715
     17  CB        -5.5810   27.3230  -22.0230 C.3   168  ASP168      0.1450
     18  CG        -4.8410   27.7600  -20.7730 C.2   168  ASP168      0.3671
     19  OD1       -3.8710   27.0770  -20.3790 O.co2 168  ASP168     -0.2456
     20  OD2       -5.2380   28.7830  -20.1770 O.co2 168  ASP168     -0.2456
     21  N         -7.2310   25.5980  -19.5910 N.am  169  TYR169     -0.1974
     22  CA        -8.2050   25.6730  -18.5020 C.3   169  TYR169      0.1639
     23  C         -8.4030   27.0910  -17.9900 C.2   169  TYR169      0.2290
     24  O         -9.5360   27.5150  -17.7580 O.2   169  TYR169     -0.2864
     25  CB        -7.8200   24.7510  -17.3390 C.3   169  TYR169      0.0560
     26  CG        -8.7950   24.8240  -16.1830 C.ar  169  TYR169     -0.0198
     27  CD1      -10.0130   24.1420  -16.2210 C.ar  169  TYR169     -0.0009
     28  CD2       -8.5070   25.5980  -15.0590 C.ar  169  TYR169     -0.0009
     29  CE1      -10.9120   24.2240  -15.1660 C.ar  169  TYR169      0.0417
     30  CE2       -9.3960   25.6920  -14.0010 C.ar  169  TYR169      0.0417
     31  CZ       -10.5970   25.0040  -14.0570 C.ar  169  TYR169      0.1957
     32  OH       -11.4760   25.0960  -12.9990 O.3   169  TYR169     -0.2866
     33  N         -9.9190   29.4550  -20.8870 N.3   172  GLY172     -0.1210
     34  CA       -11.2630   28.9670  -21.1250 C.3   172  GLY172      0.1956
     35  C        -12.1820   29.3180  -19.9810 C.2   172  GLY172      0.2612
     36  O        -13.2980   29.7830  -20.2040 O.2   172  GLY172     -0.2717
     37  N        -11.7130   29.1090  -18.7520 N.am  173  THR173     -0.1952
     38  CA       -12.5120   29.4380  -17.5670 C.3   173  THR173      0.1897
     39  C        -12.8170   30.9490  -17.5260 C.2   173  THR173      0.2313
     40  O        -13.9490   31.3570  -17.2410 O.2   173  THR173     -0.2863
     41  CB       -11.8200   28.9530  -16.2810 C.3   173  THR173      0.1794
     42  OG1      -11.7610   27.5260  -16.2980 O.3   173  THR173     -0.2208
     43  CG2      -12.5890   29.3750  -15.0530 C.3   173  THR173      0.0378
     44  N        -15.5400   31.7840  -20.0250 N.3   176  ASN176     -0.1240
     45  CA       -16.7870   31.1340  -19.6300 C.3   176  ASN176      0.1653
     46  C        -17.4390   31.8710  -18.4850 C.2   176  ASN176      0.2266
     47  O        -18.6530   32.0580  -18.4760 O.2   176  ASN176     -0.2867
     48  CB       -16.5610   29.6750  -19.2250 C.3   176  ASN176      0.1155
     49  CG       -17.8730   28.9150  -19.0100 C.2   176  ASN176      0.2627
     50  OD1      -18.7440   28.8820  -19.8890 O.2   176  ASN176     -0.2716
     51  ND2      -18.0130   28.2850  -17.8410 N.am  176  ASN176     -0.0877
     52  N        -11.1670   19.1390  -28.4520 N.3   223  ALA223     -0.1245
     53  CA       -10.6570   20.1080  -27.4680 C.3   223  ALA223      0.1562
     54  C        -11.4250   21.4560  -27.4490 C.2   223  ALA223      0.2260
     55  O        -11.6120   22.0400  -26.3800 O.2   223  ALA223     -0.2867
     56  CB        -9.1700   20.3520  -27.6860 C.3   223  ALA223      0.0290
     57  N        -16.4920   22.6810  -26.7840 N.3   226  TRP226     -0.1241
     58  CA       -17.2330   23.3580  -25.7210 C.3   226  TRP226      0.1605
     59  C        -17.3330   24.8540  -25.9440 C.2   226  TRP226      0.2264
     60  O        -18.3550   25.4680  -25.6370 O.2   226  TRP226     -0.2867
     61  CB       -16.6080   23.0540  -24.3660 C.3   226  TRP226      0.0550
     62  CG       -15.3150   23.7890  -24.1570 C.ar  226  TRP226      0.0003
     63  CD1      -14.0190   23.3480  -24.4170 C.ar  226  TRP226      0.0946
     64  CD2      -15.1630   25.1540  -23.6670 C.ar  226  TRP226      0.0152
     65  NE1      -13.0980   24.3280  -24.1140 N.ar  226  TRP226     -0.2442
     66  CE2      -13.7240   25.4360  -23.6570 C.ar  226  TRP226      0.0810
     67  CE3      -16.0430   26.1320  -23.2440 C.ar  226  TRP226      0.0012
     68  CZ2      -13.2210   26.6470  -23.2270 C.ar  226  TRP226      0.0191
     69  CZ3      -15.5230   27.3500  -22.8160 C.ar  226  TRP226      0.0001
     70  CH2      -14.1420   27.5960  -22.8070 C.ar  226  TRP226      0.0015
     71  N        -19.9770   25.4270  -28.2790 N.3   229  ASP229     -0.1225
     72  CA       -21.1650   25.0500  -27.5090 C.3   229  ASP229      0.1805
     73  C        -21.5870   26.2770  -26.6860 C.2   229  ASP229      0.2597
     74  O        -22.7340   26.7450  -26.7660 O.2   229  ASP229     -0.2718
     75  CB       -20.8340   23.8350  -26.6090 C.3   229  ASP229      0.1424
     76  CG       -22.0640   23.1970  -25.9560 C.2   229  ASP229      0.3668
     77  OD1      -23.1900   23.7040  -26.1320 O.co2 229  ASP229     -0.2456
     78  OD2      -21.8990   22.1710  -25.2500 O.co2 229  ASP229     -0.2456
     79  N        -20.6390   26.8150  -25.9240 N.am  230  VAL230     -0.1980
     80  CA       -20.8590   28.0490  -25.1610 C.3   230  VAL230      0.1595
     81  C        -21.4260   29.1440  -26.0700 C.2   230  VAL230      0.2287
     82  O        -22.4370   29.7700  -25.7350 O.2   230  VAL230     -0.2864
     83  CB       -19.5560   28.5090  -24.4490 C.3   230  VAL230      0.0276
     84  CG1      -19.6620   29.9510  -23.9490 C.3   230  VAL230      0.0022
     85  CG2      -19.2300   27.5760  -23.2850 C.3   230  VAL230      0.0022
     86  N        -25.1560   28.2930  -27.0560 N.3   233  TYR233     -0.1227
     87  CA       -26.0270   28.3600  -25.8950 C.3   233  TYR233      0.1736
     88  C        -26.2970   29.8090  -25.5130 C.2   233  TYR233      0.2595
     89  O        -27.4440   30.2160  -25.3190 O.2   233  TYR233     -0.2718
     90  CB       -25.4020   27.6330  -24.7060 C.3   233  TYR233      0.0548
     91  CG       -26.3130   27.6090  -23.5040 C.ar  233  TYR233     -0.0200
     92  CD1      -27.3170   26.6460  -23.3810 C.ar  233  TYR233     -0.0009
     93  CD2      -26.2040   28.5810  -22.5090 C.ar  233  TYR233     -0.0009
     94  CE1      -28.1670   26.6340  -22.2810 C.ar  233  TYR233      0.0417
     95  CE2      -27.0470   28.5780  -21.4110 C.ar  233  TYR233      0.0417
     96  CZ       -28.0260   27.6070  -21.2950 C.ar  233  TYR233      0.1957
     97  OH       -28.8600   27.6190  -20.1920 O.3   233  TYR233     -0.2866
     98  N        -25.2330   30.5920  -25.4140 N.am  234  TYR234     -0.1976
     99  CA       -25.3690   31.9800  -25.0010 C.3   234  TYR234      0.1639
    100  C        -25.7860   32.8990  -26.1470 C.2   234  TYR234      0.2290
    101  O        -26.3940   33.9310  -25.8970 O.2   234  TYR234     -0.2864
    102  CB       -24.1040   32.4420  -24.2730 C.3   234  TYR234      0.0560
    103  CG       -23.9320   31.7040  -22.9530 C.ar  234  TYR234     -0.0198
    104  CD1      -24.7380   32.0030  -21.8530 C.ar  234  TYR234     -0.0009
    105  CD2      -22.9930   30.6890  -22.8130 C.ar  234  TYR234     -0.0009
    106  CE1      -24.5990   31.3220  -20.6490 C.ar  234  TYR234      0.0417
    107  CE2      -22.8430   30.0040  -21.6170 C.ar  234  TYR234      0.0417
    108  CZ       -23.6550   30.3100  -20.5300 C.ar  234  TYR234      0.1957
    109  OH       -23.5350   29.6110  -19.3220 O.3   234  TYR234     -0.2866
    110  N        -22.7810   17.2330  -30.6380 N.3   263  LYS263     -0.1245
    111  CA       -23.3290   17.8620  -29.4220 C.3   263  LYS263      0.1561
    112  C        -24.0060   19.2130  -29.7170 C.2   263  LYS263      0.2260
    113  O        -25.1820   19.4210  -29.3950 O.2   263  LYS263     -0.2867
    114  CB       -22.2130   18.0290  -28.3770 C.3   263  LYS263      0.0271
    115  CG       -22.7420   18.4030  -27.0150 C.3   263  LYS263      0.0035
    116  CD       -21.6730   18.3800  -25.9270 C.3   263  LYS263      0.0206
    117  CE       -20.5150   19.3340  -26.2100 C.3   263  LYS263      0.1093
    118  NZ       -19.6470   19.5170  -25.0020 N.3   263  LYS263     -0.1314
@<TRIPOS>BOND
     1   110   111    1
     2   112   111    1
     3   112   113    2
     4   111   114    1
     5    52    53    1
     6   114   115    1
     7    71    72    1
     8    56    53    1
     9    72    73    1
    10    72    75    1
    11    53    54    1
    12    54    55    2
    13    86    87    1
    14   115   116    1
    15     5     2    1
    16    57    58    1
    17    74    73    2
    18    11    12    1
    19    11    10    1
    20    73    79   am
    21    75    76    1
    22    12     6    1
    23     1     2    1
    24   117   116    1
    25   117   118    1
    26   100   101    2
    27   100    99    1
    28    77    76   ar
    29    81    82    2
    30    81    80    1
    31    76    78   ar
    32    59    58    1
    33    59    60    2
    34    79    80    1
    35    87    88    1
    36    87    90    1
    37     2     3    1
    38    58    61    1
    39    88    98   am
    40    88    89    2
    41    98    99    1
    42    10     7    1
    43     6     3   am
    44     6     7    1
    45    80    83    1
    46    99   102    1
    47     3     4    2
    48    90    91    1
    49     7     8    1
    50    83    84    1
    51    83    85    1
    52    63    62   ar
    53    63    65   ar
    54    61    62    1
    55   102   103    1
    56    62    64   ar
    57    65    66   ar
    58    64    66   ar
    59    64    67   ar
    60    66    68   ar
    61    91    92   ar
    62    91    93   ar
    63    92    94   ar
    64    67    69   ar
    65    68    70   ar
    66     8    13   am
    67     8     9    2
    68    13    14    1
    69   103   105   ar
    70   103   104   ar
    71    69    70   ar
    72   105   107   ar
    73    93    95   ar
    74    94    96   ar
    75    17    14    1
    76    17    18    1
    77   104   106   ar
    78    14    15    1
    79   107   108   ar
    80    95    96   ar
    81    96    97    1
    82    34    33    1
    83    34    35    1
    84    16    15    2
    85    18    19   ar
    86    18    20   ar
    87    15    21   am
    88   106   108   ar
    89   108   109    1
    90    36    35    2
    91    44    45    1
    92    35    37   am
    93    50    49    2
    94    45    48    1
    95    45    46    1
    96    21    22    1
    97    48    49    1
    98    49    51   am
    99    37    38    1
   100    22    23    1
   101    22    25    1
   102    46    47    2
   103    23    24    2
   104    38    39    1
   105    38    41    1
   106    39    40    2
   107    25    26    1
   108    42    41    1
   109    41    43    1
   110    27    26   ar
   111    27    29   ar
   112    26    28   ar
   113    29    31   ar
   114    28    30   ar
   115    31    30   ar
   116    31    32    1
