@<TRIPOS>MOLECULE
tmp/4areA01.pdb
 99 96 0 0 0
SMALL
GASTEIGER

@<TRIPOS>ATOM
      1  N        -23.6530  -27.1490  -20.9840 N.3   457  SER457     -0.1202
      2  CA       -23.0110  -27.3520  -19.6790 C.3   457  SER457      0.2020
      3  C        -23.6050  -26.4890  -18.6010 C.2   457  SER457      0.2619
      4  O        -22.9090  -26.1200  -17.6610 O.2   457  SER457     -0.2717
      5  CB       -21.5180  -27.0330  -19.7690 C.3   457  SER457      0.2103
      6  OG       -20.9610  -27.6710  -20.8910 O.3   457  SER457     -0.2182
      7  N        -24.8840  -26.1580  -18.7250 N.am  458  GLY458     -0.1942
      8  CA       -25.5250  -25.3010  -17.7350 C.3   458  GLY458      0.2014
      9  C        -24.8760  -23.9310  -17.6220 C.2   458  GLY458      0.2639
     10  O        -24.3740  -23.3830  -18.5930 O.2   458  GLY458     -0.2714
     11  N        -24.8820  -23.3760  -16.4200 N.am  459  VAL459     -0.1963
     12  CA       -24.3170  -22.0670  -16.1780 C.3   459  VAL459      0.1727
     13  C        -22.9400  -22.2040  -15.5520 C.2   459  VAL459      0.2616
     14  O        -22.7770  -22.9360  -14.5760 O.2   459  VAL459     -0.2715
     15  CB       -25.2260  -21.2490  -15.2550 C.3   459  VAL459      0.0290
     16  CG1      -24.6580  -19.8610  -15.0690 C.3   459  VAL459      0.0023
     17  CG2      -26.6240  -21.1710  -15.8410 C.3   459  VAL459      0.0023
     18  N        -21.9560  -21.5040  -16.1220 N.am  460  LEU460     -0.1977
     19  CA       -20.5770  -21.5640  -15.6420 C.3   460  LEU460      0.1596
     20  C        -20.1310  -20.2010  -15.1490 C.2   460  LEU460      0.2287
     21  O        -20.6140  -19.1840  -15.6300 O.2   460  LEU460     -0.2864
     22  CB       -19.6250  -22.0320  -16.7520 C.3   460  LEU460      0.0297
     23  CG       -19.6980  -23.5080  -17.1490 C.3   460  LEU460      0.0022
     24  CD1      -18.8270  -23.7610  -18.3750 C.3   460  LEU460      0.0001
     25  CD2      -19.2960  -24.4100  -15.9990 C.3   460  LEU460      0.0001
     26  N        -26.9400  -22.1960   -6.5450 N.3   507  TYR507     -0.1227
     27  CA       -27.0710  -23.0130   -7.7490 C.3   507  TYR507      0.1736
     28  C        -26.2970  -24.3150   -7.6230 C.2   507  TYR507      0.2595
     29  O        -26.8430  -25.3780   -7.8440 O.2   507  TYR507     -0.2718
     30  CB       -26.5750  -22.2220   -8.9510 C.3   507  TYR507      0.0548
     31  CG       -26.6030  -22.9140  -10.3030 C.ar  507  TYR507     -0.0200
     32  CD1      -27.8010  -23.1570  -10.9790 C.ar  507  TYR507     -0.0009
     33  CD2      -25.4150  -23.2510  -10.9440 C.ar  507  TYR507     -0.0009
     34  CE1      -27.8070  -23.7430  -12.2420 C.ar  507  TYR507      0.0417
     35  CE2      -25.4070  -23.8380  -12.1950 C.ar  507  TYR507      0.0417
     36  CZ       -26.5980  -24.0760  -12.8520 C.ar  507  TYR507      0.1957
     37  OH       -26.5540  -24.6440  -14.1150 O.3   507  TYR507     -0.2866
     38  N        -25.0260  -24.2320   -7.2590 N.am  508  GLU508     -0.1979
     39  CA       -24.1750  -25.4260   -7.2210 C.3   508  GLU508      0.1602
     40  C        -24.4040  -26.2460   -5.9490 C.2   508  GLU508      0.2287
     41  O        -24.5400  -27.4540   -6.0070 O.2   508  GLU508     -0.2864
     42  CB       -22.6920  -25.0470   -7.3710 C.3   508  GLU508      0.0415
     43  CG       -21.7100  -26.1800   -7.1010 C.3   508  GLU508      0.1163
     44  CD       -20.2550  -25.8020   -7.3510 C.2   508  GLU508      0.3649
     45  OE1      -19.9800  -24.9970   -8.2540 O.co2 508  GLU508     -0.2457
     46  OE2      -19.3660  -26.3190   -6.6510 O.co2 508  GLU508     -0.2457
     47  N        -29.3930  -26.1400   -4.6420 N.3   511  MET511     -0.1245
     48  CA       -30.4220  -25.9320   -5.6560 C.3   511  MET511      0.1570
     49  C        -31.8250  -25.9420   -5.1000 C.2   511  MET511      0.2261
     50  O        -32.6810  -25.2250   -5.6020 O.2   511  MET511     -0.2867
     51  CB       -30.3770  -27.0090   -6.7400 C.3   511  MET511      0.0387
     52  CG       -29.5720  -26.6690   -7.9680 C.3   511  MET511      0.0595
     53  SD       -29.9830  -25.1260   -8.7880 S.3   511  MET511     -0.1393
     54  CE       -31.6350  -25.4350   -9.3950 C.3   511  MET511      0.0692
     55  N        -34.6930  -32.3920  -11.0000 N.3   625  TRP625     -0.1227
     56  CA       -34.1050  -31.2760  -11.7090 C.3   625  TRP625      0.1737
     57  C        -32.6700  -31.5680  -12.0590 C.2   625  TRP625      0.2595
     58  O        -32.2370  -31.3330  -13.1840 O.2   625  TRP625     -0.2718
     59  CB       -34.2000  -29.9960  -10.8760 C.3   625  TRP625      0.0564
     60  CG       -33.9080  -28.7450  -11.6670 C.ar  625  TRP625      0.0003
     61  CD1      -34.8200  -27.8770  -12.2550 C.ar  625  TRP625      0.0946
     62  CD2      -32.5920  -28.1900  -11.9920 C.ar  625  TRP625      0.0152
     63  NE1      -34.1750  -26.8550  -12.8970 N.ar  625  TRP625     -0.2442
     64  CE2      -32.8380  -26.9940  -12.7920 C.ar  625  TRP625      0.0810
     65  CE3      -31.2860  -28.5570  -11.7190 C.ar  625  TRP625      0.0012
     66  CZ2      -31.8060  -26.2100  -13.2790 C.ar  625  TRP625      0.0191
     67  CZ3      -30.2480  -27.7560  -12.2240 C.ar  625  TRP625      0.0001
     68  CH2      -30.5040  -26.6140  -12.9840 C.ar  625  TRP625      0.0015
     69  N        -31.9070  -32.0830  -11.1050 N.am  626  ASP626     -0.1974
     70  CA       -30.5010  -32.4100  -11.3730 C.3   626  ASP626      0.1709
     71  C        -30.3450  -33.4350  -12.5080 C.2   626  ASP626      0.2293
     72  O        -29.5270  -33.2570  -13.4260 O.2   626  ASP626     -0.2864
     73  CB       -29.8060  -32.9320  -10.1210 C.3   626  ASP626      0.1436
     74  CG       -28.3030  -32.8690  -10.2400 C.2   626  ASP626      0.3671
     75  OD1      -27.7430  -31.7620  -10.1600 O.co2 626  ASP626     -0.2456
     76  OD2      -27.6710  -33.9190  -10.4360 O.co2 626  ASP626     -0.2456
     77  N        -31.5070  -32.2140  -16.0710 N.3   629  SER629     -0.1202
     78  CA       -30.4740  -31.3680  -16.6330 C.3   629  SER629      0.2020
     79  C        -29.3550  -32.1800  -17.2960 C.2   629  SER629      0.2618
     80  O        -28.9040  -31.8490  -18.4000 O.2   629  SER629     -0.2717
     81  CB       -29.8940  -30.4520  -15.5460 C.3   629  SER629      0.2103
     82  OG       -30.8240  -29.4530  -15.1790 O.3   629  SER629     -0.2182
     83  N        -28.9110  -33.2400  -16.6340 N.am  630  LYS630     -0.1979
     84  CA       -27.8830  -34.1010  -17.2160 C.3   630  LYS630      0.1596
     85  C        -28.4000  -34.8910  -18.4120 C.2   630  LYS630      0.2287
     86  O        -27.6510  -35.0980  -19.3720 O.2   630  LYS630     -0.2864
     87  CB       -27.2880  -35.0470  -16.1670 C.3   630  LYS630      0.0298
     88  CG       -26.2470  -34.3550  -15.2970 C.3   630  LYS630      0.0038
     89  CD       -26.0920  -35.0130  -13.9390 C.3   630  LYS630      0.0206
     90  CE       -25.2450  -34.1550  -13.0140 C.3   630  LYS630      0.1093
     91  NZ       -25.3160  -34.6920  -11.6270 N.3   630  LYS630     -0.1314
     92  N        -28.8390  -32.1880  -21.3350 N.3   633  ASP633     -0.1239
     93  CA       -27.5190  -31.7950  -21.8660 C.3   633  ASP633      0.1674
     94  C        -26.8230  -32.9500  -22.5940 C.2   633  ASP633      0.2266
     95  O        -26.1380  -32.7370  -23.5980 O.2   633  ASP633     -0.2867
     96  CB       -26.6110  -31.2600  -20.7530 C.3   633  ASP633      0.1410
     97  CG       -26.9930  -29.8610  -20.3120 C.2   633  ASP633      0.3668
     98  OD1      -27.5530  -29.1120  -21.1400 O.co2 633  ASP633     -0.2456
     99  OD2      -26.7390  -29.5060  -19.1330 O.co2 633  ASP633     -0.2456
@<TRIPOS>BOND
     1    95    94    2
     2    94    93    1
     3    93    92    1
     4    93    96    1
     5    98    97   ar
     6     1     2    1
     7     6     5    1
     8    96    97    1
     9    97    99   ar
    10     5     2    1
    11     2     3    1
    12    86    85    2
    13     7     3   am
    14     7     8    1
    15     3     4    2
    16    10     9    2
    17    85    84    1
    18    80    79    2
    19    24    23    1
    20     8     9    1
    21     9    11   am
    22    79    83   am
    23    79    78    1
    24    84    83    1
    25    84    87    1
    26    23    22    1
    27    23    25    1
    28    22    19    1
    29    78    77    1
    30    78    81    1
    31    11    12    1
    32    12    13    1
    33    12    15    1
    34    87    88    1
    35    18    19    1
    36    18    13   am
    37    17    15    1
    38    19    20    1
    39    21    20    2
    40    13    14    2
    41    81    82    1
    42    88    89    1
    43    15    16    1
    44    37    36    1
    45    89    90    1
    46    72    71    2
    47    66    68   ar
    48    66    64   ar
    49    58    57    2
    50    90    91    1
    51    68    67   ar
    52    63    64   ar
    53    63    61   ar
    54    36    34   ar
    55    36    35   ar
    56    64    62   ar
    57    71    70    1
    58    61    60   ar
    59    34    32   ar
    60    67    65   ar
    61    35    33   ar
    62    57    56    1
    63    57    69   am
    64    62    65   ar
    65    62    60   ar
    66    56    55    1
    67    56    59    1
    68    60    59    1
    69    70    69    1
    70    70    73    1
    71    32    31   ar
    72    33    31   ar
    73    76    74   ar
    74    31    30    1
    75    74    75   ar
    76    74    73    1
    77    54    53    1
    78    30    27    1
    79    53    52    1
    80    45    44   ar
    81    52    51    1
    82    29    28    2
    83    27    28    1
    84    27    26    1
    85    28    38   am
    86    42    39    1
    87    42    43    1
    88    44    43    1
    89    44    46   ar
    90    38    39    1
    91    39    40    1
    92    51    48    1
    93    41    40    2
    94    48    49    1
    95    48    47    1
    96    50    49    2
