@<TRIPOS>MOLECULE
tmp/4arkA01.pdb
 197 185 0 0 0
SMALL
GASTEIGER

@<TRIPOS>ATOM
      1  N         31.7320   31.2710   49.4780 N.3    37  LYS37      -0.1245
      2  CA        30.7240   31.4000   48.4310 C.3    37  LYS37       0.1561
      3  C         29.5370   30.5330   48.8300 C.2    37  LYS37       0.2260
      4  O         29.7190   29.3760   49.2380 O.2    37  LYS37      -0.2867
      5  CB        31.3030   30.9210   47.1060 C.3    37  LYS37       0.0271
      6  CG        30.5910   31.4160   45.8580 C.3    37  LYS37       0.0035
      7  CD        31.2380   30.8540   44.6100 C.3    37  LYS37       0.0206
      8  CE        31.1890   31.8270   43.4290 C.3    37  LYS37       0.1093
      9  NZ        29.8290   32.0270   42.8390 N.3    37  LYS37      -0.1314
     10  N         25.7740   29.0900   47.5230 N.3    39  ILE39      -0.1245
     11  CA        24.9010   28.9090   46.3950 C.3    39  ILE39       0.1561
     12  C         23.5680   28.3780   46.8560 C.2    39  ILE39       0.2260
     13  O         23.4750   27.2580   47.3340 O.2    39  ILE39      -0.2867
     14  CB        25.5170   27.9660   45.3680 C.3    39  ILE39       0.0252
     15  CG1       26.7880   28.5790   44.8000 C.3    39  ILE39       0.0019
     16  CG2       24.5360   27.7040   44.2400 C.3    39  ILE39       0.0019
     17  CD1       27.8700   27.5660   44.5110 C.3    39  ILE39       0.0001
     18  N         32.9850   18.2380   44.6130 N.3    55  LEU55      -0.1245
     19  CA        33.7860   19.4170   44.9600 C.3    55  LEU55       0.1561
     20  C         35.0610   19.0890   45.7330 C.2    55  LEU55       0.2260
     21  O         35.9280   19.9460   45.9060 O.2    55  LEU55      -0.2867
     22  CB        32.9610   20.4050   45.7830 C.3    55  LEU55       0.0270
     23  CG        31.8930   21.2070   45.0530 C.3    55  LEU55       0.0019
     24  CD1       31.2300   22.1580   46.0300 C.3    55  LEU55       0.0001
     25  CD2       32.5110   21.9600   43.8960 C.3    55  LEU55       0.0001
     26  N         38.7500   19.4920   44.4700 N.3    58  LEU58      -0.1245
     27  CA        39.3670   20.7910   44.6810 C.3    58  LEU58       0.1561
     28  C         40.4680   20.7490   45.7520 C.2    58  LEU58       0.2260
     29  O         41.3110   21.6440   45.7940 O.2    58  LEU58      -0.2867
     30  CB        38.3100   21.8400   45.0450 C.3    58  LEU58       0.0270
     31  CG        37.3550   22.3260   43.9610 C.3    58  LEU58       0.0019
     32  CD1       36.3790   23.3260   44.5460 C.3    58  LEU58       0.0001
     33  CD2       38.1250   22.9400   42.7970 C.3    58  LEU58       0.0001
     34  N         43.5050   20.4590   43.8770 N.3    61  CYS61      -0.1235
     35  CA        43.7720   21.5450   42.9130 C.3    61  CYS61       0.1677
     36  C         44.7950   22.5780   43.3980 C.2    61  CYS61       0.2270
     37  O         44.4490   23.7500   43.6290 O.2    61  CYS61      -0.2867
     38  CB        42.4880   22.2650   42.5210 C.3    61  CYS61       0.0956
     39  SG        41.5830   21.4330   41.2380 S.3    61  CYS61      -0.0801
     40  N         42.9910   29.4990   42.6390 N.3    67  VAL67      -0.1231
     41  CA        42.5940   29.8360   44.0040 C.3    67  VAL67       0.1692
     42  C         42.6130   28.5990   44.8920 C.2    67  VAL67       0.2593
     43  O         42.2480   27.5160   44.4620 O.2    67  VAL67      -0.2718
     44  CB        41.2030   30.5300   44.0190 C.3    67  VAL67       0.0266
     45  CG1       40.7270   30.8570   45.4440 C.3    67  VAL67       0.0020
     46  CG2       41.2840   31.8090   43.1930 C.3    67  VAL67       0.0020
     47  N         43.0540   28.7690   46.1310 N.am   68  GLY68      -0.1942
     48  CA        43.0870   27.6760   47.0930 C.3    68  GLY68       0.2014
     49  C         41.7080   27.2720   47.5250 C.2    68  GLY68       0.2638
     50  O         40.8070   28.0910   47.5270 O.2    68  GLY68      -0.2714
     51  N         41.5540   25.9990   47.8780 N.am   69  PHE69      -0.1973
     52  CA        40.2960   25.4420   48.3580 C.3    69  PHE69       0.1639
     53  C         40.4900   24.9970   49.7920 C.2    69  PHE69       0.2290
     54  O         41.4840   24.3580   50.1120 O.2    69  PHE69      -0.2864
     55  CB        39.8920   24.2580   47.4670 C.3    69  PHE69       0.0560
     56  CG        38.6200   23.5330   47.8990 C.ar   69  PHE69      -0.0200
     57  CD1       37.3560   24.1190   47.7300 C.ar   69  PHE69      -0.0042
     58  CD2       38.6860   22.2350   48.4280 C.ar   69  PHE69      -0.0042
     59  CE1       36.1780   23.4280   48.1130 C.ar   69  PHE69      -0.0003
     60  CE2       37.5210   21.5410   48.7970 C.ar   69  PHE69      -0.0003
     61  CZ        36.2670   22.1400   48.6350 C.ar   69  PHE69      -0.0000
     62  N         31.2500   26.8750   49.4220 N.3    81  ILE81      -0.1245
     63  CA        32.6190   26.5900   49.0540 C.3    81  ILE81       0.1561
     64  C         33.4600   27.6350   49.7460 C.2    81  ILE81       0.2260
     65  O         33.2110   28.8370   49.6140 O.2    81  ILE81      -0.2867
     66  CB        32.8380   26.6410   47.5500 C.3    81  ILE81       0.0252
     67  CG1       31.8520   25.7120   46.8470 C.3    81  ILE81       0.0019
     68  CG2       34.2870   26.2880   47.2100 C.3    81  ILE81       0.0019
     69  CD1       31.5030   26.1610   45.4320 C.3    81  ILE81       0.0001
     70  N         37.0990   29.3080   50.1220 N.3    83  MET83      -0.1245
     71  CA        38.3480   29.5180   49.3900 C.3    83  MET83       0.1570
     72  C         39.3460   30.4370   50.1020 C.2    83  MET83       0.2261
     73  O         39.0110   31.1820   51.0580 O.2    83  MET83      -0.2867
     74  CB        38.0810   30.1590   48.0260 C.3    83  MET83       0.0387
     75  CG        36.9140   29.6610   47.2630 C.3    83  MET83       0.0595
     76  SD        36.2410   31.1010   46.4220 S.3    83  MET83      -0.1393
     77  CE        37.1200   31.0430   44.8640 C.3    83  MET83       0.0692
     78  N         37.5250   25.2290   32.0290 N.3   128  HIS128     -0.1226
     79  CA        37.0290   26.2180   32.9400 C.3   128  HIS128      0.1752
     80  C         35.5190   26.4220   32.8030 C.2   128  HIS128      0.2596
     81  O         34.7760   26.1260   33.7240 O.2   128  HIS128     -0.2718
     82  CB        37.7550   27.5240   32.7040 C.3   128  HIS128      0.0759
     83  CG        37.4920   28.5180   33.7750 C.ar  128  HIS128      0.0818
     84  ND1       38.4600   28.9080   34.6750 N.ar  128  HIS128     -0.2268
     85  CD2       36.3500   29.1520   34.1340 C.ar  128  HIS128      0.1154
     86  CE1       37.9300   29.7640   35.5310 C.ar  128  HIS128      0.1986
     87  NE2       36.6540   29.9350   35.2190 N.ar  128  HIS128     -0.2212
     88  N         35.0960   26.9250   31.6420 N.am  129  ARG129     -0.1966
     89  CA        33.6880   27.1520   31.2650 C.3   129  ARG129      0.1729
     90  C         33.1620   28.5450   31.5670 C.2   129  ARG129      0.2616
     91  O         32.0360   28.8280   31.2410 O.2   129  ARG129     -0.2715
     92  CB        32.7470   26.1340   31.9000 C.3   129  ARG129      0.0348
     93  CG        32.6450   24.8160   31.2300 C.3   129  ARG129      0.0492
     94  CD        31.5820   23.9850   31.9090 C.3   129  ARG129      0.2205
     95  NE        30.8400   23.1670   30.9480 N.pl3 129  ARG129     -0.0865
     96  CZ        31.1630   21.9160   30.5940 C.cat 129  ARG129      0.5346
     97  NH1       32.2210   21.2940   31.1220 N.pl3 129  ARG129      0.1354
     98  NH2       30.4110   21.2710   29.7070 N.pl3 129  ARG129      0.1354
     99  N         33.9500   29.3960   32.2170 N.am  130  ASP130     -0.1971
    100  CA        33.5140   30.7490   32.5750 C.3   130  ASP130      0.1709
    101  C         34.7230   31.6630   32.8440 C.2   130  ASP130      0.2293
    102  O         34.8820   32.2180   33.9410 O.2   130  ASP130     -0.2864
    103  CB        32.5730   30.7090   33.7930 C.3   130  ASP130      0.1436
    104  CG        31.4780   31.7950   33.7500 C.2   130  ASP130      0.3671
    105  OD1       31.1980   32.3370   32.6490 O.co2 130  ASP130     -0.2456
    106  OD2       30.8710   32.0900   34.8210 O.co2 130  ASP130     -0.2456
    107  N         39.3960   31.1450   39.6110 N.3   147  CYS147     -0.1221
    108  CA        38.4740   30.2910   40.3180 C.3   147  CYS147      0.1808
    109  C         37.1710   30.1890   39.5750 C.2   147  CYS147      0.2601
    110  O         37.0670   30.6320   38.4420 O.2   147  CYS147     -0.2717
    111  CB        38.2330   30.7760   41.7440 C.3   147  CYS147      0.0970
    112  SG        37.2860   32.2620   41.8300 S.3   147  CYS147     -0.0800
    113  N         36.1830   29.5740   40.2080 N.am  148  ASP148     -0.1959
    114  CA        34.8710   29.3710   39.5970 C.3   148  ASP148      0.1840
    115  C         34.8900   28.4830   38.3330 C.2   148  ASP148      0.2622
    116  O         33.9810   28.5550   37.5020 O.2   148  ASP148     -0.2715
    117  CB        34.1700   30.7130   39.3630 C.3   148  ASP148      0.1450
    118  CG        33.5270   31.2690   40.6330 C.2   148  ASP148      0.3671
    119  OD1       33.8250   30.7400   41.7440 O.co2 148  ASP148     -0.2456
    120  OD2       32.7120   32.2260   40.5260 O.co2 148  ASP148     -0.2456
    121  N         35.9060   27.6260   38.2070 N.am  149  PHE149     -0.1960
    122  CA        35.9570   26.6530   37.0970 C.3   149  PHE149      0.1771
    123  C         34.9960   25.4890   37.3430 C.2   149  PHE149      0.2620
    124  O         34.5900   25.2380   38.4810 O.2   149  PHE149     -0.2715
    125  CB        37.3950   26.1550   36.8390 C.3   149  PHE149      0.0574
    126  CG        38.1510   25.8520   38.0780 C.ar  149  PHE149     -0.0200
    127  CD1       38.8400   26.8620   38.7450 C.ar  149  PHE149     -0.0042
    128  CD2       38.1410   24.5880   38.6030 C.ar  149  PHE149     -0.0042
    129  CE1       39.5080   26.6170   39.9340 C.ar  149  PHE149     -0.0003
    130  CE2       38.8010   24.3250   39.7800 C.ar  149  PHE149     -0.0003
    131  CZ        39.4960   25.3370   40.4480 C.ar  149  PHE149     -0.0000
    132  N         34.6280   24.7820   36.2800 N.am  150  GLY150     -0.1940
    133  CA        33.6110   23.7420   36.4020 C.3   150  GLY150      0.2014
    134  C         34.1360   22.3820   36.8390 C.2   150  GLY150      0.2639
    135  O         34.2330   21.4740   35.9940 O.2   150  GLY150     -0.2714
    136  N         34.4660   22.2320   38.1350 N.am  151  VAL151     -0.1963
    137  CA        34.9300   20.9430   38.6830 C.3   151  VAL151      0.1727
    138  C         33.8420   19.9140   38.8310 C.2   151  VAL151      0.2616
    139  O         34.1290   18.7200   38.7640 O.2   151  VAL151     -0.2715
    140  CB        35.5420   21.0150   40.1270 C.3   151  VAL151      0.0290
    141  CG1       37.0480   21.0570   40.0930 C.3   151  VAL151      0.0023
    142  CG2       34.9370   22.1350   40.9620 C.3   151  VAL151      0.0023
    143  N         32.6190   20.3640   39.1090 N.am  152  SER152     -0.1950
    144  CA        31.5440   19.4520   39.4900 C.3   152  SER152      0.1924
    145  C         30.4990   19.3900   38.4130 C.2   152  SER152      0.2314
    146  O         29.7920   20.3650   38.1700 O.2   152  SER152     -0.2863
    147  CB        30.9090   19.8570   40.8300 C.3   152  SER152      0.2116
    148  OG        29.7030   19.1380   41.0790 O.3   152  SER152     -0.2180
    149  N         27.1050   20.1910   39.6430 N.3   155  LEU155     -0.1231
    150  CA        26.8820   21.5690   40.0630 C.3   155  LEU155      0.1693
    151  C         26.5540   22.3870   38.8420 C.2   155  LEU155      0.2591
    152  O         25.5620   23.1170   38.8300 O.2   155  LEU155     -0.2718
    153  CB        28.0840   22.1690   40.7870 C.3   155  LEU155      0.0284
    154  CG        27.7800   23.0810   41.9850 C.3   155  LEU155      0.0019
    155  CD1       28.9570   23.9770   42.2340 C.3   155  LEU155      0.0001
    156  CD2       26.5310   23.9240   41.8280 C.3   155  LEU155      0.0001
    157  N         27.3990   22.2550   37.8210 N.am  156  ILE156     -0.1980
    158  CA        27.1430   22.8200   36.5170 C.3   156  ILE156      0.1595
    159  C         25.6700   22.6310   36.1190 C.2   156  ILE156      0.2287
    160  O         24.9880   23.5980   35.7740 O.2   156  ILE156     -0.2864
    161  CB        28.0600   22.1820   35.4820 C.3   156  ILE156      0.0276
    162  CG1       29.4910   22.7120   35.6710 C.3   156  ILE156      0.0022
    163  CG2       27.5390   22.4380   34.0670 C.3   156  ILE156      0.0022
    164  CD1       30.5610   21.9330   34.9190 C.3   156  ILE156      0.0001
    165  N         22.9630   24.4400   38.3600 N.3   159  MET159     -0.1245
    166  CA        22.9790   25.8820   38.2170 C.3   159  MET159      0.1570
    167  C         22.5900   26.3280   36.8080 C.2   159  MET159      0.2261
    168  O         22.5390   27.5310   36.5430 O.2   159  MET159     -0.2867
    169  CB        24.3600   26.4360   38.5730 C.3   159  MET159      0.0387
    170  CG        24.6680   26.4860   40.0700 C.3   159  MET159      0.0595
    171  SD        26.3950   26.9410   40.2970 S.3   159  MET159     -0.1393
    172  CE        26.2870   28.7340   40.3130 C.3   159  MET159      0.0692
    173  N         22.6190   30.6100   33.3320 N.3   162  SER162     -0.1217
    174  CA        23.7940   31.4000   32.8280 C.3   162  SER162      0.1889
    175  C         23.7630   32.9570   32.9590 C.2   162  SER162      0.2288
    176  O         23.4150   33.4970   34.0180 O.2   162  SER162     -0.2866
    177  CB        24.2490   30.9580   31.4090 C.3   162  SER162      0.2089
    178  OG        25.1490   29.8610   31.4580 O.3   162  SER162     -0.2183
    179  N         30.8120   34.2380   26.1200 N.3   170  MET170     -0.1245
    180  CA        30.7100   32.9310   25.4920 C.3   170  MET170      0.1570
    181  C         31.1070   32.9870   24.0190 C.2   170  MET170      0.2261
    182  O         30.7040   33.9100   23.2780 O.2   170  MET170     -0.2867
    183  CB        29.3100   32.3710   25.6010 C.3   170  MET170      0.0387
    184  CG        29.0660   31.6060   26.8440 C.3   170  MET170      0.0595
    185  SD        27.3110   31.2910   27.0240 S.3   170  MET170     -0.1393
    186  CE        27.2470   31.0490   28.8170 C.3   170  MET170      0.0692
    187  N         29.8420   28.0260   21.4660 N.3   174  ARG174     -0.1245
    188  CA        29.0690   27.8120   22.6750 C.3   174  ARG174      0.1563
    189  C         27.6860   28.4780   22.6330 C.2   174  ARG174      0.2260
    190  O         26.7190   27.9120   23.1360 O.2   174  ARG174     -0.2867
    191  CB        29.8320   28.2410   23.9300 C.3   174  ARG174      0.0307
    192  CG        29.0730   27.8840   25.1780 C.3   174  ARG174      0.0489
    193  CD        29.9370   27.8380   26.3990 C.3   174  ARG174      0.2205
    194  NE        29.1200   27.6170   27.6050 N.pl3 174  ARG174     -0.0865
    195  CZ        29.5730   27.7300   28.8560 C.cat 174  ARG174      0.5346
    196  NH1       30.8430   28.0630   29.0880 N.pl3 174  ARG174      0.1354
    197  NH2       28.7560   27.5180   29.8780 N.pl3 174  ARG174      0.1354
@<TRIPOS>BOND
     1   187   188    1
     2   189   188    1
     3   189   190    2
     4   188   191    1
     5   182   181    2
     6   191   192    1
     7   181   180    1
     8   192   193    1
     9   180   183    1
    10   180   179    1
    11   183   184    1
    12   193   194    1
    13   184   185    1
    14   185   186    1
    15   194   195    2
    16   195   196    1
    17   195   197    1
    18    98    96    1
    19    96    95    2
    20    96    97    1
    21    95    94    1
    22    93    92    1
    23    93    94    1
    24    91    90    2
    25    89    90    1
    26    89    88    1
    27    89    92    1
    28   177   178    1
    29   177   174    1
    30    90    99   am
    31    88    80   am
    32    78    79    1
    33    99   100    1
    34   100   101    1
    35   100   103    1
    36   105   104   ar
    37    82    79    1
    38    82    83    1
    39    80    79    1
    40    80    81    2
    41   174   175    1
    42   174   173    1
    43   101   102    2
    44   175   176    2
    45   104   103    1
    46   104   106   ar
    47    83    85   ar
    48    83    84   ar
    49   163   161    1
    50    85    87   ar
    51    84    86   ar
    52   164   162    1
    53    87    86   ar
    54   161   162    1
    55   161   158    1
    56   160   159    2
    57   135   134    2
    58   159   158    1
    59   132   133    1
    60   132   123   am
    61   133   134    1
    62   158   157    1
    63   168   167    2
    64   167   166    1
    65   134   136   am
    66   125   122    1
    67   125   126    1
    68   122   123    1
    69   122   121    1
    70   123   124    2
    71   116   115    2
    72   157   151   am
    73   126   128   ar
    74   126   127   ar
    75   136   137    1
    76   146   145    2
    77   121   115   am
    78   166   165    1
    79   166   169    1
    80   115   114    1
    81   145   144    1
    82   110   109    2
    83   169   170    1
    84   128   130   ar
    85   137   138    1
    86   137   140    1
    87   127   129   ar
    88   139   138    2
    89   152   151    2
    90   138   143   am
    91   151   150    1
    92   143   144    1
    93   117   114    1
    94   117   118    1
    95   144   147    1
    96   109   113   am
    97   109   108    1
    98   114   113    1
    99   107   108    1
   100   149   150    1
   101   130   131   ar
   102   129   131   ar
   103   150   153    1
   104   170   171    1
   105   141   140    1
   106   140   142    1
   107   171   172    1
   108   108   111    1
   109   120   118   ar
   110   118   119   ar
   111   153   154    1
   112   147   148    1
   113    39    38    1
   114   111   112    1
   115   156   154    1
   116   154   155    1
   117    38    35    1
   118    40    41    1
   119    33    31    1
   120     9     8    1
   121    35    36    1
   122    35    34    1
   123    46    44    1
   124    36    37    2
   125     8     7    1
   126    25    23    1
   127    31    32    1
   128    31    30    1
   129    41    44    1
   130    41    42    1
   131    44    45    1
   132    16    14    1
   133    43    42    2
   134    26    27    1
   135    17    15    1
   136     7     6    1
   137    18    19    1
   138    27    30    1
   139    27    28    1
   140    15    14    1
   141    77    76    1
   142    42    47   am
   143    19    20    1
   144    19    22    1
   145    23    22    1
   146    23    24    1
   147    14    11    1
   148    69    67    1
   149    20    21    2
   150    28    29    2
   151     6     5    1
   152    47    48    1
   153    11    12    1
   154    11    10    1
   155    76    75    1
   156    67    66    1
   157    12    13    2
   158    48    49    1
   159     5     2    1
   160    68    66    1
   161    75    74    1
   162    55    56    1
   163    55    52    1
   164    49    50    2
   165    49    51   am
   166    66    63    1
   167    57    56   ar
   168    57    59   ar
   169    51    52    1
   170    56    58   ar
   171    74    71    1
   172    59    61   ar
   173    52    53    1
   174    58    60   ar
   175     2     3    1
   176     2     1    1
   177    61    60   ar
   178     3     4    2
   179    63    62    1
   180    63    64    1
   181    71    72    1
   182    71    70    1
   183    65    64    2
   184    53    54    2
   185    72    73    2
