@<TRIPOS>MOLECULE
tmp/4aroA01.pdb
 78 76 0 0 0
SMALL
GASTEIGER

@<TRIPOS>ATOM
      1  N         -9.3420    7.4880  -23.3970 N.3    38  GLU38      -0.1245
      2  CA        -9.0440    8.4760  -22.4140 C.3    38  GLU38       0.1567
      3  C        -10.2400    9.3640  -22.0840 C.2    38  GLU38       0.2260
      4  O        -10.9880    9.8150  -22.9630 O.2    38  GLU38      -0.2867
      5  CB        -7.9560    9.3640  -22.9990 C.3    38  GLU38       0.0388
      6  CG        -7.3790   10.2570  -22.0240 C.3    38  GLU38       0.1160
      7  CD        -6.1780   11.0240  -22.6570 C.2    38  GLU38       0.3649
      8  OE1       -6.0530   11.1170  -23.9030 O.co2  38  GLU38      -0.2457
      9  OE2       -5.3520   11.4140  -21.8530 O.co2  38  GLU38      -0.2457
     10  N        -11.9520   12.9250  -20.1510 N.3    40  PRO40      -0.2116
     11  CA       -11.5230   14.3290  -20.0560 C.3    40  PRO40       0.1372
     12  C        -11.2900   14.8020  -18.6370 C.2    40  PRO40       0.2244
     13  O        -10.8650   15.9570  -18.4570 O.2    40  PRO40      -0.2868
     14  CB       -12.7080   15.0460  -20.7390 C.3    40  PRO40       0.0268
     15  CG       -13.8850   14.1820  -20.4050 C.3    40  PRO40       0.0207
     16  CD       -13.3410   12.8020  -20.5400 C.3    40  PRO40       0.0892
     17  N        -18.0990   14.3180  -15.3280 N.3    47  THR47      -0.1204
     18  CA       -17.6480   15.1480  -16.4460 C.3    47  THR47       0.1979
     19  C        -18.5360   16.3880  -16.5820 C.2    47  THR47       0.2460
     20  O        -19.6580   16.4540  -16.0960 O.2    47  THR47      -0.2732
     21  CB       -17.7050   14.3510  -17.7730 C.3    47  THR47       0.1783
     22  OG1      -19.0810   14.0100  -18.0470 O.3    47  THR47      -0.2211
     23  CG2      -16.9210   13.0860  -17.7170 C.3    47  THR47       0.0376
     24  N        -18.0610   17.4020  -17.3270 N.am   48  PRO48      -0.2717
     25  CA       -18.9330   18.5410  -17.6010 C.3    48  PRO48       0.1535
     26  C        -20.2390   18.1310  -18.2610 C.2    48  PRO48       0.2598
     27  O        -21.3070   18.6360  -17.9100 O.2    48  PRO48      -0.2715
     28  CB       -18.0830   19.4520  -18.4690 C.3    48  PRO48       0.0310
     29  CG       -16.6970   19.1620  -17.9880 C.3    48  PRO48       0.0237
     30  CD       -16.6420   17.6900  -17.6580 C.3    48  PRO48       0.0939
     31  N        -20.1350   17.1880  -19.1750 N.am   49  ARG49      -0.1978
     32  CA       -21.3400   16.6340  -19.7980 C.3    49  ARG49       0.1597
     33  C        -22.2380   15.9560  -18.7840 C.2    49  ARG49       0.2287
     34  O        -23.4500   16.1200  -18.8210 O.2    49  ARG49      -0.2864
     35  CB       -20.9670   15.6300  -20.8760 C.3    49  ARG49       0.0334
     36  CG       -22.1430   14.8860  -21.5380 C.3    49  ARG49       0.0492
     37  CD       -21.6150   13.9760  -22.6260 C.3    49  ARG49       0.2205
     38  NE       -22.7080   13.1140  -23.1230 N.pl3  49  ARG49      -0.0865
     39  CZ       -23.2370   13.1430  -24.3290 C.cat  49  ARG49       0.5346
     40  NH1      -22.7370   13.8820  -25.3190 N.pl3  49  ARG49       0.1354
     41  NH2      -24.2320   12.3230  -24.5950 N.pl3  49  ARG49       0.1354
     42  N        -21.5970    9.3930  -22.1400 N.3   218  GLN218     -0.1231
     43  CA       -20.6470   10.5330  -22.3720 C.3   218  GLN218      0.1698
     44  C        -20.5300   10.9720  -23.8670 C.2   218  GLN218      0.2593
     45  O        -19.7980   11.9230  -24.2380 O.2   218  GLN218     -0.2718
     46  CB       -19.3050   10.1130  -21.7850 C.3   218  GLN218      0.0381
     47  CG       -18.2110   11.1250  -21.8930 C.3   218  GLN218      0.0905
     48  CD       -18.4170   12.3630  -21.0580 C.2   218  GLN218      0.2608
     49  OE1      -19.2920   12.4370  -20.1860 O.2   218  GLN218     -0.2717
     50  NE2      -17.6370   13.4310  -21.3890 N.am  218  GLN218     -0.0878
     51  N        -21.2080   10.1950  -24.7190 N.am  219  GLY219     -0.1942
     52  CA       -21.1330   10.4490  -26.1400 C.3   219  GLY219      0.2014
     53  C        -19.7440   10.2980  -26.6960 C.2   219  GLY219      0.2639
     54  O        -19.2870   11.0830  -27.5330 O.2   219  GLY219     -0.2714
     55  N        -18.9980    9.3140  -26.2010 N.am  220  MET220     -0.1963
     56  CA       -17.6510    9.1150  -26.7550 C.3   220  MET220      0.1722
     57  C        -17.7230    8.6260  -28.1810 C.2   220  MET220      0.2458
     58  O        -18.6500    7.9100  -28.5550 O.2   220  MET220     -0.2730
     59  CB       -16.9240    8.0790  -25.9010 C.3   220  MET220      0.0427
     60  CG       -16.5610    8.6200  -24.5790 C.3   220  MET220      0.0599
     61  SD       -15.2950    7.5530  -23.7720 S.3   220  MET220     -0.1393
     62  CE       -14.4280    8.7400  -22.7470 C.3   220  MET220      0.0692
     63  N        -16.7560    9.0270  -28.9960 N.am  221  PRO221     -0.2727
     64  CA       -16.7820    8.6180  -30.4040 C.3   221  PRO221      0.1402
     65  C        -16.6800    7.1210  -30.6450 C.2   221  PRO221      0.2269
     66  O        -17.2800    6.6110  -31.6110 O.2   221  PRO221     -0.2865
     67  CB       -15.5880    9.3320  -31.0100 C.3   221  PRO221      0.0296
     68  CG       -14.7830    9.9250  -29.9000 C.3   221  PRO221      0.0237
     69  CD       -15.6730    9.9850  -28.6700 C.3   221  PRO221      0.0939
     70  N        -28.4010   13.7890  -24.9840 N.3   353  GLN353     -0.1245
     71  CA       -28.6270   14.9410  -24.0780 C.3   353  GLN353      0.1566
     72  C        -30.0400   15.5470  -24.2680 C.2   353  GLN353      0.2260
     73  O        -30.2250   16.7670  -24.3930 O.2   353  GLN353     -0.2867
     74  CB       -27.5470   15.9760  -24.2440 C.3   353  GLN353      0.0367
     75  CG       -26.1640   15.3760  -24.1950 C.3   353  GLN353      0.0905
     76  CD       -25.0610   16.4380  -24.1730 C.2   353  GLN353      0.2608
     77  OE1      -24.4050   16.7630  -25.2250 O.2   353  GLN353     -0.2717
     78  NE2      -24.8920   17.0490  -23.0560 N.am  353  GLN353     -0.0878
@<TRIPOS>BOND
     1    66    65    2
     2    67    64    1
     3    67    68    1
     4    65    64    1
     5    64    63    1
     6    68    69    1
     7    63    69    1
     8    63    57   am
     9    58    57    2
    10    57    56    1
    11    54    53    2
    12    56    55    1
    13    56    59    1
    14    53    55   am
    15    53    52    1
    16    52    51    1
    17    59    60    1
    18    40    39    1
    19    77    76    2
    20    70    71    1
    21    51    44   am
    22    41    39    1
    23    60    61    1
    24    73    72    2
    25    39    38    2
    26    72    71    1
    27    74    75    1
    28    74    71    1
    29    45    44    2
    30    75    76    1
    31    76    78   am
    32     8     7   ar
    33    44    43    1
    34    61    62    1
    35     1     2    1
    36    38    37    1
    37     5     2    1
    38     5     6    1
    39     4     3    2
    40     7     6    1
    41     7     9   ar
    42    37    36    1
    43     2     3    1
    44    43    42    1
    45    43    46    1
    46    47    46    1
    47    47    48    1
    48    36    35    1
    49    50    48   am
    50    48    49    2
    51    35    32    1
    52    14    15    1
    53    14    11    1
    54    16    15    1
    55    16    10    1
    56    10    11    1
    57    11    12    1
    58    32    31    1
    59    32    33    1
    60    31    26   am
    61    34    33    2
    62    12    13    2
    63    28    29    1
    64    28    25    1
    65    26    27    2
    66    26    25    1
    67    22    21    1
    68    29    30    1
    69    21    23    1
    70    21    18    1
    71    30    24    1
    72    25    24    1
    73    24    19   am
    74    19    18    1
    75    19    20    2
    76    18    17    1
