@<TRIPOS>MOLECULE
tmp/4aroA00.pdb
 172 164 0 0 0
SMALL
GASTEIGER

@<TRIPOS>ATOM
      1  N        -28.4460    8.9180   -7.8090 N.3    15  ARG15      -0.1231
      2  CA       -27.0440    8.6490   -8.1630 C.3    15  ARG15       0.1694
      3  C        -26.4500    9.8950   -8.7920 C.2    15  ARG15       0.2592
      4  O        -27.1010   10.6520   -9.4320 O.2    15  ARG15      -0.2718
      5  CB       -26.9110    7.4600   -9.0690 C.3    15  ARG15       0.0321
      6  CG       -25.5180    6.9590   -9.3240 C.3    15  ARG15       0.0489
      7  CD       -25.4620    5.7120  -10.1470 C.3    15  ARG15       0.2205
      8  NE       -24.0540    5.3500  -10.3840 N.pl3  15  ARG15      -0.0865
      9  CZ       -23.6340    4.7180  -11.4660 C.cat  15  ARG15       0.5346
     10  NH1      -24.4920    4.2360  -12.3800 N.pl3  15  ARG15       0.1354
     11  NH2      -22.3680    4.5160  -11.6480 N.pl3  15  ARG15       0.1354
     12  N        -25.1320    9.9990   -8.6100 N.am   16  HIS16      -0.1976
     13  CA       -24.3360   11.0330   -9.2890 C.3    16  HIS16       0.1656
     14  C        -24.4510   10.8320  -10.8190 C.2    16  HIS16       0.2291
     15  O        -24.8930    9.7840  -11.3370 O.2    16  HIS16      -0.2864
     16  CB       -22.8630   10.8690   -8.8950 C.3    16  HIS16       0.0771
     17  CG       -22.3080    9.5650   -9.3160 C.ar   16  HIS16       0.0820
     18  ND1      -21.9510    9.2850  -10.6230 N.ar   16  HIS16      -0.2267
     19  CD2      -22.1460    8.4190   -8.6370 C.ar   16  HIS16       0.1154
     20  CE1      -21.5900    8.0220  -10.7190 C.ar   16  HIS16       0.1986
     21  NE2      -21.7310    7.4690   -9.5360 N.ar   16  HIS16      -0.2212
     22  N        -19.6850    9.8030  -15.0880 N.3    19  ARG19      -0.1245
     23  CA       -18.3410    9.9400  -14.5010 C.3    19  ARG19       0.1563
     24  C        -17.3420    9.1040  -15.3250 C.2    19  ARG19       0.2260
     25  O        -17.6940    8.1100  -15.9980 O.2    19  ARG19      -0.2867
     26  CB       -18.3280    9.4450  -13.0700 C.3    19  ARG19       0.0307
     27  CG       -18.6980    7.9730  -12.9130 C.3    19  ARG19       0.0489
     28  CD       -18.2070    7.3980  -11.5980 C.3    19  ARG19       0.2205
     29  NE       -18.6500    6.0340  -11.3520 N.pl3  19  ARG19      -0.0865
     30  CZ       -18.1360    4.9610  -11.9120 C.cat  19  ARG19       0.5346
     31  NH1      -17.1440    5.0570  -12.8200 N.pl3  19  ARG19       0.1354
     32  NH2      -18.6140    3.7420  -11.6180 N.pl3  19  ARG19       0.1354
     33  N        -13.7970    4.7170  -12.0290 N.3    22  THR22      -0.1203
     34  CA       -13.2410    4.9790  -10.7550 C.3    22  THR22       0.1994
     35  C        -11.8640    4.3930  -10.5450 C.2    22  THR22       0.2617
     36  O        -11.0790    4.8130   -9.6990 O.2    22  THR22      -0.2717
     37  CB       -14.1890    4.4810   -9.6290 C.3    22  THR22       0.1784
     38  OG1      -14.5370    3.1310   -9.9590 O.3    22  THR22      -0.2211
     39  CG2      -15.4000    5.3240   -9.5520 C.3    22  THR22       0.0376
     40  N        -11.5170    3.3930  -11.3470 N.am   23  LYS23      -0.1979
     41  CA       -10.2540    2.7410  -11.3340 C.3    23  LYS23       0.1596
     42  C         -9.9450    2.2180  -12.7520 C.2    23  LYS23       0.2287
     43  O        -10.8400    2.0310  -13.5360 O.2    23  LYS23      -0.2864
     44  CB       -10.2660    1.5160  -10.3630 C.3    23  LYS23       0.0298
     45  CG       -11.3080    0.4560  -10.7330 C.3    23  LYS23       0.0038
     46  CD       -11.4290   -0.6550   -9.6650 C.3    23  LYS23       0.0206
     47  CE       -12.2570   -1.8420  -10.1420 C.3    23  LYS23       0.1093
     48  NZ       -12.6460   -2.7120   -9.0210 N.3    23  LYS23      -0.1314
     49  N        -17.6150   12.9140   -2.2410 N.3    87  ASP87      -0.1239
     50  CA       -16.8990   12.7950   -3.5210 C.3    87  ASP87       0.1674
     51  C        -17.1410   13.9800   -4.4280 C.2    87  ASP87       0.2266
     52  O        -18.1960   14.6010   -4.4000 O.2    87  ASP87      -0.2867
     53  CB       -17.3850   11.5410   -4.2670 C.3    87  ASP87       0.1410
     54  CG       -16.9690   10.2870   -3.5910 C.2    87  ASP87       0.3668
     55  OD1      -16.0210   10.2870   -2.7630 O.co2  87  ASP87      -0.2456
     56  OD2      -17.5080    9.2240   -3.9950 O.co2  87  ASP87      -0.2456
     57  N        -17.8350   13.6860   -7.4760 N.3    89  ARG89      -0.1245
     58  CA       -18.9090   13.3590   -8.3770 C.3    89  ARG89       0.1563
     59  C        -20.3000   13.6340   -7.7840 C.2    89  ARG89       0.2260
     60  O        -21.2310   14.0270   -8.4800 O.2    89  ARG89      -0.2867
     61  CB       -18.8320   11.9770   -8.9410 C.3    89  ARG89       0.0307
     62  CG       -18.8460   10.8170   -7.9340 C.3    89  ARG89       0.0489
     63  CD       -18.7030    9.5170   -8.7060 C.3    89  ARG89       0.2205
     64  NE       -18.6040    8.2930   -7.8840 N.pl3  89  ARG89      -0.0865
     65  CZ       -17.4820    7.8780   -7.3190 C.cat  89  ARG89       0.5346
     66  NH1      -16.2960    8.5500   -7.5200 N.pl3  89  ARG89       0.1354
     67  NH2      -17.4540    6.7800   -6.5820 N.pl3  89  ARG89       0.1354
     68  N        -21.9690    5.3550    3.7780 N.3   123  HIS123     -0.1241
     69  CA       -21.0900    4.2070    3.9020 C.3   123  HIS123      0.1621
     70  C        -20.8600    3.8850    5.3930 C.2   123  HIS123      0.2264
     71  O        -19.7770    4.0370    5.9050 O.2   123  HIS123     -0.2867
     72  CB       -19.7380    4.5040    3.2470 C.3   123  HIS123      0.0745
     73  CG       -19.8660    4.9870    1.8350 C.ar  123  HIS123      0.0817
     74  ND1      -19.7100    6.3110    1.4950 N.ar  123  HIS123     -0.2268
     75  CD2      -20.1480    4.3290    0.6900 C.ar  123  HIS123      0.1154
     76  CE1      -19.8990    6.4500    0.1990 C.ar  123  HIS123      0.1986
     77  NE2      -20.1810    5.2640   -0.3070 N.ar  123  HIS123     -0.2212
     78  N        -18.1020    1.1130    6.1550 N.3   126  LYS126     -0.1245
     79  CA       -16.7920    1.6960    5.9120 C.3   126  LYS126      0.1561
     80  C        -16.4220    2.7770    6.9590 C.2   126  LYS126      0.2260
     81  O        -15.2800    2.8320    7.4430 O.2   126  LYS126     -0.2867
     82  CB       -16.7450    2.2720    4.4830 C.3   126  LYS126      0.0271
     83  CG       -15.3800    2.6940    3.9830 C.3   126  LYS126      0.0035
     84  CD       -15.5570    3.2220    2.5650 C.3   126  LYS126      0.0206
     85  CE       -14.2460    3.6750    1.9400 C.3   126  LYS126      0.1093
     86  NZ       -13.7470    4.9590    2.5250 N.3   126  LYS126     -0.1314
     87  N        -15.4800   -5.8020    4.4280 N.3   195  LYS195     -0.1245
     88  CA       -15.1540   -5.6280    2.9870 C.3   195  LYS195      0.1561
     89  C        -15.6890   -6.8760    2.2650 C.2   195  LYS195      0.2260
     90  O        -15.3600   -8.0210    2.6320 O.2   195  LYS195     -0.2867
     91  CB       -13.6390   -5.4530    2.7970 C.3   195  LYS195      0.0271
     92  CG       -13.2000   -5.3240    1.3620 C.3   195  LYS195      0.0035
     93  CD       -13.7500   -4.0620    0.6810 C.3   195  LYS195      0.0206
     94  CE       -13.3150   -3.9890   -0.7830 C.3   195  LYS195      0.1093
     95  NZ       -12.9230   -5.3390   -1.3230 N.3   195  LYS195     -0.1314
     96  N        -18.0840   -4.3980  -13.7130 N.3   207  THR207     -0.1218
     97  CA       -17.3870   -3.1440  -13.7790 C.3   207  THR207      0.1862
     98  C        -17.2370   -2.6620  -15.2070 C.2   207  THR207      0.2287
     99  O        -17.4990   -1.4740  -15.5820 O.2   207  THR207     -0.2866
    100  CB       -16.0210   -3.3170  -13.1430 C.3   207  THR207      0.1770
    101  OG1      -16.1710   -3.6930  -11.7700 O.3   207  THR207     -0.2211
    102  CG2      -15.1890   -2.0430  -13.2600 C.3   207  THR207      0.0375
    103  N        -20.4900   -1.4460  -16.9880 N.3   210  GLU210     -0.1231
    104  CA       -20.8760   -0.1290  -16.4770 C.3   210  GLU210      0.1699
    105  C        -19.9960    0.9460  -17.1520 C.2   210  GLU210      0.2592
    106  O        -20.4980    1.9840  -17.5140 O.2   210  GLU210     -0.2718
    107  CB       -20.7790   -0.0150  -14.9490 C.3   210  GLU210      0.0402
    108  CG       -21.0350    1.3560  -14.3600 C.3   210  GLU210      0.1161
    109  CD       -22.4500    1.7990  -14.4550 C.2   210  GLU210      0.3649
    110  OE1      -23.3780    0.9430  -14.8510 O.co2 210  GLU210     -0.2457
    111  OE2      -22.6970    3.0110  -14.1530 O.co2 210  GLU210     -0.2457
    112  N        -18.7090    0.6630  -17.2960 N.am  211  ILE211     -0.1980
    113  CA       -17.8220    1.5950  -18.0020 C.3   211  ILE211      0.1595
    114  C        -18.3060    1.7980  -19.4390 C.2   211  ILE211      0.2287
    115  O        -18.3200    2.9210  -19.9410 O.2   211  ILE211     -0.2864
    116  CB       -16.3370    1.1470  -17.9530 C.3   211  ILE211      0.0276
    117  CG1      -15.8180    1.2850  -16.5140 C.3   211  ILE211      0.0022
    118  CG2      -15.5440    1.9320  -18.9870 C.3   211  ILE211      0.0022
    119  CD1      -14.4500    0.7150  -16.2630 C.3   211  ILE211      0.0001
    120  N        -23.8890   -6.5260  -14.4080 N.3   241  HIS241     -0.1241
    121  CA       -23.8100   -5.4000  -13.4530 C.3   241  HIS241      0.1621
    122  C        -24.9690   -5.4240  -12.4880 C.2   241  HIS241      0.2264
    123  O        -24.8080   -5.3400  -11.2490 O.2   241  HIS241     -0.2867
    124  CB       -23.6620   -4.0650  -14.2300 C.3   241  HIS241      0.0745
    125  CG       -23.4430   -2.8830  -13.3360 C.ar  241  HIS241      0.0817
    126  ND1      -24.4110   -1.9440  -13.0530 N.ar  241  HIS241     -0.2268
    127  CD2      -22.3470   -2.5060  -12.6540 C.ar  241  HIS241      0.1154
    128  CE1      -23.8950   -1.0370  -12.2400 C.ar  241  HIS241      0.1986
    129  NE2      -22.6650   -1.3920  -11.9530 N.ar  241  HIS241     -0.2212
    130  N        -24.4520   -8.3330  -10.0550 N.3   244  GLN244     -0.1231
    131  CA       -23.4800   -8.0870   -9.0120 C.3   244  GLN244      0.1698
    132  C        -24.0750   -7.1710   -7.8940 C.2   244  GLN244      0.2592
    133  O        -23.8470   -7.3990   -6.6970 O.2   244  GLN244     -0.2718
    134  CB       -22.2380   -7.4490   -9.6080 C.3   244  GLN244      0.0381
    135  CG       -21.1580   -7.0940   -8.6140 C.3   244  GLN244      0.0905
    136  CD       -20.9190   -5.6170   -8.5120 C.2   244  GLN244      0.2608
    137  OE1      -20.8090   -4.9010   -9.5200 O.2   244  GLN244     -0.2717
    138  NE2      -20.8100   -5.1510   -7.3250 N.am  244  GLN244     -0.0878
    139  N        -24.8370   -6.1550   -8.3120 N.am  245  PHE245     -0.1976
    140  CA       -25.5130   -5.3230   -7.3440 C.3   245  PHE245      0.1639
    141  C        -26.6300   -6.0090   -6.5970 C.2   245  PHE245      0.2290
    142  O        -26.8280   -5.7350   -5.4120 O.2   245  PHE245     -0.2864
    143  CB       -25.9820   -4.0520   -8.0520 C.3   245  PHE245      0.0560
    144  CG       -24.9300   -3.0010   -8.0590 C.ar  245  PHE245     -0.0200
    145  CD1      -23.8140   -3.1010   -8.8670 C.ar  245  PHE245     -0.0042
    146  CD2      -25.0050   -1.9530   -7.1550 C.ar  245  PHE245     -0.0042
    147  CE1      -22.7900   -2.1360   -8.7880 C.ar  245  PHE245     -0.0003
    148  CE2      -24.0120   -0.9980   -7.0880 C.ar  245  PHE245     -0.0003
    149  CZ       -22.8930   -1.0900   -7.8690 C.ar  245  PHE245     -0.0000
    150  N        -24.8780    7.1640   -4.5280 N.3   294  HIS294     -0.1226
    151  CA       -24.2780    6.1360   -5.3540 C.3   294  HIS294      0.1752
    152  C        -25.2330    5.0460   -5.7450 C.2   294  HIS294      0.2596
    153  O        -26.2680    4.8610   -5.0900 O.2   294  HIS294     -0.2718
    154  CB       -23.1010    5.5050   -4.5950 C.3   294  HIS294      0.0759
    155  CG       -22.0970    6.5020   -4.1030 C.ar  294  HIS294      0.0818
    156  ND1      -21.0290    6.9670   -4.8770 N.ar  294  HIS294     -0.2268
    157  CD2      -22.0730    7.2300   -2.9540 C.ar  294  HIS294      0.1154
    158  CE1      -20.3820    7.9130   -4.1880 C.ar  294  HIS294      0.1986
    159  NE2      -21.0050    8.0940   -3.0430 N.ar  294  HIS294     -0.2212
    160  N        -24.8450    4.2540   -6.7340 N.am  295  ASP295     -0.1960
    161  CA       -25.7080    3.1580   -7.1260 C.3   295  ASP295      0.1840
    162  C        -25.9040    2.1770   -5.9310 C.2   295  ASP295      0.2621
    163  O        -26.9660    1.6440   -5.7850 O.2   295  ASP295     -0.2715
    164  CB       -25.2570    2.4570   -8.4150 C.3   295  ASP295      0.1450
    165  CG       -23.8170    2.1820   -8.4960 C.2   295  ASP295      0.3671
    166  OD1      -23.0410    2.0890   -7.4950 O.co2 295  ASP295     -0.2456
    167  OD2      -23.3760    2.0410   -9.7360 O.co2 295  ASP295     -0.2456
    168  N        -24.8900    1.9400   -5.1300 N.am  296  ALA296     -0.1977
    169  CA       -25.0250    1.0090   -3.9990 C.3   296  ALA296      0.1597
    170  C        -26.0710    1.4680   -3.0060 C.2   296  ALA296      0.2287
    171  O        -26.7600    0.6480   -2.3420 O.2   296  ALA296     -0.2864
    172  CB       -23.6920    0.7820   -3.2300 C.3   296  ALA296      0.0319
@<TRIPOS>BOND
     1   115   114    2
     2   114   113    1
     3   118   116    1
     4   113   116    1
     5   113   112    1
     6   116   117    1
     7   106   105    2
     8   112   105   am
     9   105   104    1
    10   103   104    1
    11   117   119    1
    12   104   107    1
    13    25    24    2
    14    99    98    2
    15    24    23    1
    16    98    97    1
    17    22    23    1
    18   107   108    1
    19   110   109   ar
    20    23    26    1
    21   109   108    1
    22   109   111   ar
    23   120   121    1
    24   124   121    1
    25   124   125    1
    26    97    96    1
    27    97   100    1
    28    43    42    2
    29   121   122    1
    30   125   126   ar
    31   125   127   ar
    32   102   100    1
    33   100   101    1
    34    26    27    1
    35   126   128   ar
    36    27    28    1
    37    31    30    1
    38    42    41    1
    39   127   129   ar
    40   122   123    2
    41    10     9    1
    42   128   129   ar
    43    33    34    1
    44    30    32    1
    45    30    29    2
    46    11     9    1
    47    28    29    1
    48     9     8    2
    49    40    41    1
    50    40    35   am
    51    15    14    2
    52    41    44    1
    53    14    13    1
    54    34    35    1
    55    34    37    1
    56    45    44    1
    57    45    46    1
    58    20    18   ar
    59    20    21   ar
    60    18    17   ar
    61    35    36    2
    62     8     7    1
    63     7     6    1
    64    47    46    1
    65    47    48    1
    66   130   131    1
    67    38    37    1
    68   167   165   ar
    69    37    39    1
    70   134   131    1
    71   134   135    1
    72    21    19   ar
    73   137   136    2
    74     4     3    2
    75     6     5    1
    76    17    16    1
    77    17    19   ar
    78    13    16    1
    79    13    12    1
    80     5     2    1
    81   131   132    1
    82    61    58    1
    83    61    62    1
    84   145   147   ar
    85   145   144   ar
    86     3    12   am
    87     3     2    1
    88   147   149   ar
    89    63    62    1
    90    63    64    1
    91   135   136    1
    92   136   138   am
    93   165   164    1
    94   165   166   ar
    95    60    59    2
    96   164   161    1
    97    58    59    1
    98    58    57    1
    99   139   132   am
   100   139   140    1
   101     2     1    1
   102   144   143    1
   103   144   146   ar
   104   143   140    1
   105   132   133    2
   106    64    65    2
   107   149   148   ar
   108    66    65    1
   109   140   141    1
   110    65    67    1
   111   146   148   ar
   112   161   160    1
   113   161   162    1
   114   160   152   am
   115   141   142    2
   116   162   163    2
   117   162   168   am
   118   152   151    1
   119   152   153    2
   120   151   154    1
   121   151   150    1
   122   168   169    1
   123   156   158   ar
   124   156   155   ar
   125   154   155    1
   126    51    52    2
   127    51    50    1
   128    53    54    1
   129    53    50    1
   130   158   159   ar
   131   155   157   ar
   132   169   172    1
   133   169   170    1
   134    56    54   ar
   135    54    55   ar
   136    50    49    1
   137   159   157   ar
   138   170   171    2
   139    95    94    1
   140    94    93    1
   141    77    76   ar
   142    77    75   ar
   143    76    74   ar
   144    93    92    1
   145    75    73   ar
   146    92    91    1
   147    74    73   ar
   148    73    72    1
   149    85    86    1
   150    85    84    1
   151    89    90    2
   152    89    88    1
   153    84    83    1
   154    91    88    1
   155    88    87    1
   156    72    69    1
   157    68    69    1
   158    69    70    1
   159    83    82    1
   160    82    79    1
   161    70    71    2
   162    79    78    1
   163    79    80    1
   164    80    81    2
