@<TRIPOS>MOLECULE
tmp/4arrA02.pdb
 110 104 0 0 0
SMALL
GASTEIGER

@<TRIPOS>ATOM
      1  N        -46.0950    5.2590    8.0920 N.3    74  ARG74      -0.1245
      2  CA       -45.7630    3.8360    8.1210 C.3    74  ARG74       0.1563
      3  C        -46.8570    2.9810    7.4630 C.2    74  ARG74       0.2260
      4  O        -48.0430    3.1930    7.7150 O.2    74  ARG74      -0.2867
      5  CB       -45.5420    3.3970    9.5820 C.3    74  ARG74       0.0307
      6  CG       -44.7850    2.0850    9.7500 C.3    74  ARG74       0.0489
      7  CD       -43.9270    2.0480   11.0100 C.3    74  ARG74       0.2205
      8  NE       -44.7070    1.7530   12.2160 N.pl3  74  ARG74      -0.0865
      9  CZ       -44.8790    2.5970   13.2320 C.cat  74  ARG74       0.5346
     10  NH1      -44.3230    3.8040   13.2050 N.pl3  74  ARG74       0.1354
     11  NH2      -45.6020    2.2380   14.2850 N.pl3  74  ARG74       0.1354
     12  N        -42.2290    4.8240    5.4460 N.3   102  THR102     -0.1218
     13  CA       -41.8990    3.4540    5.8450 C.3   102  THR102      0.1862
     14  C        -42.8450    2.4340    5.1960 C.2   102  THR102      0.2287
     15  O        -44.0500    2.6770    5.0960 O.2   102  THR102     -0.2866
     16  CB       -41.9650    3.3500    7.3850 C.3   102  THR102      0.1770
     17  OG1      -41.1780    4.3870    7.9710 O.3   102  THR102     -0.2211
     18  CG2      -41.5080    2.0050    7.9130 C.3   102  THR102      0.0375
     19  N        -43.2250   -1.9300    5.4510 N.3   104  ILE104     -0.1245
     20  CA       -42.8420   -3.2200    6.0130 C.3   104  ILE104      0.1561
     21  C        -43.6350   -4.2870    5.2670 C.2   104  ILE104      0.2260
     22  O        -44.8600   -4.3300    5.3720 O.2   104  ILE104     -0.2867
     23  CB       -43.0480   -3.2740    7.5540 C.3   104  ILE104      0.0252
     24  CG1      -42.1360   -2.2690    8.2810 C.3   104  ILE104      0.0019
     25  CG2      -42.8450   -4.6890    8.1040 C.3   104  ILE104      0.0019
     26  CD1      -42.8480   -1.3520    9.2270 C.3   104  ILE104      0.0001
     27  N        -37.6240    4.1310    4.9090 N.3   127  ARG127     -0.1231
     28  CA       -37.4400    2.8610    5.6110 C.3   127  ARG127      0.1694
     29  C        -38.1390    1.7240    4.8630 C.2   127  ARG127      0.2592
     30  O        -39.2920    1.8710    4.4500 O.2   127  ARG127     -0.2718
     31  CB       -37.9680    2.9630    7.0520 C.3   127  ARG127      0.0321
     32  CG       -37.2920    4.0440    7.8810 C.3   127  ARG127      0.0489
     33  CD       -38.0230    4.3220    9.1700 C.3   127  ARG127      0.2205
     34  NE       -37.3340    5.3410    9.9610 N.pl3 127  ARG127     -0.0865
     35  CZ       -36.5220    5.0740   10.9770 C.cat 127  ARG127      0.5346
     36  NH1      -36.2940    3.8180   11.3420 N.pl3 127  ARG127      0.1354
     37  NH2      -35.9340    6.0600   11.6400 N.pl3 127  ARG127      0.1354
     38  N        -37.4370    0.5970    4.6800 N.am  128  PHE128     -0.1962
     39  CA       -37.9860   -0.5740    4.0030 C.3   128  PHE128      0.1771
     40  C        -37.5380   -1.8470    4.6880 C.2   128  PHE128      0.2619
     41  O        -36.3390   -2.0950    4.8280 O.2   128  PHE128     -0.2715
     42  CB       -37.6130   -0.6010    2.5090 C.3   128  PHE128      0.0574
     43  CG       -38.1490   -1.7920    1.7440 C.ar  128  PHE128     -0.0200
     44  CD1      -39.5140   -1.9380    1.5150 C.ar  128  PHE128     -0.0042
     45  CD2      -37.2880   -2.7550    1.2320 C.ar  128  PHE128     -0.0042
     46  CE1      -40.0080   -3.0390    0.8090 C.ar  128  PHE128     -0.0003
     47  CE2      -37.7840   -3.8520    0.5210 C.ar  128  PHE128     -0.0003
     48  CZ       -39.1400   -3.9870    0.3160 C.ar  128  PHE128     -0.0000
     49  N        -38.5180   -2.6480    5.1230 N.am  129  ARG129     -0.1977
     50  CA       -38.3070   -3.9320    5.7840 C.3   129  ARG129      0.1597
     51  C        -39.0420   -5.0040    4.9980 C.2   129  ARG129      0.2287
     52  O        -40.2580   -4.9200    4.8340 O.2   129  ARG129     -0.2864
     53  CB       -38.7760   -3.8740    7.2490 C.3   129  ARG129      0.0334
     54  CG       -38.5890   -5.1730    8.0390 C.3   129  ARG129      0.0492
     55  CD       -38.3720   -4.9270    9.5280 C.3   129  ARG129      0.2205
     56  NE       -39.5760   -4.4710   10.2260 N.pl3 129  ARG129     -0.0865
     57  CZ       -40.4990   -5.2790   10.7430 C.cat 129  ARG129      0.5346
     58  NH1      -40.3790   -6.5980   10.6270 N.pl3 129  ARG129      0.1354
     59  NH2      -41.5580   -4.7750   11.3630 N.pl3 129  ARG129      0.1354
     60  N        -32.9670    3.3900    5.8570 N.3   151  HIS151     -0.1226
     61  CA       -33.0510    2.1700    6.6540 C.3   151  HIS151      0.1752
     62  C        -33.4700    1.0000    5.7860 C.2   151  HIS151      0.2596
     63  O        -34.4640    1.0980    5.0650 O.2   151  HIS151     -0.2718
     64  CB       -34.0420    2.3430    7.8140 C.3   151  HIS151      0.0759
     65  CG       -33.6200    3.3390    8.8460 C.ar  151  HIS151      0.0818
     66  ND1      -33.6090    4.6970    8.5790 N.ar  151  HIS151     -0.2268
     67  CD2      -33.2690    3.1440   10.1380 C.ar  151  HIS151      0.1154
     68  CE1      -33.2180    5.2780    9.7000 C.ar  151  HIS151      0.1986
     69  NE2      -33.0020    4.3840   10.6660 N.ar  151  HIS151     -0.2212
     70  N        -32.7190   -0.1080    5.8500 N.am  152  LEU152     -0.1966
     71  CA       -33.0490   -1.3040    5.0830 C.3   152  LEU152      0.1728
     72  C        -32.8820   -2.5610    5.9170 C.2   152  LEU152      0.2616
     73  O        -31.8080   -2.8100    6.4620 O.2   152  LEU152     -0.2715
     74  CB       -32.2150   -1.4120    3.7890 C.3   152  LEU152      0.0311
     75  CG       -32.3810   -2.7130    2.9820 C.3   152  LEU152      0.0022
     76  CD1      -33.6490   -2.6960    2.1480 C.3   152  LEU152      0.0001
     77  CD2      -31.1830   -2.9660    2.1140 C.3   152  LEU152      0.0001
     78  N        -33.9460   -3.3630    5.9810 N.am  153  GLU153     -0.1977
     79  CA       -33.9380   -4.6470    6.6650 C.3   153  GLU153      0.1602
     80  C        -34.4170   -5.7210    5.6990 C.2   153  GLU153      0.2287
     81  O        -35.4710   -5.5700    5.0790 O.2   153  GLU153     -0.2864
     82  CB       -34.7840   -4.6230    7.9490 C.3   153  GLU153      0.0415
     83  CG       -34.6330   -5.8890    8.7790 C.3   153  GLU153      0.1163
     84  CD       -35.1310   -5.8410   10.2090 C.2   153  GLU153      0.3649
     85  OE1      -35.0710   -4.7600   10.8410 O.co2 153  GLU153     -0.2457
     86  OE2      -35.5860   -6.8980   10.6990 O.co2 153  GLU153     -0.2457
     87  N        -28.8410    2.8460    8.1400 N.3   174  SER174     -0.1217
     88  CA       -28.9300    1.5870    8.8740 C.3   174  SER174      0.1889
     89  C        -29.2310    0.4120    7.9440 C.2   174  SER174      0.2288
     90  O        -30.1060    0.5110    7.0820 O.2   174  SER174     -0.2866
     91  CB       -29.9920    1.6830    9.9650 C.3   174  SER174      0.2089
     92  OG       -29.9660    0.5550   10.8230 O.3   174  SER174     -0.2183
     93  N        -29.8960   -3.8450    8.2490 N.3   176  GLU176     -0.1245
     94  CA       -30.1190   -5.0310    9.0680 C.3   176  GLU176      0.1567
     95  C        -30.2150   -6.2480    8.1550 C.2   176  GLU176      0.2260
     96  O        -31.1810   -6.3910    7.4000 O.2   176  GLU176     -0.2867
     97  CB       -31.3660   -4.8950    9.9590 C.3   176  GLU176      0.0388
     98  CG       -31.2870   -3.8020   11.0140 C.3   176  GLU176      0.1160
     99  CD       -30.4890   -4.0860   12.2710 C.2   176  GLU176      0.3649
    100  OE1      -30.6590   -5.1800   12.8570 O.co2 176  GLU176     -0.2457
    101  OE2      -29.7270   -3.1870   12.6980 O.co2 176  GLU176     -0.2457
    102  N        -25.2540    2.2600   11.3320 N.3   198  GLN198     -0.1245
    103  CA       -25.5010    0.9260   11.8830 C.3   198  GLN198      0.1566
    104  C        -25.4760   -0.1530   10.7940 C.2   198  GLN198      0.2260
    105  O        -26.0710    0.0190    9.7280 O.2   198  GLN198     -0.2867
    106  CB       -26.8390    0.8880   12.6440 C.3   198  GLN198      0.0367
    107  CG       -26.8230    1.7040   13.9390 C.3   198  GLN198      0.0905
    108  CD       -28.0630    1.5590   14.7940 C.2   198  GLN198      0.2608
    109  OE1      -28.8440    0.6070   14.6750 O.2   198  GLN198     -0.2717
    110  NE2      -28.2450    2.4940   15.7150 N.am  198  GLN198     -0.0878
@<TRIPOS>BOND
     1    48    47   ar
     2    48    46   ar
     3    47    45   ar
     4    46    44   ar
     5    45    43   ar
     6    44    43   ar
     7    43    42    1
     8    77    75    1
     9    76    75    1
    10    42    39    1
    11    75    74    1
    12    74    71    1
    13    39    38    1
    14    39    40    1
    15    30    29    2
    16    38    29   am
    17    40    41    2
    18    40    49   am
    19    52    51    2
    20    29    28    1
    21    27    28    1
    22    51    50    1
    23    63    62    2
    24    81    80    2
    25    71    70    1
    26    71    72    1
    27    15    14    2
    28    49    50    1
    29    14    13    1
    30    21    22    2
    31    21    20    1
    32    12    13    1
    33    19    20    1
    34    28    31    1
    35    80    79    1
    36    50    53    1
    37    62    70   am
    38    62    61    1
    39    13    16    1
    40    60    61    1
    41    72    78   am
    42    72    73    2
    43    78    79    1
    44    20    23    1
    45    61    64    1
    46    79    82    1
    47    31    32    1
    48    90    89    2
    49    53    54    1
    50    16    18    1
    51    16    17    1
    52    96    95    2
    53     3     4    2
    54     3     2    1
    55    23    25    1
    56    23    24    1
    57    64    65    1
    58    32    33    1
    59    89    88    1
    60    82    83    1
    61    54    55    1
    62     1     2    1
    63     2     5    1
    64    87    88    1
    65    95    94    1
    66    93    94    1
    67    24    26    1
    68    66    65   ar
    69    66    68   ar
    70    83    84    1
    71    65    67   ar
    72    88    91    1
    73    94    97    1
    74    33    34    1
    75    55    56    1
    76     5     6    1
    77    68    69   ar
    78   105   104    2
    79     6     7    1
    80    97    98    1
    81    34    35    2
    82    91    92    1
    83    67    69   ar
    84    84    86   ar
    85    84    85   ar
    86    56    57    2
    87    58    57    1
    88    57    59    1
    89   104   103    1
    90    35    36    1
    91    35    37    1
    92     7     8    1
    93    98    99    1
    94   102   103    1
    95   103   106    1
    96     8     9    2
    97    99   101   ar
    98    99   100   ar
    99   106   107    1
   100    10     9    1
   101     9    11    1
   102   107   108    1
   103   109   108    2
   104   108   110   am
