@<TRIPOS>MOLECULE
tmp/4arvB00.pdb
 118 114 0 0 0
SMALL
GASTEIGER

@<TRIPOS>ATOM
      1  N         -2.4370  -28.3750    5.6780 N.3     1  GLY1       -0.1210
      2  CA        -1.9660  -29.0870    6.8870 C.3     1  GLY1        0.1956
      3  C         -1.0960  -28.2340    7.8000 C.2     1  GLY1        0.2611
      4  O         -0.9600  -28.5320    8.9850 O.2     1  GLY1       -0.2717
      5  N         -0.4500  -27.2140    7.2420 N.am    2  TYR2       -0.1976
      6  CA         0.4580  -26.4020    8.0250 C.3     2  TYR2        0.1639
      7  C         -0.3990  -25.4850    8.8640 C.2     2  TYR2        0.2290
      8  O         -1.5440  -25.1740    8.5040 O.2     2  TYR2       -0.2864
      9  CB         1.3390  -25.5380    7.1400 C.3     2  TYR2        0.0560
     10  CG         2.4880  -26.2470    6.4660 C.ar    2  TYR2       -0.0198
     11  CD1        2.6310  -27.6310    6.5100 C.ar    2  TYR2       -0.0009
     12  CD2        3.4090  -25.5140    5.7360 C.ar    2  TYR2       -0.0009
     13  CE1        3.6850  -28.2460    5.8560 C.ar    2  TYR2        0.0417
     14  CE2        4.4710  -26.1330    5.0850 C.ar    2  TYR2        0.0417
     15  CZ         4.5990  -27.4880    5.1560 C.ar    2  TYR2        0.1957
     16  OH         5.6440  -28.1170    4.5240 O.3     2  TYR2       -0.2866
     17  N        -11.1220  -15.1590    6.8530 N.3    61  TYR61      -0.1241
     18  CA        -9.9100  -15.8960    6.3410 C.3    61  TYR61       0.1605
     19  C         -9.1000  -16.4200    7.4980 C.2    61  TYR61       0.2264
     20  O         -8.7680  -17.6230    7.5610 O.2    61  TYR61      -0.2867
     21  CB        -9.0950  -14.9970    5.3950 C.3    61  TYR61       0.0534
     22  CG        -7.7340  -15.5420    4.8800 C.ar   61  TYR61      -0.0201
     23  CD1       -6.5820  -15.3580    5.5780 C.ar   61  TYR61      -0.0009
     24  CD2       -7.6380  -16.2130    3.6550 C.ar   61  TYR61      -0.0009
     25  CE1       -5.3300  -15.8250    5.1080 C.ar   61  TYR61       0.0417
     26  CE2       -6.4250  -16.7030    3.1720 C.ar   61  TYR61       0.0417
     27  CZ        -5.2530  -16.5070    3.8740 C.ar   61  TYR61       0.1957
     28  OH        -4.0210  -17.0150    3.3610 O.3    61  TYR61      -0.2866
     29  N         -8.4210  -20.5460    9.2370 N.3    65  TYR65      -0.1241
     30  CA        -7.1360  -21.1790    9.5400 C.3    65  TYR65       0.1605
     31  C         -6.8370  -21.2680   11.0400 C.2    65  TYR65       0.2264
     32  O         -5.7200  -21.6390   11.4450 O.2    65  TYR65      -0.2867
     33  CB        -6.0090  -20.4720    8.8100 C.3    65  TYR65       0.0534
     34  CG        -6.0350  -20.6820    7.3090 C.ar   65  TYR65      -0.0201
     35  CD1       -5.6650  -21.9180    6.7650 C.ar   65  TYR65      -0.0009
     36  CD2       -6.3800  -19.6720    6.4550 C.ar   65  TYR65      -0.0009
     37  CE1       -5.6790  -22.1230    5.4030 C.ar   65  TYR65       0.0417
     38  CE2       -6.3970  -19.8630    5.0930 C.ar   65  TYR65       0.0417
     39  CZ        -6.0430  -21.0930    4.5730 C.ar   65  TYR65       0.1957
     40  OH        -6.0500  -21.2930    3.2090 O.3    65  TYR65      -0.2866
     41  N          3.9170  -19.6940    8.6370 N.3   336  TRP336     -0.1241
     42  CA         3.3140  -21.0030    8.5860 C.3   336  TRP336      0.1605
     43  C          4.2750  -21.9990    9.2300 C.2   336  TRP336      0.2264
     44  O          5.4720  -21.8540    9.0480 O.2   336  TRP336     -0.2867
     45  CB         3.0490  -21.4690    7.1330 C.3   336  TRP336      0.0550
     46  CG         1.9740  -20.7320    6.4210 C.ar  336  TRP336      0.0003
     47  CD1        2.1540  -19.6960    5.6170 C.ar  336  TRP336      0.0946
     48  CD2        0.5670  -21.0050    6.4420 C.ar  336  TRP336      0.0152
     49  NE1        0.9450  -19.2610    5.0940 N.ar  336  TRP336     -0.2442
     50  CE2       -0.0480  -20.0310    5.6060 C.ar  336  TRP336      0.0810
     51  CE3       -0.2340  -21.9400    7.1040 C.ar  336  TRP336      0.0012
     52  CZ2       -1.4250  -20.0070    5.3840 C.ar  336  TRP336      0.0191
     53  CZ3       -1.6010  -21.9230    6.8770 C.ar  336  TRP336      0.0001
     54  CH2       -2.1780  -20.9120    6.0450 C.ar  336  TRP336      0.0015
     55  N          1.5640  -12.0880    0.5140 N.3   349  LYS349     -0.1245
     56  CA         0.4160  -11.9550   -0.3540 C.3   349  LYS349      0.1561
     57  C         -0.0670  -10.5140   -0.4200 C.2   349  LYS349      0.2260
     58  O          0.0290   -9.8000    0.5520 O.2   349  LYS349     -0.2867
     59  CB        -0.7650  -12.7610    0.2010 C.3   349  LYS349      0.0271
     60  CG        -0.5520  -14.2570    0.2050 C.3   349  LYS349      0.0035
     61  CD        -1.6550  -15.0080    0.9140 C.3   349  LYS349      0.0206
     62  CE        -1.5930  -16.4870    0.6630 C.3   349  LYS349      0.1093
     63  NZ        -0.3370  -17.1540    1.1180 N.3   349  LYS349     -0.1314
     64  N        -15.0530  -13.3690   -2.5160 N.3   370  PRO370     -0.2116
     65  CA       -13.8940  -13.1200   -1.7140 C.3   370  PRO370      0.1372
     66  C        -13.0980  -11.8740   -2.1900 C.2   370  PRO370      0.2244
     67  O        -13.0660  -11.5540   -3.3930 O.2   370  PRO370     -0.2868
     68  CB       -13.0350  -14.3820   -1.9130 C.3   370  PRO370      0.0268
     69  CG       -13.4500  -14.8600   -3.2790 C.3   370  PRO370      0.0207
     70  CD       -14.8590  -14.4800   -3.4880 C.3   370  PRO370      0.0892
     71  N         -6.5790  -12.3660   -3.5600 N.3   373  ILE373     -0.1245
     72  CA        -5.3430  -12.7500   -2.8770 C.3   373  ILE373      0.1561
     73  C         -4.3090  -13.1630   -3.9400 C.2   373  ILE373      0.2260
     74  O         -4.5740  -14.1160   -4.7020 O.2   373  ILE373     -0.2867
     75  CB        -5.5750  -13.8830   -1.9020 C.3   373  ILE373      0.0252
     76  CG1       -6.6320  -13.4940   -0.8240 C.3   373  ILE373      0.0019
     77  CG2       -4.2870  -14.3070   -1.2270 C.3   373  ILE373      0.0019
     78  CD1       -7.1110  -14.6470    0.0590 C.3   373  ILE373      0.0001
     79  N         -0.3580  -14.2770   -4.3810 N.3   375  PRO375     -0.2116
     80  CA         0.9430  -14.5580   -3.7960 C.3   375  PRO375      0.1372
     81  C          2.0490  -13.7890   -4.4770 C.2   375  PRO375      0.2244
     82  O          2.0400  -13.5980   -5.7070 O.2   375  PRO375     -0.2868
     83  CB         1.1300  -16.0660   -4.0350 C.3   375  PRO375      0.0268
     84  CG        -0.2730  -16.5910   -4.0750 C.3   375  PRO375      0.0207
     85  CD        -0.9920  -15.5140   -4.8810 C.3   375  PRO375      0.0892
     86  N          8.4420  -21.4600   -2.9970 N.3   384  GLU384     -0.1245
     87  CA         8.0130  -22.8540   -3.2210 C.3   384  GLU384      0.1567
     88  C          6.4920  -23.0050   -3.2460 C.2   384  GLU384      0.2260
     89  O          5.7820  -22.5600   -2.3500 O.2   384  GLU384     -0.2867
     90  CB         8.5800  -23.7700   -2.1370 C.3   384  GLU384      0.0388
     91  CG         8.4250  -25.2620   -2.4310 C.3   384  GLU384      0.1160
     92  CD         7.0200  -25.8360   -2.2200 C.2   384  GLU384      0.3649
     93  OE1        6.3590  -25.4620   -1.2350 O.co2 384  GLU384     -0.2457
     94  OE2        6.5990  -26.7390   -3.0130 O.co2 384  GLU384     -0.2457
     95  N          2.3830  -23.0930   -4.6780 N.3   386  ASP386     -0.1225
     96  CA         1.3930  -22.1020   -5.0120 C.3   386  ASP386      0.1805
     97  C          1.3450  -20.9540   -3.9950 C.2   386  ASP386      0.2597
     98  O          0.9700  -19.8600   -4.3320 O.2   386  ASP386     -0.2718
     99  CB         0.0220  -22.7410   -5.1630 C.3   386  ASP386      0.1424
    100  CG        -0.0580  -23.5860   -6.4040 C.2   386  ASP386      0.3668
    101  OD1        0.4220  -23.1060   -7.4850 O.co2 386  ASP386     -0.2456
    102  OD2       -0.5310  -24.7330   -6.2990 O.co2 386  ASP386     -0.2456
    103  N          1.7670  -21.1970   -2.7650 N.am  387  ASN387     -0.1974
    104  CA         1.8790  -20.1110   -1.7580 C.3   387  ASN387      0.1688
    105  C          3.2400  -19.4350   -1.7330 C.2   387  ASN387      0.2292
    106  O          3.4590  -18.5350   -0.9580 O.2   387  ASN387     -0.2864
    107  CB         1.5950  -20.6040   -0.3510 C.3   387  ASN387      0.1181
    108  CG         0.1080  -20.7970   -0.0890 C.2   387  ASN387      0.2629
    109  OD1       -0.5990  -19.8430    0.2550 O.2   387  ASN387     -0.2716
    110  ND2       -0.3550  -22.0080   -0.2320 N.am  387  ASN387     -0.0877
    111  N          6.2700  -20.1660   -0.7330 N.3   389  LEU389     -0.1245
    112  CA         6.8190  -20.2200    0.6240 C.3   389  LEU389      0.1561
    113  C          8.3060  -20.0310    0.6110 C.2   389  LEU389      0.2260
    114  O          9.0050  -20.6280   -0.2090 O.2   389  LEU389     -0.2867
    115  CB         6.5000  -21.5370    1.3150 C.3   389  LEU389      0.0270
    116  CG         5.0260  -21.8650    1.5580 C.3   389  LEU389      0.0019
    117  CD1        4.8710  -23.2380    2.1630 C.3   389  LEU389      0.0001
    118  CD2        4.3180  -20.8060    2.4060 C.3   389  LEU389      0.0001
@<TRIPOS>BOND
     1   101   100   ar
     2   100   102   ar
     3   100    99    1
     4    82    81    2
     5    99    96    1
     6    96    95    1
     7    96    97    1
     8    85    79    1
     9    85    84    1
    10    74    73    2
    11    81    80    1
    12    79    80    1
    13    98    97    2
    14    84    83    1
    15    83    80    1
    16    97   103   am
    17    73    72    1
    18    71    72    1
    19    70    69    1
    20    70    64    1
    21    67    66    2
    22    69    68    1
    23    88    87    1
    24    88    89    2
    25    87    86    1
    26    87    90    1
    27    94    92   ar
    28    72    75    1
    29   103   104    1
    30    64    65    1
    31    91    92    1
    32    91    90    1
    33    92    93   ar
    34    66    65    1
    35    68    65    1
    36    75    77    1
    37    75    76    1
    38   104   105    1
    39   104   107    1
    40   105   106    2
    41    76    78    1
    42   111   112    1
    43    57    56    1
    44    57    58    2
    45    56    59    1
    46    56    55    1
    47   107   108    1
    48   110   108   am
    49   114   113    2
    50   108   109    2
    51    59    60    1
    52    60    61    1
    53   113   112    1
    54   112   115    1
    55    62    61    1
    56    62    63    1
    57   115   116    1
    58   116   117    1
    59   116   118    1
    60    26    24   ar
    61    26    27   ar
    62    40    39    1
    63    28    27    1
    64    24    22   ar
    65    27    25   ar
    66    16    15    1
    67    39    38   ar
    68    39    37   ar
    69    22    21    1
    70    22    23   ar
    71    14    15   ar
    72    14    12   ar
    73    38    36   ar
    74    49    50   ar
    75    49    47   ar
    76    25    23   ar
    77    15    13   ar
    78    52    50   ar
    79    52    54   ar
    80    21    18    1
    81    37    35   ar
    82    50    48   ar
    83    47    46   ar
    84     1     2    1
    85    12    10   ar
    86    13    11   ar
    87    54    53   ar
    88    18    17    1
    89    18    19    1
    90    46    48   ar
    91    46    45    1
    92    48    51   ar
    93    36    34   ar
    94    10    11   ar
    95    10     9    1
    96    35    34   ar
    97    53    51   ar
    98     2     3    1
    99    45    42    1
   100     9     6    1
   101     5     3   am
   102     5     6    1
   103    34    33    1
   104    19    20    2
   105     3     4    2
   106     6     7    1
   107     8     7    2
   108    42    41    1
   109    42    43    1
   110    33    30    1
   111    44    43    2
   112    29    30    1
   113    30    31    1
   114    31    32    2
