@<TRIPOS>MOLECULE
tmp/4arwA00.pdb
 155 151 0 0 0
SMALL
GASTEIGER

@<TRIPOS>ATOM
      1  N         30.4920   -4.3400   15.6600 N.3    39  TYR39      -0.1241
      2  CA        30.1700   -3.5390   14.4750 C.3    39  TYR39       0.1605
      3  C         29.2190   -2.3620   14.7790 C.2    39  TYR39       0.2264
      4  O         29.5400   -1.2160   14.4430 O.2    39  TYR39      -0.2867
      5  CB        29.6190   -4.4530   13.3570 C.3    39  TYR39       0.0534
      6  CG        30.6350   -5.4580   12.8670 C.ar   39  TYR39      -0.0201
      7  CD1       30.7690   -6.7060   13.4690 C.ar   39  TYR39      -0.0009
      8  CD2       31.4800   -5.1460   11.8190 C.ar   39  TYR39      -0.0009
      9  CE1       31.7190   -7.6100   13.0240 C.ar   39  TYR39       0.0417
     10  CE2       32.4240   -6.0340   11.3700 C.ar   39  TYR39       0.0417
     11  CZ        32.5460   -7.2620   11.9630 C.ar   39  TYR39       0.1957
     12  OH        33.5190   -8.1140   11.4970 O.3    39  TYR39      -0.2866
     13  N         31.0630    0.0000   17.1940 N.3    42  SER42      -0.1202
     14  CA        32.0090    0.8190   16.4190 C.3    42  SER42       0.2020
     15  C         31.3050    1.9410   15.6430 C.2    42  SER42       0.2619
     16  O         31.8860    3.0010   15.4500 O.2    42  SER42      -0.2717
     17  CB        32.7910   -0.0610   15.4250 C.3    42  SER42       0.2103
     18  OG        33.8150   -0.7900   16.0730 O.3    42  SER42      -0.2182
     19  N         30.0620    1.6860   15.2200 N.am   43  THR43      -0.1952
     20  CA        29.2580    2.6390   14.4690 C.3    43  THR43       0.1897
     21  C         28.8980    3.8360   15.3470 C.2    43  THR43       0.2313
     22  O         29.1270    4.9890   14.9570 O.2    43  THR43      -0.2863
     23  CB        27.9900    1.9510   13.8800 C.3    43  THR43       0.1794
     24  OG1       28.3790    0.8510   13.0340 O.3    43  THR43      -0.2208
     25  CG2       27.1220    2.9140   13.0690 C.3    43  THR43       0.0378
     26  N         31.9150    5.8240   15.9010 N.3    46  LEU46      -0.1245
     27  CA        32.2950    6.6140   14.7360 C.3    46  LEU46       0.1561
     28  C         31.4650    7.8940   14.7060 C.2    46  LEU46       0.2260
     29  O         31.9440    8.9270   14.2880 O.2    46  LEU46      -0.2867
     30  CB        32.1000    5.8110   13.4460 C.3    46  LEU46       0.0270
     31  CG        32.6500    6.4430   12.1690 C.3    46  LEU46       0.0019
     32  CD1       34.1750    6.5280   12.2330 C.3    46  LEU46       0.0001
     33  CD2       32.1890    5.6650   10.9300 C.3    46  LEU46       0.0001
     34  N         27.4570   -1.9340    8.9190 N.3   114  TYR114     -0.1227
     35  CA        27.5990   -0.9490    7.8660 C.3   114  TYR114      0.1736
     36  C         29.0540   -0.8940    7.3900 C.2   114  TYR114      0.2595
     37  O         29.9840   -1.1950    8.1430 O.2   114  TYR114     -0.2718
     38  CB        27.1940    0.4400    8.3710 C.3   114  TYR114      0.0548
     39  CG        25.7830    0.5210    8.8810 C.ar  114  TYR114     -0.0200
     40  CD1       25.4840    0.2270   10.2150 C.ar  114  TYR114     -0.0009
     41  CD2       24.7370    0.8750    8.0280 C.ar  114  TYR114     -0.0009
     42  CE1       24.1820    0.2950   10.6860 C.ar  114  TYR114      0.0417
     43  CE2       23.4250    0.9430    8.4860 C.ar  114  TYR114      0.0417
     44  CZ        23.1510    0.6610    9.8140 C.ar  114  TYR114      0.1957
     45  OH        21.8570    0.7180   10.2620 O.3   114  TYR114     -0.2866
     46  N         29.2510   -0.4850    6.1470 N.am  115  TYR115     -0.1962
     47  CA        30.6100   -0.2330    5.6300 C.3   115  TYR115      0.1774
     48  C         30.5600    0.7710    4.4870 C.2   115  TYR115      0.2659
     49  O         29.7090    0.6740    3.6150 O.2   115  TYR115     -0.2711
     50  CB        31.2610   -1.5380    5.1550 C.3   115  TYR115      0.0574
     51  CG        32.4530   -1.3480    4.2410 C.ar  115  TYR115     -0.0198
     52  CD1       33.7300   -1.1090    4.7570 C.ar  115  TYR115     -0.0009
     53  CD2       32.3020   -1.3810    2.8570 C.ar  115  TYR115     -0.0009
     54  CE1       34.8190   -0.9000    3.9150 C.ar  115  TYR115      0.0417
     55  CE2       33.3790   -1.1910    2.0140 C.ar  115  TYR115      0.0417
     56  CZ        34.6330   -0.9440    2.5420 C.ar  115  TYR115      0.1957
     57  OH        35.6960   -0.7640    1.6890 O.3   115  TYR115     -0.2866
     58  N         31.4860    1.7240    4.4860 N.am  116  GLY116     -0.1730
     59  CA        31.6850    2.5470    3.2970 C.2   116  GLY116      0.1340
     60  C         32.4600    3.8190    3.4930 C.2   116  GLY116      0.2521
     61  O         32.7560    4.2290    4.6220 O.2   116  GLY116     -0.2816
     62  N         31.6480    7.2560    5.7560 N.3   119  PHE119     -0.1227
     63  CA        30.5990    6.8280    6.6840 C.3   119  PHE119      0.1736
     64  C         30.6150    7.7360    7.8930 C.2   119  PHE119      0.2595
     65  O         29.5690    8.0950    8.4150 O.2   119  PHE119     -0.2718
     66  CB        30.7970    5.3690    7.1040 C.3   119  PHE119      0.0547
     67  CG        29.6640    4.7910    7.9250 C.ar  119  PHE119     -0.0202
     68  CD1       28.3350    4.9960    7.5780 C.ar  119  PHE119     -0.0042
     69  CD2       29.9360    3.9770    9.0150 C.ar  119  PHE119     -0.0042
     70  CE1       27.3090    4.4330    8.3160 C.ar  119  PHE119     -0.0003
     71  CE2       28.9140    3.4110    9.7520 C.ar  119  PHE119     -0.0003
     72  CZ        27.6020    3.6450    9.4080 C.ar  119  PHE119     -0.0000
     73  N         31.8150    8.1160    8.3160 N.am  120  HIS120     -0.1975
     74  CA        31.9990    9.0620    9.4070 C.3   120  HIS120      0.1656
     75  C         31.2430   10.3470    9.1850 C.2   120  HIS120      0.2291
     76  O         30.6090   10.8740   10.1050 O.2   120  HIS120     -0.2864
     77  CB        33.4780    9.3520    9.6180 C.3   120  HIS120      0.0771
     78  CG        33.7410   10.3680   10.7060 C.ar  120  HIS120      0.0820
     79  ND1       33.8730   11.6770   10.4510 N.ar  120  HIS120     -0.2267
     80  CD2       33.8270   10.2260   12.0910 C.ar  120  HIS120      0.1154
     81  CE1       34.0670   12.3400   11.6150 C.ar  120  HIS120      0.1986
     82  NE2       34.0450   11.4420   12.6120 N.ar  120  HIS120     -0.2212
     83  N         42.9930   -5.5470    2.4680 N.3   247  GLN247     -0.1245
     84  CA        43.5190   -4.2610    2.9260 C.3   247  GLN247      0.1566
     85  C         44.6470   -4.3500    3.9660 C.2   247  GLN247      0.2260
     86  O         45.5030   -3.4730    4.0300 O.2   247  GLN247     -0.2867
     87  CB        42.3820   -3.4120    3.5150 C.3   247  GLN247      0.0367
     88  CG        41.3050   -3.0460    2.5210 C.3   247  GLN247      0.0905
     89  CD        40.2580   -2.1210    3.0840 C.2   247  GLN247      0.2608
     90  OE1       40.2310   -1.8290    4.2790 O.2   247  GLN247     -0.2717
     91  NE2       39.3800   -1.6510    2.2190 N.am  247  GLN247     -0.0878
     92  N         41.1920   -3.6180    9.5000 N.3   250  LYS250     -0.1231
     93  CA        39.9650   -4.1930    9.9840 C.3   250  LYS250      0.1693
     94  C         38.7920   -3.2300    9.8690 C.2   250  LYS250      0.2592
     95  O         38.9590   -1.9860    9.8600 O.2   250  LYS250     -0.2718
     96  CB        40.1300   -4.6710   11.4190 C.3   250  LYS250      0.0285
     97  CG        41.0950   -5.8370   11.5330 C.3   250  LYS250      0.0035
     98  CD        41.1480   -6.3910   12.9340 C.3   250  LYS250      0.0206
     99  CE        42.0980   -7.5830   13.0260 C.3   250  LYS250      0.1093
    100  NZ        41.6560   -8.8300   12.3530 N.3   250  LYS250     -0.1314
    101  N         37.6070   -3.8280    9.7610 N.am  251  VAL251     -0.1966
    102  CA        36.3600   -3.1050    9.8480 C.3   251  VAL251      0.1727
    103  C         35.8140   -3.2080   11.2780 C.2   251  VAL251      0.2616
    104  O         35.6810   -4.3110   11.8050 O.2   251  VAL251     -0.2715
    105  CB        35.3350   -3.6710    8.8440 C.3   251  VAL251      0.0290
    106  CG1       34.0180   -2.9190    8.9480 C.3   251  VAL251      0.0023
    107  CG2       35.8950   -3.6020    7.4220 C.3   251  VAL251      0.0023
    108  N         35.4830   -2.0680   11.8830 N.am  252  ALA252     -0.1963
    109  CA        34.8510   -2.0200   13.2130 C.3   252  ALA252      0.1728
    110  C         35.6800   -2.6910   14.2990 C.2   252  ALA252      0.2616
    111  O         35.1620   -3.4880   15.0860 O.2   252  ALA252     -0.2715
    112  CB        33.4680   -2.6510   13.1790 C.3   252  ALA252      0.0334
    113  N         36.9630   -2.3650   14.3270 N.am  253  CYS253     -0.1968
    114  CA        37.8190   -2.6940   15.4430 C.3   253  CYS253      0.1712
    115  C         37.6160   -1.5610   16.4470 C.2   253  CYS253      0.2296
    116  O         37.9990   -0.4220   16.1890 O.2   253  CYS253     -0.2864
    117  CB        39.2650   -2.7890   14.9460 C.3   253  CYS253      0.0983
    118  SG        40.5310   -2.8270   16.2090 S.3   253  CYS253     -0.0798
    119  N         40.7010    0.4710   17.6110 N.3   256  GLU256     -0.1231
    120  CA        41.2030    1.3600   16.5730 C.3   256  GLU256      0.1699
    121  C         40.3980    2.6360   16.4770 C.2   256  GLU256      0.2592
    122  O         40.9640    3.7170   16.3420 O.2   256  GLU256     -0.2718
    123  CB        41.2250    0.6760   15.2100 C.3   256  GLU256      0.0402
    124  CG        41.4990    1.6480   14.0790 C.3   256  GLU256      0.1161
    125  CD        41.7220    0.9750   12.7570 C.2   256  GLU256      0.3649
    126  OE1       41.2740   -0.1830   12.5560 O.co2 256  GLU256     -0.2457
    127  OE2       42.3360    1.6510   11.9080 O.co2 256  GLU256     -0.2457
    128  N         39.0790    2.5230   16.5220 N.am  257  ILE257     -0.1980
    129  CA        38.2360    3.7030   16.4110 C.3   257  ILE257      0.1595
    130  C         38.4440    4.6420   17.6130 C.2   257  ILE257      0.2287
    131  O         38.5210    5.8480   17.4370 O.2   257  ILE257     -0.2864
    132  CB        36.7540    3.3120   16.1890 C.3   257  ILE257      0.0276
    133  CG1       36.6040    2.7790   14.7500 C.3   257  ILE257      0.0022
    134  CG2       35.8320    4.5100   16.3930 C.3   257  ILE257      0.0022
    135  CD1       35.2750    2.1360   14.4470 C.3   257  ILE257      0.0001
    136  N         41.7300    6.5090   17.1100 N.3   260  ARG260     -0.1231
    137  CA        41.6770    7.5430   16.0820 C.3   260  ARG260      0.1694
    138  C         40.8110    8.7180   16.4820 C.2   260  ARG260      0.2591
    139  O         41.0330    9.8360   16.0050 O.2   260  ARG260     -0.2718
    140  CB        41.2060    6.9640   14.7430 C.3   260  ARG260      0.0321
    141  CG        42.1680    5.9280   14.2130 C.3   260  ARG260      0.0489
    142  CD        41.9210    5.5670   12.7650 C.3   260  ARG260      0.2205
    143  NE        42.7550    4.4390   12.3730 N.pl3 260  ARG260     -0.0865
    144  CZ        44.0550    4.5000   12.1040 C.cat 260  ARG260      0.5346
    145  NH1       44.7180    5.6440   12.1780 N.pl3 260  ARG260      0.1354
    146  NH2       44.7060    3.3920   11.7790 N.pl3 260  ARG260      0.1354
    147  N         39.8400    8.4830   17.3650 N.am  261  GLN261     -0.1979
    148  CA        39.0500    9.5860   17.9160 C.3   261  GLN261      0.1601
    149  C         39.8050   10.3280   19.0450 C.2   261  GLN261      0.2287
    150  O         39.3270   11.3300   19.5430 O.2   261  GLN261     -0.2864
    151  CB        37.7010    9.0810   18.4210 C.3   261  GLN261      0.0394
    152  CG        36.7830    8.4660   17.3520 C.3   261  GLN261      0.0908
    153  CD        35.9390    9.5010   16.6300 C.2   261  GLN261      0.2608
    154  OE1       36.4540   10.5330   16.1950 O.2   261  GLN261     -0.2717
    155  NE2       34.6360    9.2330   16.4930 N.am  261  GLN261     -0.0878
@<TRIPOS>BOND
     1    57    56    1
     2    55    56   ar
     3    55    53   ar
     4    91    89   am
     5    83    84    1
     6    88    89    1
     7    88    87    1
     8    56    54   ar
     9    53    51   ar
    10    84    87    1
    11    84    85    1
    12    89    90    2
    13    59    60    1
    14    59    58    2
    15    60    61    2
    16    49    48    2
    17    54    52   ar
    18    85    86    2
    19    51    52   ar
    20    51    50    1
    21    58    48    1
    22    48    47    1
    23    50    47    1
    24    47    46    1
    25    62    63    1
    26    46    36   am
    27    63    66    1
    28    63    64    1
    29    66    67    1
    30    36    35    1
    31    36    37    2
    32   107   105    1
    33    68    67   ar
    34    68    70   ar
    35    35    38    1
    36    35    34    1
    37    64    73   am
    38    64    65    2
    39    67    69   ar
    40    41    43   ar
    41    41    39   ar
    42    73    74    1
    43    70    72   ar
    44    38    39    1
    45    43    44   ar
    46   105   106    1
    47   105   102    1
    48    39    40   ar
    49    69    71   ar
    50    75    74    1
    51    75    76    2
    52    74    77    1
    53    72    71   ar
    54    92    93    1
    55    77    78    1
    56   101   102    1
    57   101    94   am
    58    44    45    1
    59    44    42   ar
    60   102   103    1
    61    95    94    2
    62    94    93    1
    63    93    96    1
    64    40    42   ar
    65    79    78   ar
    66    79    81   ar
    67    78    80   ar
    68    33    31    1
    69   103   104    2
    70   103   108   am
    71    10     8   ar
    72    10    11   ar
    73    96    97    1
    74    12    11    1
    75    97    98    1
    76    81    82   ar
    77   146   144    1
    78     8     6   ar
    79   108   109    1
    80   127   125   ar
    81    11     9   ar
    82    80    82   ar
    83   144   145    1
    84   144   143    2
    85    31    32    1
    86    31    30    1
    87   100    99    1
    88   143   142    1
    89   126   125   ar
    90   125   124    1
    91   142   141    1
    92     6     5    1
    93     6     7   ar
    94    98    99    1
    95     9     7   ar
    96    24    23    1
    97    25    23    1
    98   112   109    1
    99   109   110    1
   100     5     2    1
   101    30    27    1
   102    23    20    1
   103   124   123    1
   104   141   140    1
   105    29    28    2
   106   110   113   am
   107   110   111    2
   108   113   114    1
   109     4     3    2
   110   135   133    1
   111    20    19    1
   112    20    21    1
   113     2     3    1
   114     2     1    1
   115    28    27    1
   116    27    26    1
   117   140   137    1
   118   133   132    1
   119   117   114    1
   120   117   118    1
   121    22    21    2
   122   123   120    1
   123    19    15   am
   124    17    18    1
   125    17    14    1
   126   114   115    1
   127    16    15    2
   128    15    14    1
   129   139   138    2
   130   137   138    1
   131   137   136    1
   132   116   115    2
   133   132   134    1
   134   132   129    1
   135   154   153    2
   136   122   121    2
   137   129   128    1
   138   129   130    1
   139    14    13    1
   140   121   128   am
   141   121   120    1
   142   138   147   am
   143   155   153   am
   144   120   119    1
   145   153   152    1
   146   152   151    1
   147   147   148    1
   148   131   130    2
   149   148   151    1
   150   148   149    1
   151   149   150    2
