@<TRIPOS>MOLECULE
tmp/4arzA00.pdb
 162 157 0 0 0
SMALL
GASTEIGER

@<TRIPOS>ATOM
      1  N         31.5100   49.1960   30.7470 N.3    12  SER12      -0.1202
      2  CA        31.1940   47.7910   31.0110 C.3    12  SER12       0.2020
      3  C         32.3940   47.0060   31.5000 C.2    12  SER12       0.2619
      4  O         33.4800   47.0850   30.9250 O.2    12  SER12      -0.2717
      5  CB        30.6330   47.1120   29.7580 C.3    12  SER12       0.2103
      6  OG        29.2200   47.0000   29.8190 O.3    12  SER12      -0.2182
      7  N         32.1870   46.2390   32.5620 N.am   13  GLY13      -0.1942
      8  CA        33.2710   45.4530   33.1130 C.3    13  GLY13       0.2014
      9  C         34.0720   46.1890   34.1740 C.2    13  GLY13       0.2640
     10  O         34.9830   45.6150   34.7650 O.2    13  GLY13      -0.2714
     11  N         33.7450   47.4560   34.4190 N.am   14  SER14      -0.1935
     12  CA        34.4570   48.2430   35.4180 C.3    14  SER14       0.2055
     13  C         34.2860   47.6020   36.7850 C.2    14  SER14       0.2644
     14  O         34.9930   47.9350   37.7340 O.2    14  SER14      -0.2714
     15  CB        33.9110   49.6620   35.4500 C.3    14  SER14       0.2130
     16  OG        32.5280   49.6530   35.7410 O.3    14  SER14      -0.2179
     17  N         33.3320   46.6840   36.8780 N.am   15  GLY15      -0.1939
     18  CA        33.0730   45.9920   38.1280 C.3    15  GLY15       0.2014
     19  C         32.1680   46.7310   39.0950 C.2    15  GLY15       0.2639
     20  O         32.1760   46.4450   40.2960 O.2    15  GLY15      -0.2714
     21  N         31.3650   47.6590   38.5810 N.am   16  LYS16      -0.1963
     22  CA        30.4840   48.4440   39.4410 C.3    16  LYS16       0.1728
     23  C         29.1980   47.7820   39.9100 C.2    16  LYS16       0.2617
     24  O         28.5600   48.2620   40.8400 O.2    16  LYS16      -0.2715
     25  CB        30.1660   49.7860   38.7820 C.3    16  LYS16       0.0311
     26  CG        29.5530   49.6900   37.4290 C.3    16  LYS16       0.0038
     27  CD        29.7210   50.9870   36.6870 C.3    16  LYS16       0.0206
     28  CE        28.9980   50.9240   35.3620 C.3    16  LYS16       0.1093
     29  NZ        29.3900   49.7250   34.5690 N.3    16  LYS16      -0.1314
     30  N         28.8050   46.6860   39.2780 N.am   17  SER17      -0.1936
     31  CA        27.5980   45.9920   39.7010 C.3    17  SER17       0.2055
     32  C         27.9590   45.0280   40.8180 C.2    17  SER17       0.2643
     33  O         27.1320   44.7170   41.6720 O.2    17  SER17      -0.2714
     34  CB        26.9700   45.2350   38.5300 C.3    17  SER17       0.2130
     35  OG        26.3610   46.1330   37.6100 O.3    17  SER17      -0.2179
     36  N         29.2030   44.5560   40.7970 N.am   18  SER18      -0.1949
     37  CA        29.7100   43.6450   41.8090 C.3    18  SER18       0.1924
     38  C         29.6860   44.4310   43.1080 C.2    18  SER18       0.2314
     39  O         29.2820   43.9140   44.1470 O.2    18  SER18      -0.2863
     40  CB        31.1430   43.2350   41.4800 C.3    18  SER18       0.2116
     41  OG        31.2720   42.8960   40.1130 O.3    18  SER18      -0.2180
     42  N         30.1640   37.4770   42.3410 N.3    32  THR32      -0.1203
     43  CA        29.8920   38.4790   41.3130 C.3    32  THR32       0.1994
     44  C         30.0940   37.9880   39.8820 C.2    32  THR32       0.2617
     45  O         29.5850   38.5910   38.9340 O.2    32  THR32      -0.2717
     46  CB        30.7680   39.7310   41.5310 C.3    32  THR32       0.1784
     47  OG1       32.1510   39.3550   41.5510 O.3    32  THR32      -0.2211
     48  CG2       30.4220   40.3890   42.8450 C.3    32  THR32       0.0376
     49  N         30.8410   36.9020   39.7220 N.am   33  ARG33      -0.1979
     50  CA        31.0890   36.3520   38.3990 C.3    33  ARG33       0.1597
     51  C         29.7770   36.1320   37.6570 C.2    33  ARG33       0.2287
     52  O         29.6190   36.5500   36.5140 O.2    33  ARG33      -0.2864
     53  CB        31.8220   35.0240   38.5180 C.3    33  ARG33       0.0334
     54  CG        33.2170   35.1380   39.0540 C.3    33  ARG33       0.0492
     55  CD        33.8410   33.7630   39.1160 C.3    33  ARG33       0.2205
     56  NE        35.2920   33.8160   39.2580 N.pl3  33  ARG33      -0.0865
     57  CZ        36.0830   32.7480   39.2040 C.cat  33  ARG33       0.5346
     58  NH1       35.5610   31.5440   39.0120 N.pl3  33  ARG33       0.1354
     59  NH2       37.3960   32.8850   39.3380 N.pl3  33  ARG33       0.1354
     60  N         27.0040   37.5490   37.8830 N.3    35  LEU35      -0.1231
     61  CA        26.1730   38.7300   37.6640 C.3    35  LEU35       0.1693
     62  C         25.7130   38.9610   36.2270 C.2    35  LEU35       0.2593
     63  O         24.5290   39.2040   35.9860 O.2    35  LEU35      -0.2718
     64  CB        26.8910   39.9830   38.1910 C.3    35  LEU35       0.0284
     65  CG        26.6910   40.2980   39.6800 C.3    35  LEU35       0.0019
     66  CD1       27.7430   41.2690   40.1850 C.3    35  LEU35       0.0001
     67  CD2       25.3070   40.8670   39.8700 C.3    35  LEU35       0.0001
     68  N         26.6360   38.8750   35.2740 N.am   36  GLY36      -0.1942
     69  CA        26.2780   39.1160   33.8870 C.3    36  GLY36       0.2014
     70  C         26.1370   40.6120   33.6520 C.2    36  GLY36       0.2639
     71  O         25.8030   41.3640   34.5730 O.2    36  GLY36      -0.2714
     72  N         26.3930   41.0600   32.4280 N.am   37  ALA37      -0.1963
     73  CA        26.2920   42.4830   32.1160 C.3    37  ALA37       0.1728
     74  C         24.9130   43.0490   32.4460 C.2    37  ALA37       0.2616
     75  O         23.8950   42.4300   32.1170 O.2    37  ALA37      -0.2715
     76  CB        26.5980   42.7120   30.6440 C.3    37  ALA37       0.0334
     77  N         24.8710   44.2140   33.0970 N.am   38  THR38      -0.1951
     78  CA        23.5830   44.8210   33.4090 C.3    38  THR38       0.1897
     79  C         23.0920   45.5660   32.1850 C.2    38  THR38       0.2313
     80  O         23.8660   46.2640   31.5290 O.2    38  THR38      -0.2863
     81  CB        23.6300   45.8310   34.5880 C.3    38  THR38       0.1794
     82  OG1       24.9830   46.1260   34.9500 O.3    38  THR38      -0.2208
     83  CG2       22.8790   45.2710   35.7780 C.3    38  THR38       0.0378
     84  N         22.6440   52.0170   39.0120 N.3    58  ASP58      -0.1239
     85  CA        23.7250   51.2540   38.3780 C.3    58  ASP58       0.1674
     86  C         23.5460   51.3290   36.8700 C.2    58  ASP58       0.2266
     87  O         22.6870   50.6600   36.3050 O.2    58  ASP58      -0.2867
     88  CB        23.6520   49.7980   38.8210 C.3    58  ASP58       0.1410
     89  CG        24.8400   48.9830   38.3560 C.2    58  ASP58       0.3668
     90  OD1       25.5080   49.3800   37.3670 O.co2  58  ASP58      -0.2456
     91  OD2       25.0860   47.9280   38.9820 O.co2  58  ASP58      -0.2456
     92  N         24.4840   50.3100   33.4210 N.3    60  GLY60      -0.1210
     93  CA        25.1990   49.3990   32.5470 C.3    60  GLY60       0.1956
     94  C         26.0240   50.2250   31.5860 C.2    60  GLY60       0.2612
     95  O         25.5050   51.1130   30.9040 O.2    60  GLY60      -0.2717
     96  N         27.3130   49.9250   31.5250 N.am   61  GLY61      -0.1956
     97  CA        28.2020   50.6950   30.6790 C.3    61  GLY61       0.1869
     98  C         28.5460   50.2870   29.2620 C.2    61  GLY61       0.2309
     99  O         29.5950   50.7060   28.7650 O.2    61  GLY61      -0.2863
    100  N         38.8330   50.9040   40.4280 N.3   123  HIS123     -0.1226
    101  CA        38.4870   49.5480   40.7960 C.3   123  HIS123      0.1752
    102  C         39.3680   48.4500   40.2310 C.2   123  HIS123      0.2595
    103  O         40.0040   48.6130   39.1970 O.2   123  HIS123     -0.2718
    104  CB        37.0340   49.3040   40.3990 C.3   123  HIS123      0.0759
    105  CG        36.4040   48.1490   41.1000 C.ar  123  HIS123      0.0818
    106  ND1       36.2930   48.0870   42.4710 N.ar  123  HIS123     -0.2268
    107  CD2       35.8550   47.0100   40.6220 C.ar  123  HIS123      0.1154
    108  CE1       35.7040   46.9560   42.8090 C.ar  123  HIS123      0.1986
    109  NE2       35.4270   46.2850   41.7050 N.ar  123  HIS123     -0.2212
    110  N         39.3790   47.3170   40.9230 N.am  124  LYS124     -0.1980
    111  CA        40.1620   46.1520   40.5210 C.3   124  LYS124      0.1596
    112  C         41.6440   46.3510   40.7760 C.2   124  LYS124      0.2287
    113  O         42.4790   45.8000   40.0700 O.2   124  LYS124     -0.2864
    114  CB        39.9310   45.8330   39.0440 C.3   124  LYS124      0.0298
    115  CG        38.4720   45.6030   38.6900 C.3   124  LYS124      0.0038
    116  CD        38.3290   45.1570   37.2410 C.3   124  LYS124      0.0206
    117  CE        36.9310   44.6280   36.9350 C.3   124  LYS124      0.1093
    118  NZ        36.8690   44.0020   35.5790 N.3   124  LYS124     -0.1314
    119  N         43.3040   45.0220   42.6950 N.3   126  ASP126     -0.1225
    120  CA        43.8720   43.7290   43.1000 C.3   126  ASP126      0.1805
    121  C         44.6070   43.0380   41.9570 C.2   126  ASP126      0.2597
    122  O         45.2950   42.0420   42.1730 O.2   126  ASP126     -0.2718
    123  CB        42.7870   42.7830   43.6480 C.3   126  ASP126      0.1424
    124  CG        41.6410   42.5560   42.6640 C.2   126  ASP126      0.3668
    125  OD1       40.7390   43.4180   42.6040 O.co2 126  ASP126     -0.2456
    126  OD2       41.6460   41.5270   41.9520 O.co2 126  ASP126     -0.2456
    127  N         44.4470   43.5710   40.7460 N.am  127  LEU127     -0.1979
    128  CA        45.1090   43.0380   39.5570 C.3   127  LEU127      0.1596
    129  C         46.5050   43.6610   39.3600 C.2   127  LEU127      0.2287
    130  O         47.3750   43.0690   38.7210 O.2   127  LEU127     -0.2864
    131  CB        44.2630   43.3050   38.3080 C.3   127  LEU127      0.0297
    132  CG        42.8650   42.6960   38.2550 C.3   127  LEU127      0.0022
    133  CD1       42.1740   43.1470   36.9830 C.3   127  LEU127      0.0001
    134  CD2       42.9600   41.1850   38.3020 C.3   127  LEU127      0.0001
    135  N         38.9410   47.3090   45.4060 N.3   162  SER162     -0.1202
    136  CA        38.9200   45.9060   44.9980 C.3   162  SER162      0.2020
    137  C         37.9070   45.1350   45.8350 C.2   162  SER162      0.2619
    138  O         37.8340   45.3110   47.0550 O.2   162  SER162     -0.2717
    139  CB        40.2780   45.2470   45.1950 C.3   162  SER162      0.2103
    140  OG        40.1450   43.8430   45.0570 O.3   162  SER162     -0.2182
    141  N         37.1400   44.2720   45.1780 N.am  163  ILE163     -0.1965
    142  CA        36.1390   43.4710   45.8640 C.3   163  ILE163      0.1727
    143  C         36.8210   42.3860   46.6870 C.2   163  ILE163      0.2616
    144  O         36.1740   41.6910   47.4700 O.2   163  ILE163     -0.2715
    145  CB        35.1990   42.7660   44.8760 C.3   163  ILE163      0.0290
    146  CG1       35.9890   41.7540   44.0470 C.3   163  ILE163      0.0022
    147  CG2       34.5250   43.7800   43.9850 C.3   163  ILE163      0.0023
    148  CD1       35.1380   40.9790   43.0990 C.3   163  ILE163      0.0001
    149  N         38.1320   42.2490   46.5190 N.am  164  TRP164     -0.1974
    150  CA        38.8550   41.2180   47.2360 C.3   164  TRP164      0.1640
    151  C         39.4990   41.6050   48.5650 C.2   164  TRP164      0.2290
    152  O         40.1180   40.7650   49.2100 O.2   164  TRP164     -0.2864
    153  CB        39.8770   40.5840   46.3020 C.3   164  TRP164      0.0576
    154  CG        39.2280   39.8620   45.1450 C.ar  164  TRP164      0.0006
    155  CD1       39.2410   40.2320   43.8320 C.ar  164  TRP164      0.0946
    156  CD2       38.4620   38.6550   45.2110 C.ar  164  TRP164      0.0152
    157  NE1       38.5340   39.3300   43.0740 N.ar  164  TRP164     -0.2442
    158  CE2       38.0450   38.3510   43.8980 C.ar  164  TRP164      0.0810
    159  CE3       38.0900   37.7980   46.2550 C.ar  164  TRP164      0.0012
    160  CZ2       37.2740   37.2250   43.6000 C.ar  164  TRP164      0.0191
    161  CZ3       37.3230   36.6740   45.9570 C.ar  164  TRP164      0.0001
    162  CH2       36.9250   36.4010   44.6400 C.ar  164  TRP164      0.0015
@<TRIPOS>BOND
     1    99    98    2
     2    98    97    1
     3     5     6    1
     4     5     2    1
     5    76    73    1
     6    97    96    1
     7     1     2    1
     8    95    94    2
     9     4     3    2
    10     2     3    1
    11     3     7   am
    12    96    94   am
    13    80    79    2
    14    94    93    1
    15    73    72    1
    16    73    74    1
    17    75    74    2
    18    79    78    1
    19    72    70   am
    20    74    77   am
    21    93    92    1
    22     7     8    1
    23    77    78    1
    24     8     9    1
    25    78    81    1
    26    70    69    1
    27    70    71    2
    28    69    68    1
    29     9    11   am
    30     9    10    2
    31    11    12    1
    32    29    28    1
    33    81    82    1
    34    81    83    1
    35    68    62   am
    36    28    27    1
    37    12    15    1
    38    12    13    1
    39    15    16    1
    40   118   117    1
    41    63    62    2
    42    62    61    1
    43    87    86    2
    44    52    51    2
    45    27    26    1
    46    13    17   am
    47    13    14    2
    48    86    85    1
    49    17    18    1
    50   117   116    1
    51   133   132    1
    52   116   115    1
    53    90    89   ar
    54    26    25    1
    55    35    34    1
    56    51    50    1
    57    61    60    1
    58    61    64    1
    59    18    19    1
    60    64    65    1
    61   132   134    1
    62   132   131    1
    63   131   128    1
    64    89    88    1
    65    89    91   ar
    66    85    88    1
    67    85    84    1
    68    50    53    1
    69    50    49    1
    70    53    54    1
    71    34    31    1
    72    21    19   am
    73    21    22    1
    74   115   114    1
    75   130   129    2
    76    25    22    1
    77    45    44    2
    78    58    57    1
    79   114   111    1
    80    54    55    1
    81    19    20    2
    82    55    56    1
    83   103   102    2
    84    57    56    2
    85    57    59    1
    86    30    31    1
    87    30    23   am
    88   129   128    1
    89    22    23    1
    90   128   127    1
    91    65    67    1
    92    65    66    1
    93    31    32    1
    94    49    44   am
    95    44    43    1
    96    23    24    2
    97   113   112    2
    98    41    40    1
    99   102   101    1
   100   102   110   am
   101   104   101    1
   102   104   105    1
   103   100   101    1
   104   111   112    1
   105   111   110    1
   106   107   105   ar
   107   107   109   ar
   108   127   121   am
   109    36    32   am
   110    36    37    1
   111    32    33    2
   112   105   106   ar
   113    43    46    1
   114    43    42    1
   115    40    37    1
   116    46    47    1
   117    46    48    1
   118   109   108   ar
   119    37    38    1
   120   126   124   ar
   121   121   122    2
   122   121   120    1
   123   106   108   ar
   124   125   124   ar
   125   124   123    1
   126   119   120    1
   127   157   155   ar
   128   157   158   ar
   129   148   146    1
   130   120   123    1
   131    38    39    2
   132   160   158   ar
   133   160   162   ar
   134   155   154   ar
   135   158   156   ar
   136   147   145    1
   137   146   145    1
   138   162   161   ar
   139   145   142    1
   140   136   139    1
   141   136   135    1
   142   136   137    1
   143   140   139    1
   144   154   156   ar
   145   154   153    1
   146   141   137   am
   147   141   142    1
   148   156   159   ar
   149   137   138    2
   150   142   143    1
   151   161   159   ar
   152   153   150    1
   153   149   143   am
   154   149   150    1
   155   143   144    2
   156   150   151    1
   157   151   152    2
