@<TRIPOS>MOLECULE
tmp/4arzB00.pdb
 123 119 0 0 0
SMALL
GASTEIGER

@<TRIPOS>ATOM
      1  N         43.5850   16.2310   32.7960 N.3    14  ARG14      -0.1231
      2  CA        44.4970   17.3450   32.9830 C.3    14  ARG14       0.1694
      3  C         43.7460   18.6630   33.2480 C.2    14  ARG14       0.2592
      4  O         42.6520   18.8910   32.7160 O.2    14  ARG14      -0.2718
      5  CB        45.4480   17.4940   31.7900 C.3    14  ARG14       0.0321
      6  CG        46.2840   18.7630   31.9030 C.3    14  ARG14       0.0489
      7  CD        47.5470   18.8140   31.0480 C.3    14  ARG14       0.2205
      8  NE        48.2630   20.0610   31.3390 N.pl3  14  ARG14      -0.0865
      9  CZ        48.6640   20.9400   30.4230 C.cat  14  ARG14       0.5346
     10  NH1       48.4370   20.7170   29.1330 N.pl3  14  ARG14       0.1354
     11  NH2       49.2600   22.0650   30.8030 N.pl3  14  ARG14       0.1354
     12  N         44.3380   19.4930   34.1150 N.am   15  ARG15      -0.1966
     13  CA        43.7920   20.7950   34.5230 C.3    15  ARG15       0.1729
     14  C         42.4960   20.7310   35.3510 C.2    15  ARG15       0.2616
     15  O         41.7350   21.7040   35.4090 O.2    15  ARG15      -0.2715
     16  CB        43.5960   21.7110   33.2880 C.3    15  ARG15       0.0348
     17  CG        44.9210   22.2200   32.6310 C.3    15  ARG15       0.0492
     18  CD        44.7130   23.3530   31.5830 C.3    15  ARG15       0.2205
     19  NE        44.4440   24.6700   32.1780 N.pl3  15  ARG15      -0.0865
     20  CZ        45.3150   25.3460   32.9260 C.cat  15  ARG15       0.5346
     21  NH1       46.5180   24.8350   33.1730 N.pl3  15  ARG15       0.1354
     22  NH2       44.9840   26.5240   33.4450 N.pl3  15  ARG15       0.1354
     23  N         42.2350   19.5950   35.9890 N.am   16  CYS16      -0.1954
     24  CA        41.0510   19.4720   36.8270 C.3    16  CYS16       0.1843
     25  C         41.3450   20.1950   38.1420 C.2    16  CYS16       0.2626
     26  O         40.4350   20.6710   38.8110 O.2    16  CYS16      -0.2714
     27  CB        40.7260   17.9980   37.0920 C.3    16  CYS16       0.0997
     28  SG        42.1560   16.9570   37.5080 S.3    16  CYS16      -0.0797
     29  N         42.6240   20.2860   38.5000 N.am   17  GLY17      -0.1940
     30  CA        43.0110   20.9720   39.7240 C.3    17  GLY17       0.2014
     31  C         43.7310   20.0580   40.7000 C.2    17  GLY17       0.2639
     32  O         43.9980   20.4380   41.8380 O.2    17  GLY17      -0.2714
     33  N         44.0720   18.8600   40.2370 N.am   18  LYS18      -0.1963
     34  CA        44.7230   17.8610   41.0710 C.3    18  LYS18       0.1728
     35  C         46.0540   18.2570   41.7150 C.2    18  LYS18       0.2617
     36  O         46.4320   17.6970   42.7490 O.2    18  LYS18      -0.2715
     37  CB        44.8610   16.5390   40.2830 C.3    18  LYS18       0.0311
     38  CG        45.8380   16.5480   39.0970 C.3    18  LYS18       0.0038
     39  CD        45.4650   15.4860   38.0400 C.3    18  LYS18       0.0206
     40  CE        46.5130   15.3630   36.9120 C.3    18  LYS18       0.1093
     41  NZ        46.8530   16.6490   36.2260 N.3    18  LYS18      -0.1314
     42  N         46.7600   19.2180   41.1240 N.am   19  SER19      -0.1936
     43  CA        48.0380   19.6570   41.6830 C.3    19  SER19       0.2055
     44  C         47.8250   20.8460   42.6190 C.2    19  SER19       0.2643
     45  O         48.5140   20.9770   43.6360 O.2    19  SER19      -0.2714
     46  CB        49.0150   20.0510   40.5710 C.3    19  SER19       0.2130
     47  OG        48.8180   21.3950   40.1570 O.3    19  SER19      -0.2179
     48  N         46.8820   21.7160   42.2530 N.am   20  SER20      -0.1949
     49  CA        46.5450   22.8860   43.0580 C.3    20  SER20       0.1924
     50  C         46.0180   22.3770   44.3840 C.2    20  SER20       0.2314
     51  O         46.3480   22.8970   45.4440 O.2    20  SER20      -0.2863
     52  CB        45.4560   23.7160   42.3880 C.3    20  SER20       0.2116
     53  OG        45.9670   24.4400   41.2930 O.3    20  SER20      -0.2180
     54  N         47.1010   11.2480   36.2460 N.3    58  GLU58      -0.1245
     55  CA        46.4920   12.0080   35.1600 C.3    58  GLU58       0.1567
     56  C         45.5500   11.1170   34.3690 C.2    58  GLU58       0.2260
     57  O         45.8950    9.9850   34.0330 O.2    58  GLU58      -0.2867
     58  CB        47.5620   12.5670   34.2100 C.3    58  GLU58       0.0388
     59  CG        48.7310   13.2920   34.8830 C.3    58  GLU58       0.1160
     60  CD        49.1850   14.5110   34.0820 C.2    58  GLU58       0.3649
     61  OE1       49.2990   14.3970   32.8360 O.co2  58  GLU58      -0.2457
     62  OE2       49.4420   15.5720   34.6990 O.co2  58  GLU58      -0.2457
     63  N         33.6290   23.0830   35.3480 N.3    89  GLN89      -0.1245
     64  CA        33.6710   24.1400   34.3450 C.3    89  GLN89       0.1566
     65  C         33.0360   23.6760   33.0320 C.2    89  GLN89       0.2260
     66  O         32.3460   24.4420   32.3610 O.2    89  GLN89      -0.2867
     67  CB        35.1270   24.5390   34.0750 C.3    89  GLN89       0.0367
     68  CG        35.9030   25.1170   35.2540 C.3    89  GLN89       0.0905
     69  CD        35.4520   26.5180   35.6190 C.2    89  GLN89       0.2608
     70  OE1       35.1380   27.3260   34.7420 O.2    89  GLN89      -0.2717
     71  NE2       35.4310   26.8200   36.9180 N.am   89  GLN89      -0.0878
     72  N         34.3820   19.6180   41.6670 N.3   120  HIS120     -0.1226
     73  CA        35.2760   20.7650   41.7520 C.3   120  HIS120      0.1752
     74  C         35.0040   22.0360   40.9530 C.2   120  HIS120      0.2595
     75  O         34.1880   22.0580   40.0300 O.2   120  HIS120     -0.2718
     76  CB        36.6860   20.2630   41.4380 C.3   120  HIS120      0.0759
     77  CG        37.7740   21.0470   42.0960 C.ar  120  HIS120      0.0818
     78  ND1       37.6590   21.5470   43.3730 N.ar  120  HIS120     -0.2268
     79  CD2       39.0130   21.3820   41.6700 C.ar  120  HIS120      0.1154
     80  CE1       38.7810   22.1590   43.7070 C.ar  120  HIS120      0.1986
     81  NE2       39.6190   22.0730   42.6900 N.ar  120  HIS120     -0.2212
     82  N         35.7290   23.0890   41.3420 N.am  121  LYS121     -0.1980
     83  CA        35.6730   24.4180   40.7320 C.3   121  LYS121      0.1596
     84  C         34.2850   25.0280   40.7680 C.2   121  LYS121      0.2287
     85  O         33.8810   25.7510   39.8560 O.2   121  LYS121     -0.2864
     86  CB        36.1960   24.3630   39.2910 C.3   121  LYS121      0.0298
     87  CG        37.6220   23.8420   39.2040 C.3   121  LYS121      0.0038
     88  CD        38.2720   24.0640   37.8510 C.3   121  LYS121      0.0206
     89  CE        39.6910   23.5010   37.8590 C.3   121  LYS121      0.1093
     90  NZ        40.3950   23.6620   36.5620 N.3   121  LYS121     -0.1314
     91  N         33.2450   27.4130   42.3910 N.3   123  ASP123     -0.1239
     92  CA        33.2780   28.7870   42.8660 C.3   123  ASP123      0.1674
     93  C         32.6880   29.6710   41.7610 C.2   123  ASP123      0.2266
     94  O         33.1320   29.6250   40.6110 O.2   123  ASP123     -0.2867
     95  CB        34.7170   29.2040   43.2020 C.3   123  ASP123      0.1410
     96  CG        35.7530   28.4980   42.3430 C.2   123  ASP123      0.3668
     97  OD1       35.8150   27.2550   42.4020 O.co2 123  ASP123     -0.2456
     98  OD2       36.5090   29.1800   41.6170 O.co2 123  ASP123     -0.2456
     99  N         35.9520   23.8050   45.9420 N.3   161  SER161     -0.1202
    100  CA        36.6110   24.9380   45.2670 C.3   161  SER161      0.2020
    101  C         37.8380   25.3990   46.0690 C.2   161  SER161      0.2619
    102  O         37.6940   25.7880   47.2240 O.2   161  SER161     -0.2717
    103  CB        35.6450   26.1090   45.1580 C.3   161  SER161      0.2103
    104  OG        36.3670   27.3080   44.9830 O.3   161  SER161     -0.2182
    105  N         39.0350   25.3930   45.4750 N.am  162  ILE162     -0.1965
    106  CA        40.2430   25.7990   46.2260 C.3   162  ILE162      0.1727
    107  C         40.3860   27.2980   46.5260 C.2   162  ILE162      0.2616
    108  O         41.4000   27.7480   47.0720 O.2   162  ILE162     -0.2715
    109  CB        41.5840   25.2980   45.5620 C.3   162  ILE162      0.0290
    110  CG1       41.7590   25.8970   44.1670 C.3   162  ILE162      0.0022
    111  CG2       41.6250   23.7710   45.5420 C.3   162  ILE162      0.0023
    112  CD1       43.1310   25.6240   43.5570 C.3   162  ILE162      0.0001
    113  N         39.3750   28.0730   46.1650 N.am  163  PHE163     -0.1974
    114  CA        39.3720   29.4980   46.4640 C.3   163  PHE163      0.1639
    115  C         38.2390   29.6260   47.4700 C.2   163  PHE163      0.2290
    116  O         37.7600   30.7200   47.7620 O.2   163  PHE163     -0.2864
    117  CB        39.0780   30.3160   45.1970 C.3   163  PHE163      0.0560
    118  CG        40.1730   30.2540   44.1770 C.ar  163  PHE163     -0.0200
    119  CD1       41.4380   30.7800   44.4750 C.ar  163  PHE163     -0.0042
    120  CD2       39.9680   29.6360   42.9420 C.ar  163  PHE163     -0.0042
    121  CE1       42.4970   30.6910   43.5520 C.ar  163  PHE163     -0.0003
    122  CE2       41.0190   29.5360   42.0030 C.ar  163  PHE163     -0.0003
    123  CZ        42.2860   30.0620   42.3120 C.ar  163  PHE163     -0.0000
@<TRIPOS>BOND
     1    10     9    1
     2     9    11    1
     3     9     8    2
     4     7     8    1
     5     7     6    1
     6    18    19    1
     7    18    17    1
     8     5     6    1
     9     5     2    1
    10    19    20    2
    11    66    65    2
    12    17    16    1
    13     4     3    2
    14     1     2    1
    15    61    60   ar
    16    20    21    1
    17    20    22    1
    18     2     3    1
    19    65    64    1
    20     3    12   am
    21    16    13    1
    22    57    56    2
    23    67    64    1
    24    67    68    1
    25    60    62   ar
    26    60    59    1
    27    12    13    1
    28    58    59    1
    29    58    55    1
    30    64    63    1
    31    56    55    1
    32    13    14    1
    33    70    69    2
    34    55    54    1
    35    68    69    1
    36    14    15    2
    37    14    23   am
    38    69    71   am
    39    23    24    1
    40    41    40    1
    41    90    89    1
    42    24    27    1
    43    24    25    1
    44    40    39    1
    45    27    28    1
    46    88    89    1
    47    88    87    1
    48    39    38    1
    49    25    29   am
    50    25    26    2
    51    29    30    1
    52    38    37    1
    53    87    86    1
    54    86    83    1
    55    30    31    1
    56    85    84    2
    57    75    74    2
    58    47    46    1
    59    33    31   am
    60    33    34    1
    61    37    34    1
    62    46    43    1
    63    94    93    2
    64    31    32    2
    65    83    84    1
    66    83    82    1
    67    74    82   am
    68    74    73    1
    69    34    35    1
    70    42    43    1
    71    42    35   am
    72    53    52    1
    73    76    73    1
    74    76    77    1
    75    98    96   ar
    76    72    73    1
    77    79    77   ar
    78    79    81   ar
    79    43    44    1
    80    35    36    2
    81    93    92    1
    82   122   123   ar
    83   122   120   ar
    84    77    78   ar
    85    48    44   am
    86    48    49    1
    87   123   121   ar
    88    96    97   ar
    89    96    95    1
    90    52    49    1
    91    91    92    1
    92    44    45    2
    93    81    80   ar
    94    92    95    1
    95   120   118   ar
    96    49    50    1
    97    78    80   ar
    98   121   119   ar
    99   112   110    1
   100   110   109    1
   101   118   119   ar
   102   118   117    1
   103    50    51    2
   104   104   103    1
   105   103   100    1
   106   117   114    1
   107   100    99    1
   108   100   101    1
   109   105   101   am
   110   105   106    1
   111   111   109    1
   112   109   106    1
   113   101   102    2
   114   113   114    1
   115   113   107   am
   116   106   107    1
   117   114   115    1
   118   107   108    2
   119   115   116    2
