@<TRIPOS>MOLECULE
tmp/4as0A00.pdb
 135 126 0 0 0
SMALL
GASTEIGER

@<TRIPOS>ATOM
      1  N        -16.4400  -38.9390   -5.5760 N.3    12  LEU12      -0.1231
      2  CA       -17.8350  -38.7090   -5.9970 C.3    12  LEU12       0.1693
      3  C        -17.9580  -37.4180   -6.7910 C.2    12  LEU12       0.2592
      4  O        -18.7440  -37.3380   -7.7190 O.2    12  LEU12      -0.2718
      5  CB       -18.7800  -38.6800   -4.7990 C.3    12  LEU12       0.0284
      6  CG       -19.0870  -40.0550   -4.2050 C.3    12  LEU12       0.0019
      7  CD1      -19.8660  -39.9760   -2.8740 C.3    12  LEU12       0.0001
      8  CD2      -19.8450  -40.9010   -5.2370 C.3    12  LEU12       0.0001
      9  N        -17.1850  -36.4060   -6.4420 N.am   13  GLY13      -0.1957
     10  CA       -17.2110  -35.1560   -7.1890 C.3    13  GLY13       0.1869
     11  C        -16.4080  -34.1160   -6.4500 C.2    13  GLY13       0.2309
     12  O        -15.8760  -34.3870   -5.3890 O.2    13  GLY13      -0.2863
     13  N        -17.5770  -26.8210   -3.1210 N.3    17  PHE17      -0.1241
     14  CA       -17.8200  -27.5140   -1.8690 C.3    17  PHE17       0.1605
     15  C        -16.6410  -28.3790   -1.3870 C.2    17  PHE17       0.2264
     16  O        -16.7280  -28.9940   -0.3320 O.2    17  PHE17      -0.2867
     17  CB       -19.0330  -28.4200   -2.0330 C.3    17  PHE17       0.0534
     18  CG       -18.9350  -29.3450   -3.2060 C.ar   17  PHE17      -0.0203
     19  CD1      -19.3740  -28.9400   -4.4700 C.ar   17  PHE17      -0.0042
     20  CD2      -18.4040  -30.6250   -3.0560 C.ar   17  PHE17      -0.0042
     21  CE1      -19.2820  -29.8020   -5.5760 C.ar   17  PHE17      -0.0003
     22  CE2      -18.3190  -31.4970   -4.1460 C.ar   17  PHE17      -0.0003
     23  CZ       -18.7490  -31.0820   -5.4080 C.ar   17  PHE17      -0.0000
     24  N        -15.3580  -34.7250   -2.4790 N.3    20  VAL20      -0.1245
     25  CA       -16.1210  -35.7090   -1.7220 C.3    20  VAL20       0.1561
     26  C        -15.8440  -37.1090   -2.2530 C.2    20  VAL20       0.2260
     27  O        -15.8510  -37.3000   -3.4590 O.2    20  VAL20      -0.2867
     28  CB       -17.6480  -35.4460   -1.8080 C.3    20  VAL20       0.0252
     29  CG1      -18.4260  -36.5420   -1.0920 C.3    20  VAL20       0.0019
     30  CG2      -18.0090  -34.0940   -1.2430 C.3    20  VAL20       0.0019
     31  N        -19.9140  -40.6250    3.3590 N.3    33  ALA33      -0.1245
     32  CA       -19.3310  -39.6860    2.4260 C.3    33  ALA33       0.1562
     33  C        -18.2360  -38.9690    3.1730 C.2    33  ALA33       0.2260
     34  O        -18.4000  -38.6240    4.3280 O.2    33  ALA33      -0.2867
     35  CB       -20.3880  -38.6880    1.9110 C.3    33  ALA33       0.0290
     36  N        -15.7260  -35.7720    3.0600 N.3    35  LYS35      -0.1245
     37  CA       -15.6890  -34.4710    2.4310 C.3    35  LYS35       0.1561
     38  C        -14.4870  -33.6810    2.9220 C.2    35  LYS35       0.2260
     39  O        -14.3170  -33.4500    4.1190 O.2    35  LYS35      -0.2867
     40  CB       -16.9870  -33.7260    2.7490 C.3    35  LYS35       0.0271
     41  CG       -17.1090  -32.3170    2.1430 C.3    35  LYS35       0.0035
     42  CD       -18.3930  -31.6380    2.6430 C.3    35  LYS35       0.0206
     43  CE       -18.8070  -30.4370    1.7970 C.3    35  LYS35       0.1093
     44  NZ       -20.1960  -29.9230    2.1330 N.3    35  LYS35      -0.1314
     45  N        -29.0290  -34.3390    6.1790 N.3    72  ILE72      -0.1245
     46  CA       -27.8160  -35.1570    6.2540 C.3    72  ILE72       0.1561
     47  C        -27.1610  -35.0540    7.6400 C.2    72  ILE72       0.2260
     48  O        -27.0080  -33.9620    8.1670 O.2    72  ILE72      -0.2867
     49  CB       -26.7930  -34.6800    5.1780 C.3    72  ILE72       0.0252
     50  CG1      -25.9140  -35.8510    4.7350 C.3    72  ILE72       0.0019
     51  CG2      -26.0350  -33.3670    5.6420 C.3    72  ILE72       0.0019
     52  CD1      -26.7380  -36.8890    3.9640 C.3    72  ILE72       0.0001
     53  N        -19.9960  -37.9850    6.6510 N.3    88  LEU88      -0.1231
     54  CA       -21.4190  -37.7360    6.5530 C.3    88  LEU88       0.1693
     55  C        -22.0770  -39.0210    6.1490 C.2    88  LEU88       0.2592
     56  O        -21.4130  -39.8800    5.5570 O.2    88  LEU88      -0.2718
     57  CB       -21.6970  -36.6770    5.4750 C.3    88  LEU88       0.0284
     58  CG       -21.0810  -35.2900    5.6830 C.3    88  LEU88       0.0019
     59  CD1      -20.6090  -34.6560    4.3660 C.3    88  LEU88       0.0001
     60  CD2      -22.0650  -34.3800    6.3770 C.3    88  LEU88       0.0001
     61  N        -23.3760  -39.1400    6.4600 N.am   89  GLU89      -0.1966
     62  CA       -24.2380  -40.2020    5.9260 C.3    89  GLU89       0.1733
     63  C        -24.1700  -40.2890    4.4150 C.2    89  GLU89       0.2616
     64  O        -24.0140  -39.2820    3.7480 O.2    89  GLU89      -0.2715
     65  CB       -25.7120  -39.9400    6.2330 C.3    89  GLU89       0.0429
     66  CG       -26.1230  -40.0020    7.6750 C.3    89  GLU89       0.1163
     67  CD       -27.6340  -39.7790    7.8130 C.2    89  GLU89       0.3649
     68  OE1      -28.1300  -38.7550    7.2510 O.co2  89  GLU89      -0.2457
     69  OE2      -28.3150  -40.6290    8.4630 O.co2  89  GLU89      -0.2457
     70  N        -24.3560  -41.4950    3.8920 N.am   90  ARG90      -0.1964
     71  CA       -24.5260  -41.7090    2.4640 C.3    90  ARG90       0.1714
     72  C        -25.6020  -42.7770    2.2530 C.2    90  ARG90       0.2458
     73  O        -25.3580  -43.9610    2.5010 O.2    90  ARG90      -0.2730
     74  CB       -23.2090  -42.1370    1.8120 C.3    90  ARG90       0.0347
     75  CG       -23.3480  -42.5700    0.3640 C.3    90  ARG90       0.0492
     76  CD       -21.9990  -42.7570   -0.3310 C.3    90  ARG90       0.2205
     77  NE       -21.2350  -43.8820    0.2140 N.pl3  90  ARG90      -0.0865
     78  CZ       -21.3770  -45.1600   -0.1550 C.cat  90  ARG90       0.5346
     79  NH1      -22.2720  -45.5220   -1.0760 N.pl3  90  ARG90       0.1354
     80  NH2      -20.6320  -46.0940    0.4250 N.pl3  90  ARG90       0.1354
     81  N        -26.7970  -42.3670    1.8020 N.am   91  PRO91      -0.2727
     82  CA       -27.8050  -43.3620    1.4760 C.3    91  PRO91       0.1402
     83  C        -27.3630  -44.1780    0.2740 C.2    91  PRO91       0.2269
     84  O        -26.5820  -43.7110   -0.5530 O.2    91  PRO91      -0.2865
     85  CB       -29.0530  -42.5300    1.1130 C.3    91  PRO91       0.0296
     86  CG       -28.7440  -41.1390    1.4620 C.3    91  PRO91       0.0237
     87  CD       -27.2500  -41.0040    1.4870 C.3    91  PRO91       0.0939
     88  N        -28.8250  -44.0020   -3.9030 N.3    94  VAL94      -0.1245
     89  CA       -29.1560  -42.5920   -3.8110 C.3    94  VAL94       0.1561
     90  C        -29.1300  -41.9370   -5.1940 C.2    94  VAL94       0.2260
     91  O        -28.4290  -42.3870   -6.0950 O.2    94  VAL94      -0.2867
     92  CB       -28.1800  -41.8700   -2.8530 C.3    94  VAL94       0.0252
     93  CG1      -26.7680  -41.8170   -3.4620 C.3    94  VAL94       0.0019
     94  CG2      -28.6860  -40.4950   -2.5280 C.3    94  VAL94       0.0019
     95  N        -29.8780  -29.7700   -6.8000 N.3   139  GLU139     -0.1231
     96  CA       -28.6000  -30.4670   -6.5680 C.3   139  GLU139      0.1699
     97  C        -28.3120  -30.8060   -5.1210 C.2   139  GLU139      0.2592
     98  O        -27.5910  -31.7630   -4.8610 O.2   139  GLU139     -0.2718
     99  CB       -27.4110  -29.6370   -7.0400 C.3   139  GLU139      0.0402
    100  CG       -27.2410  -29.5730   -8.5160 C.3   139  GLU139      0.1161
    101  CD       -25.9200  -28.8930   -8.8980 C.2   139  GLU139      0.3649
    102  OE1      -24.8380  -29.4810   -8.5920 O.co2 139  GLU139     -0.2457
    103  OE2      -25.9800  -27.7790   -9.4870 O.co2 139  GLU139     -0.2457
    104  N        -28.8310  -30.0010   -4.1870 N.am  140  ASN140     -0.1974
    105  CA       -28.5650  -30.1860   -2.7500 C.3   140  ASN140      0.1688
    106  C        -29.6190  -30.9980   -2.0240 C.2   140  ASN140      0.2292
    107  O        -29.7650  -30.9100   -0.7970 O.2   140  ASN140     -0.2864
    108  CB       -28.3500  -28.8220   -2.0920 C.3   140  ASN140      0.1181
    109  CG       -27.0410  -28.1840   -2.5420 C.2   140  ASN140      0.2629
    110  OD1      -26.1480  -28.9050   -3.0110 O.2   140  ASN140     -0.2716
    111  ND2      -26.9090  -26.8420   -2.4100 N.am  140  ASN140     -0.0877
    112  N        -30.9020  -35.0130   -1.7890 N.3   142  LEU142     -0.1245
    113  CA       -30.6760  -36.4030   -2.1360 C.3   142  LEU142      0.1561
    114  C        -31.9270  -37.1990   -1.8700 C.2   142  LEU142      0.2260
    115  O        -32.5760  -36.9950   -0.8560 O.2   142  LEU142     -0.2867
    116  CB       -29.5540  -37.0050   -1.2950 C.3   142  LEU142      0.0270
    117  CG       -28.2190  -36.2940   -1.3580 C.3   142  LEU142      0.0019
    118  CD1      -27.2070  -37.0210   -0.4470 C.3   142  LEU142      0.0001
    119  CD2      -27.7400  -36.2290   -2.7850 C.3   142  LEU142      0.0001
    120  N        -28.5200  -31.5290    1.7840 N.3   153  ILE153     -0.1231
    121  CA       -27.0760  -31.5390    1.9650 C.3   153  ILE153      0.1692
    122  C        -26.4520  -30.1690    1.7110 C.2   153  ILE153      0.2592
    123  O        -27.1020  -29.2640    1.2140 O.2   153  ILE153     -0.2718
    124  CB       -26.3600  -32.6020    1.0390 C.3   153  ILE153      0.0266
    125  CG1      -26.5550  -32.2730   -0.4340 C.3   153  ILE153      0.0019
    126  CG2      -26.8470  -34.0410    1.3370 C.3   153  ILE153      0.0020
    127  CD1      -25.6990  -33.1170   -1.3130 C.3   153  ILE153      0.0001
    128  N        -25.1690  -30.0720    2.0630 N.am  154  ASP154     -0.1974
    129  CA       -24.2780  -28.9260    1.8020 C.3   154  ASP154      0.1709
    130  C        -24.6800  -27.6190    2.4950 C.2   154  ASP154      0.2293
    131  O        -25.2880  -26.7260    1.9060 O.2   154  ASP154     -0.2864
    132  CB       -24.0290  -28.6960    0.3070 C.3   154  ASP154      0.1436
    133  CG       -22.8320  -27.7550    0.0440 C.2   154  ASP154      0.3671
    134  OD1      -22.0400  -27.4480    0.9750 O.co2 154  ASP154     -0.2456
    135  OD2      -22.6700  -27.3200   -1.1100 O.co2 154  ASP154     -0.2456
@<TRIPOS>BOND
     1   103   101   ar
     2   101   102   ar
     3   101   100    1
     4   100    99    1
     5     4     3    2
     6    10    11    1
     7    10     9    1
     8    99    96    1
     9    95    96    1
    10     3     9   am
    11     3     2    1
    12    96    97    1
    13    11    12    2
    14    91    90    2
    15     2     1    1
    16     2     5    1
    17    21    23   ar
    18    21    19   ar
    19    23    22   ar
    20     8     6    1
    21    90    89    1
    22    97    98    2
    23    97   104   am
    24     5     6    1
    25    19    18   ar
    26     6     7    1
    27   104   105    1
    28    22    20   ar
    29    88    89    1
    30    89    92    1
    31    93    92    1
    32    27    26    2
    33    18    20   ar
    34    18    17    1
    35    13    14    1
    36   110   109    2
    37    92    94    1
    38   119   117    1
    39   105   108    1
    40   105   106    1
    41   109   111   am
    42   109   108    1
    43    24    25    1
    44    26    25    1
    45   113   114    1
    46   113   112    1
    47   113   116    1
    48    17    14    1
    49   106   107    2
    50   114   115    2
    51    14    15    1
    52    28    25    1
    53    28    30    1
    54    28    29    1
    55    15    16    2
    56   117   116    1
    57   117   118    1
    58   127   125    1
    59   135   133   ar
    60    79    78    1
    61    84    83    2
    62   125   124    1
    63    76    77    1
    64    76    75    1
    65    78    77    2
    66    78    80    1
    67   133   132    1
    68   133   134   ar
    69    83    82    1
    70   132   129    1
    71    75    74    1
    72   124   126    1
    73   124   121    1
    74    85    86    1
    75    85    82    1
    76   123   122    2
    77    86    87    1
    78    82    81    1
    79    87    81    1
    80   122   121    1
    81   122   128   am
    82   120   121    1
    83    43    44    1
    84    43    42    1
    85   129   128    1
    86   129   130    1
    87    81    72   am
    88    74    71    1
    89   131   130    2
    90    35    32    1
    91    41    42    1
    92    41    40    1
    93    72    71    1
    94    72    73    2
    95    32    33    1
    96    32    31    1
    97    37    40    1
    98    37    38    1
    99    37    36    1
   100    71    70    1
   101    38    39    2
   102    33    34    2
   103    64    63    2
   104    70    63   am
   105    52    50    1
   106    59    58    1
   107    63    62    1
   108    50    49    1
   109    49    51    1
   110    49    46    1
   111    57    58    1
   112    57    54    1
   113    56    55    2
   114    58    60    1
   115    62    65    1
   116    62    61    1
   117    55    61   am
   118    55    54    1
   119    45    46    1
   120    65    66    1
   121    46    47    1
   122    54    53    1
   123    68    67   ar
   124    47    48    2
   125    66    67    1
   126    67    69   ar
