@<TRIPOS>MOLECULE
tmp/4as2A00.pdb
 121 110 0 0 0
SMALL
GASTEIGER

@<TRIPOS>ATOM
      1  N         32.2410   36.4290   44.8780 N.3    31  ASP31      -0.1239
      2  CA        31.9500   37.7390   44.3410 C.3    31  ASP31       0.1674
      3  C         33.2730   38.4930   44.0860 C.2    31  ASP31       0.2266
      4  O         34.3210   38.1740   44.6590 O.2    31  ASP31      -0.2867
      5  CB        30.9940   38.4920   45.2330 C.3    31  ASP31       0.1410
      6  CG        30.7530   39.8890   44.7580 C.2    31  ASP31       0.3668
      7  OD1       30.3600   40.1300   43.6120 O.co2  31  ASP31      -0.2456
      8  OD2       31.0100   40.7880   45.5180 O.co2  31  ASP31      -0.2456
      9  N         33.6650   42.5580   43.3910 N.3    33  ASP33      -0.1239
     10  CA        33.7160   43.8790   44.0430 C.3    33  ASP33       0.1674
     11  C         33.5190   43.8240   45.5610 C.2    33  ASP33       0.2266
     12  O         32.5270   43.2520   46.0340 O.2    33  ASP33      -0.2867
     13  CB        32.6830   44.8150   43.4140 C.3    33  ASP33       0.1410
     14  CG        32.9280   45.0110   41.9340 C.2    33  ASP33       0.3668
     15  OD1       33.9380   45.6780   41.5650 O.co2  33  ASP33      -0.2456
     16  OD2       32.0750   44.5440   41.1490 O.co2  33  ASP33      -0.2456
     17  N         35.0520   49.0540   44.4600 N.3    40  ASP40      -0.1239
     18  CA        34.1710   48.6850   43.3830 C.3    40  ASP40       0.1674
     19  C         34.6530   49.1450   42.0270 C.2    40  ASP40       0.2266
     20  O         34.9350   50.3400   41.7780 O.2    40  ASP40      -0.2867
     21  CB        32.7550   49.2100   43.6620 C.3    40  ASP40       0.1410
     22  CG        31.6900   48.5470   42.7260 C.2    40  ASP40       0.3668
     23  OD1       31.5080   49.0450   41.5750 O.co2  40  ASP40      -0.2456
     24  OD2       31.0860   47.5270   43.1490 O.co2  40  ASP40      -0.2456
     25  N         33.1000   49.1210   38.7760 N.3    42  GLU42      -0.1231
     26  CA        32.2770   49.9340   37.8900 C.3    42  GLU42       0.1699
     27  C         32.0040   51.3110   38.5640 C.2    42  GLU42       0.2592
     28  O         31.9910   52.3700   37.9050 O.2    42  GLU42      -0.2718
     29  CB        30.9880   49.2090   37.5420 C.3    42  GLU42       0.0402
     30  CG        31.1540   47.9450   36.7060 C.3    42  GLU42       0.1161
     31  CD        29.8370   47.2530   36.3810 C.2    42  GLU42       0.3649
     32  OE1       28.8670   47.3790   37.1870 O.co2  42  GLU42      -0.2457
     33  OE2       29.7700   46.5320   35.3570 O.co2  42  GLU42      -0.2457
     34  N         31.8140   51.3110   39.8750 N.am   43  GLU43      -0.1979
     35  CA        31.4630   52.5740   40.5740 C.3    43  GLU43       0.1602
     36  C         32.5960   53.5370   40.6340 C.2    43  GLU43       0.2287
     37  O         32.3920   54.7400   40.8600 O.2    43  GLU43      -0.2864
     38  CB        30.9340   52.2900   41.9730 C.3    43  GLU43       0.0415
     39  CG        29.4690   51.8120   41.8960 C.3    43  GLU43       0.1163
     40  CD        28.9500   51.3590   43.2630 C.2    43  GLU43       0.3649
     41  OE1       29.7820   51.0540   44.1550 O.co2  43  GLU43      -0.2457
     42  OE2       27.7460   51.1910   43.3920 O.co2  43  GLU43      -0.2457
     43  N         23.1570   57.3240   37.7350 N.3    83  TYR83      -0.1241
     44  CA        23.1780   55.9630   38.2530 C.3    83  TYR83       0.1605
     45  C         22.5400   55.8310   39.6220 C.2    83  TYR83       0.2264
     46  O         21.6930   54.9690   39.7890 O.2    83  TYR83      -0.2867
     47  CB        24.6270   55.4710   38.3110 C.3    83  TYR83       0.0534
     48  CG        24.8790   54.2930   39.2070 C.ar   83  TYR83      -0.0201
     49  CD1       24.2670   53.0340   38.9780 C.ar   83  TYR83      -0.0009
     50  CD2       25.8130   54.3750   40.2320 C.ar   83  TYR83      -0.0009
     51  CE1       24.5480   51.9390   39.7860 C.ar   83  TYR83       0.0417
     52  CE2       26.0970   53.2530   41.0320 C.ar   83  TYR83       0.0417
     53  CZ        25.4780   52.0600   40.7940 C.ar   83  TYR83       0.1957
     54  OH        25.8040   50.9820   41.5970 O.3    83  TYR83      -0.2866
     55  N         19.2840   53.8600   40.9080 N.3    87  CYS87      -0.1235
     56  CA        19.1600   52.9030   42.0150 C.3    87  CYS87       0.1677
     57  C         17.9870   53.2640   42.8730 C.2    87  CYS87       0.2270
     58  O         17.3580   52.3680   43.3940 O.2    87  CYS87      -0.2867
     59  CB        20.4100   52.7420   42.9240 C.3    87  CYS87       0.0956
     60  SG        21.8680   52.1930   42.0160 S.3    87  CYS87      -0.0801
     61  N         17.2690   48.6620   42.5020 N.3    91  ASP91      -0.1239
     62  CA        18.4430   47.8740   42.1320 C.3    91  ASP91       0.1674
     63  C         18.3170   47.2210   40.7390 C.2    91  ASP91       0.2266
     64  O         19.2980   47.2000   39.9830 O.2    91  ASP91      -0.2867
     65  CB        18.6480   46.7830   43.1840 C.3    91  ASP91       0.1410
     66  CG        19.2070   47.3640   44.5050 C.2    91  ASP91       0.3668
     67  OD1       19.7120   48.5110   44.4750 O.co2  91  ASP91      -0.2456
     68  OD2       19.1470   46.6600   45.5100 O.co2  91  ASP91      -0.2456
     69  N         21.5560   48.1100   38.6060 N.3    95  TYR95      -0.1241
     70  CA        22.5360   47.0320   38.3350 C.3    95  TYR95       0.1605
     71  C         22.8430   46.8460   36.8270 C.2    95  TYR95       0.2264
     72  O         24.0010   46.8590   36.4470 O.2    95  TYR95      -0.2867
     73  CB        22.0790   45.7080   38.9430 C.3    95  TYR95       0.0534
     74  CG        22.2610   45.6050   40.4620 C.ar   95  TYR95      -0.0201
     75  CD1       22.1370   46.7550   41.3240 C.ar   95  TYR95      -0.0009
     76  CD2       22.5750   44.3730   41.0260 C.ar   95  TYR95      -0.0009
     77  CE1       22.3300   46.6420   42.6950 C.ar   95  TYR95       0.0417
     78  CE2       22.7820   44.2440   42.3780 C.ar   95  TYR95       0.0417
     79  CZ        22.6560   45.3510   43.1990 C.ar   95  TYR95       0.1957
     80  OH        22.8770   45.0950   44.5130 O.3    95  TYR95      -0.2866
     81  N         24.6340   50.1000   35.2380 N.3    98  VAL98      -0.1245
     82  CA        26.0290   50.4970   35.5620 C.3    98  VAL98       0.1561
     83  C         27.0550   49.5330   34.9350 C.2    98  VAL98       0.2260
     84  O         28.2520   49.8270   34.9550 O.2    98  VAL98      -0.2867
     85  CB        26.2170   50.7340   37.1140 C.3    98  VAL98       0.0252
     86  CG1       26.3320   49.4530   37.9230 C.3    98  VAL98       0.0019
     87  CG2       27.3570   51.6640   37.4130 C.3    98  VAL98       0.0019
     88  N         28.2490   40.8670   39.9610 N.3   167  ALA167     -0.1231
     89  CA        27.1960   41.6510   39.3150 C.3   167  ALA167      0.1694
     90  C         27.7740   42.8070   38.5450 C.2   167  ALA167      0.2591
     91  O         27.0260   43.7500   38.1400 O.2   167  ALA167     -0.2718
     92  CB        26.1980   42.1870   40.3370 C.3   167  ALA167      0.0304
     93  N         29.0900   42.7790   38.3140 N.am  168  ALA168     -0.1980
     94  CA        29.6700   43.7490   37.4370 C.3   168  ALA168      0.1597
     95  C         29.8170   43.0890   36.0010 C.2   168  ALA168      0.2287
     96  O         29.7640   41.8660   35.8490 O.2   168  ALA168     -0.2864
     97  CB        31.0300   44.1970   38.0090 C.3   168  ALA168      0.0319
     98  N         27.7570   41.7220   49.7880 N.3   263  THR263     -0.1218
     99  CA        26.4880   42.4710   49.6550 C.3   263  THR263      0.1862
    100  C         25.3260   41.5470   50.0060 C.2   263  THR263      0.2287
    101  O         25.1270   40.5610   49.3250 O.2   263  THR263     -0.2866
    102  CB        26.3320   43.1510   48.3170 C.3   263  THR263      0.1770
    103  OG1       27.4860   43.9480   48.1030 O.3   263  THR263     -0.2211
    104  CG2       25.0160   44.1000   48.2450 C.3   263  THR263      0.0375
    105  N         22.4850   41.0340   46.9980 N.3   266  SER266     -0.1217
    106  CA        23.0270   40.5920   45.7600 C.3   266  SER266      0.1889
    107  C         23.7980   39.2550   45.9190 C.2   266  SER266      0.2288
    108  O         23.8160   38.4840   44.9860 O.2   266  SER266     -0.2866
    109  CB        23.9450   41.6890   45.2060 C.3   266  SER266      0.2089
    110  OG        24.3410   41.3560   43.9130 O.3   266  SER266     -0.2183
    111  N         32.2290   44.7960   55.3130 N.3   286  ARG286     -0.1245
    112  CA        32.7170   46.1320   55.0910 C.3   286  ARG286      0.1563
    113  C         31.8080   47.2240   55.6680 C.2   286  ARG286      0.2260
    114  O         32.1790   48.3760   55.6590 O.2   286  ARG286     -0.2867
    115  CB        32.9320   46.4030   53.5800 C.3   286  ARG286      0.0307
    116  CG        31.6490   46.1640   52.7750 C.3   286  ARG286      0.0489
    117  CD        31.6490   46.8080   51.4270 C.3   286  ARG286      0.2205
    118  NE        30.5820   46.2550   50.6120 N.pl3 286  ARG286     -0.0865
    119  CZ        29.7120   46.9880   49.9350 C.cat 286  ARG286      0.5346
    120  NH1       29.7340   48.3060   50.0390 N.pl3 286  ARG286      0.1354
    121  NH2       28.7980   46.4210   49.1680 N.pl3 286  ARG286      0.1354
@<TRIPOS>BOND
     1    83    84    2
     2    83    82    1
     3    81    82    1
     4    33    31   ar
     5    82    85    1
     6    96    95    2
     7    95    94    1
     8    31    30    1
     9    31    32   ar
    10    72    71    2
    11    30    29    1
    12    71    70    1
    13    85    87    1
    14    85    86    1
    15    94    97    1
    16    94    93    1
    17    29    26    1
    18    43    44    1
    19    26    27    1
    20    26    25    1
    21    28    27    2
    22    91    90    2
    23    44    47    1
    24    44    45    1
    25    47    48    1
    26    93    90   am
    27    70    69    1
    28    70    73    1
    29    90    89    1
    30    27    34   am
    31    73    74    1
    32    49    48   ar
    33    49    51   ar
    34    48    50   ar
    35    89    88    1
    36    89    92    1
    37    45    46    2
    38    51    53   ar
    39    34    35    1
    40    64    63    2
    41    50    52   ar
    42    74    76   ar
    43    74    75   ar
    44    35    36    1
    45    35    38    1
    46    36    37    2
    47    63    62    1
    48    53    52   ar
    49    53    54    1
    50    55    56    1
    51    76    78   ar
    52    16    14   ar
    53    75    77   ar
    54    15    14   ar
    55    23    22   ar
    56    20    19    2
    57    39    38    1
    58    39    40    1
    59    14    13    1
    60    56    57    1
    61    56    59    1
    62    60    59    1
    63    19    18    1
    64    62    61    1
    65    62    65    1
    66    78    79   ar
    67    77    79   ar
    68    22    24   ar
    69    22    21    1
    70    57    58    2
    71    65    66    1
    72    79    80    1
    73    40    42   ar
    74    40    41   ar
    75    18    21    1
    76    18    17    1
    77     9    10    1
    78    13    10    1
    79     7     6   ar
    80   110   109    1
    81    10    11    1
    82     3     2    1
    83     3     4    2
    84     2     1    1
    85     2     5    1
    86    67    66   ar
    87    66    68   ar
    88     6     5    1
    89     6     8   ar
    90   108   107    2
    91   109   106    1
    92    11    12    2
    93   106   107    1
    94   106   105    1
    95   103   102    1
    96   104   102    1
    97   102    99    1
    98   121   119    1
    99   101   100    2
   100    99    98    1
   101    99   100    1
   102   119   120    1
   103   119   118    2
   104   118   117    1
   105   117   116    1
   106   116   115    1
   107   115   112    1
   108   112   111    1
   109   112   113    1
   110   114   113    2
