@<TRIPOS>MOLECULE
tmp/4as3C02.pdb
 106 104 0 0 0
SMALL
GASTEIGER

@<TRIPOS>ATOM
      1  N        105.7800   54.0770  -17.6230 N.3    43  GLU43      -0.1245
      2  CA       106.0980   55.4160  -18.0800 C.3    43  GLU43       0.1567
      3  C        106.0590   55.5270  -19.5880 C.2    43  GLU43       0.2260
      4  O        106.2540   56.6150  -20.1260 O.2    43  GLU43      -0.2867
      5  CB       107.4730   55.8300  -17.6010 C.3    43  GLU43       0.0388
      6  CG       107.4570   56.2260  -16.1450 C.3    43  GLU43       0.1160
      7  CD       108.8520   56.4000  -15.5750 C.2    43  GLU43       0.3649
      8  OE1      109.8200   55.8380  -16.1590 O.co2  43  GLU43      -0.2457
      9  OE2      108.9710   57.0850  -14.5330 O.co2  43  GLU43      -0.2457
     10  N        102.0400   63.6950  -14.0400 N.3    83  TYR83      -0.1227
     11  CA       102.8090   62.6390  -13.3860 C.3    83  TYR83       0.1736
     12  C        104.1630   63.1550  -12.9140 C.2    83  TYR83       0.2595
     13  O        104.5030   63.0060  -11.7380 O.2    83  TYR83      -0.2718
     14  CB       102.9670   61.4240  -14.3180 C.3    83  TYR83       0.0548
     15  CG       104.1140   60.5040  -13.9450 C.ar   83  TYR83      -0.0200
     16  CD1      104.0660   59.7090  -12.7800 C.ar   83  TYR83      -0.0009
     17  CD2      105.2420   60.4250  -14.7450 C.ar   83  TYR83      -0.0009
     18  CE1      105.1170   58.8720  -12.4310 C.ar   83  TYR83       0.0417
     19  CE2      106.3070   59.5960  -14.4020 C.ar   83  TYR83       0.0417
     20  CZ       106.2400   58.8270  -13.2430 C.ar   83  TYR83       0.1957
     21  OH       107.2920   58.0270  -12.9220 O.3    83  TYR83      -0.2866
     22  N        104.8920   63.8220  -13.8080 N.am   84  TYR84      -0.1976
     23  CA       106.2040   64.4210  -13.4770 C.3    84  TYR84       0.1639
     24  C        106.1140   65.4280  -12.3930 C.2    84  TYR84       0.2290
     25  O        107.0260   65.4890  -11.5810 O.2    84  TYR84      -0.2864
     26  CB       106.8550   65.1020  -14.6820 C.3    84  TYR84       0.0560
     27  CG       107.9120   64.2810  -15.4090 C.ar   84  TYR84      -0.0198
     28  CD1      107.6910   62.9270  -15.7510 C.ar   84  TYR84      -0.0009
     29  CD2      109.1470   64.8720  -15.7960 C.ar   84  TYR84      -0.0009
     30  CE1      108.6700   62.1830  -16.4410 C.ar   84  TYR84       0.0417
     31  CE2      110.1330   64.1400  -16.4920 C.ar   84  TYR84       0.0417
     32  CZ       109.8870   62.7930  -16.8070 C.ar   84  TYR84       0.1957
     33  OH       110.8550   62.0690  -17.4690 O.3    84  TYR84      -0.2866
     34  N        105.7100   63.7880   -9.0160 N.3    87  CYS87      -0.1221
     35  CA       107.0260   63.3370   -8.5910 C.3    87  CYS87       0.1808
     36  C        107.7630   64.4120   -7.8080 C.2    87  CYS87       0.2601
     37  O        108.3970   64.0980   -6.8010 O.2    87  CYS87      -0.2717
     38  CB       107.8490   62.7870   -9.7620 C.3    87  CYS87       0.0970
     39  SG       107.2090   61.1870  -10.3720 S.3    87  CYS87      -0.0800
     40  N        107.6320   65.6750   -8.2250 N.am   88  GLU88      -0.1979
     41  CA       108.2720   66.7990   -7.5100 C.3    88  GLU88       0.1602
     42  C        107.7120   66.9960   -6.1210 C.2    88  GLU88       0.2287
     43  O        108.3770   67.5510   -5.2470 O.2    88  GLU88      -0.2864
     44  CB       108.1240   68.1050   -8.2810 C.3    88  GLU88       0.0415
     45  CG       109.3490   68.4790   -9.1010 C.3    88  GLU88       0.1163
     46  CD       109.0040   68.8770  -10.5380 C.2    88  GLU88       0.3649
     47  OE1      107.9180   69.4590  -10.8020 O.co2  88  GLU88      -0.2457
     48  OE2      109.8330   68.6090  -11.4220 O.co2  88  GLU88      -0.2457
     49  N        108.3120   61.0520   -4.2880 N.3    91  ASP91      -0.1239
     50  CA       108.2690   59.6980   -4.7860 C.3    91  ASP91       0.1674
     51  C        107.0460   58.8790   -4.2850 C.2    91  ASP91       0.2266
     52  O        106.4580   58.1100   -5.0360 O.2    91  ASP91      -0.2867
     53  CB       109.5800   59.0120   -4.4070 C.3    91  ASP91       0.1410
     54  CG       110.6710   59.1870   -5.4840 C.2    91  ASP91       0.3668
     55  OD1      110.3490   59.8390   -6.5020 O.co2  91  ASP91      -0.2456
     56  OD2      111.8220   58.6590   -5.3380 O.co2  91  ASP91      -0.2456
     57  N        103.9950   59.8880   -6.4340 N.3    94  CYS94      -0.1221
     58  CA       103.9120   59.5450   -7.8430 C.3    94  CYS94       0.1808
     59  C        104.0240   58.0440   -8.1700 C.2    94  CYS94       0.2601
     60  O        103.5440   57.5990   -9.1960 O.2    94  CYS94      -0.2717
     61  CB       104.8620   60.4160   -8.6380 C.3    94  CYS94       0.0970
     62  SG       106.6310   60.0660   -8.5940 S.3    94  CYS94      -0.0800
     63  N        104.5950   57.2680   -7.2560 N.am   95  TYR95      -0.1976
     64  CA       104.7900   55.8450   -7.4820 C.3    95  TYR95       0.1639
     65  C        103.4620   55.1260   -7.4590 C.2    95  TYR95       0.2290
     66  O        103.2080   54.3400   -8.3740 O.2    95  TYR95      -0.2864
     67  CB       105.7330   55.1980   -6.4450 C.3    95  TYR95       0.0560
     68  CG       107.2390   55.3600   -6.6290 C.ar   95  TYR95      -0.0198
     69  CD1      107.7860   56.4940   -7.2090 C.ar   95  TYR95      -0.0009
     70  CD2      108.1240   54.3570   -6.1920 C.ar   95  TYR95      -0.0009
     71  CE1      109.1670   56.6400   -7.3270 C.ar   95  TYR95       0.0417
     72  CE2      109.5060   54.4900   -6.3170 C.ar   95  TYR95       0.0417
     73  CZ       110.0130   55.6460   -6.8760 C.ar   95  TYR95       0.1957
     74  OH       111.3650   55.8120   -7.0120 O.3    95  TYR95      -0.2866
     75  N        122.4010   51.8740  -15.1470 N.3   286  ARG286     -0.1231
     76  CA       121.8960   52.6450  -16.2890 C.3   286  ARG286      0.1694
     77  C        122.0490   54.1670  -16.1990 C.2   286  ARG286      0.2591
     78  O        121.5880   54.8650  -17.0780 O.2   286  ARG286     -0.2718
     79  CB       120.4240   52.3640  -16.4700 C.3   286  ARG286      0.0321
     80  CG       119.5890   53.0030  -15.3730 C.3   286  ARG286      0.0489
     81  CD       118.1430   52.7390  -15.6430 C.3   286  ARG286      0.2205
     82  NE       117.2860   52.8680  -14.4640 N.pl3 286  ARG286     -0.0865
     83  CZ       116.7050   54.0050  -14.0950 C.cat 286  ARG286      0.5346
     84  NH1      116.9660   55.1300  -14.7790 N.pl3 286  ARG286      0.1354
     85  NH2      115.8910   54.0210  -13.0230 N.pl3 286  ARG286      0.1354
     86  N        122.6820   54.6880  -15.1600 N.am  287  LYS287     -0.1980
     87  CA       122.6760   56.1310  -14.9150 C.3   287  LYS287      0.1596
     88  C        123.8230   56.3630  -13.9740 C.2   287  LYS287      0.2287
     89  O        123.9630   55.6530  -12.9840 O.2   287  LYS287     -0.2864
     90  CB       121.3320   56.5530  -14.2770 C.3   287  LYS287      0.0298
     91  CG       121.0110   58.0530  -14.2770 C.3   287  LYS287      0.0038
     92  CD       119.5980   58.3520  -13.7760 C.3   287  LYS287      0.0206
     93  CE       118.5310   58.2400  -14.8770 C.3   287  LYS287      0.1093
     94  NZ       117.1190   58.4110  -14.3900 N.3   287  LYS287     -0.1314
     95  N        123.1500   57.3660  -10.3310 N.3   290  TYR290     -0.1241
     96  CA       122.8060   56.1150   -9.6890 C.3   290  TYR290      0.1605
     97  C        124.0000   55.3030   -9.2440 C.2   290  TYR290      0.2264
     98  O        124.0730   54.9780   -8.0810 O.2   290  TYR290     -0.2867
     99  CB       121.8870   55.2850  -10.5700 C.3   290  TYR290      0.0534
    100  CG       120.4560   55.8040  -10.5510 C.ar  290  TYR290     -0.0201
    101  CD1      120.1450   57.0000   -9.9110 C.ar  290  TYR290     -0.0009
    102  CD2      119.4180   55.1020  -11.1740 C.ar  290  TYR290     -0.0009
    103  CE1      118.8520   57.4860   -9.8780 C.ar  290  TYR290      0.0417
    104  CE2      118.1180   55.5860  -11.1560 C.ar  290  TYR290      0.0417
    105  CZ       117.8430   56.7730  -10.4970 C.ar  290  TYR290      0.1957
    106  OH       116.5620   57.2700  -10.4660 O.3   290  TYR290     -0.2866
@<TRIPOS>BOND
     1     4     3    2
     2     3     2    1
     3     2     1    1
     4     2     5    1
     5     5     6    1
     6    33    32    1
     7    78    77    2
     8    32    31   ar
     9    32    30   ar
    10    31    29   ar
    11    79    76    1
    12    79    80    1
    13    30    28   ar
    14    76    77    1
    15    76    75    1
    16    77    86   am
    17     8     7   ar
    18     6     7    1
    19    29    27   ar
    20    28    27   ar
    21    81    80    1
    22    81    82    1
    23     7     9   ar
    24    27    26    1
    25    86    87    1
    26    87    90    1
    27    87    88    1
    28    93    94    1
    29    93    92    1
    30    84    83    1
    31    17    19   ar
    32    17    15   ar
    33    26    23    1
    34    82    83    2
    35    19    20   ar
    36    14    15    1
    37    14    11    1
    38    90    91    1
    39    91    92    1
    40    83    85    1
    41    10    11    1
    42    88    89    2
    43    15    16   ar
    44    22    23    1
    45    22    12   am
    46    23    24    1
    47    11    12    1
    48    20    21    1
    49    20    18   ar
    50    12    13    2
    51    16    18   ar
    52    24    25    2
    53    48    46   ar
    54   102   104   ar
    55   102   100   ar
    56   104   105   ar
    57    47    46   ar
    58    99   100    1
    59    99    96    1
    60   100   101   ar
    61    46    45    1
    62   105   106    1
    63   105   103   ar
    64    39    38    1
    65    39    62    1
    66    95    96    1
    67   101   103   ar
    68    38    35    1
    69    96    97    1
    70    97    98    2
    71    60    59    2
    72    45    44    1
    73    34    35    1
    74    61    62    1
    75    61    58    1
    76    35    36    1
    77    66    65    2
    78    44    41    1
    79    40    36   am
    80    40    41    1
    81    59    58    1
    82    59    63   am
    83    58    57    1
    84    36    37    2
    85    41    42    1
    86    64    65    1
    87    64    63    1
    88    64    67    1
    89    71    69   ar
    90    71    73   ar
    91    69    68   ar
    92    74    73    1
    93    73    72   ar
    94    68    67    1
    95    68    70   ar
    96    55    54   ar
    97    72    70   ar
    98    42    43    2
    99    54    56   ar
   100    54    53    1
   101    52    51    2
   102    50    53    1
   103    50    49    1
   104    50    51    1
