@<TRIPOS>MOLECULE
tmp/4asbA00.pdb
 180 169 0 0 0
SMALL
GASTEIGER

@<TRIPOS>ATOM
      1  N         21.9130  -23.9000    0.2100 N.3    32  GLU32      -0.1231
      2  CA        22.3700  -25.2200   -0.2320 C.3    32  GLU32       0.1699
      3  C         21.2240  -26.0840   -0.7680 C.2    32  GLU32       0.2592
      4  O         21.3990  -26.8070   -1.7650 O.2    32  GLU32      -0.2718
      5  CB        23.1410  -25.9480    0.8920 C.3    32  GLU32       0.0402
      6  CG        24.4010  -25.2230    1.3670 C.3    32  GLU32       0.1161
      7  CD        25.4840  -25.1730    0.2970 C.2    32  GLU32       0.3649
      8  OE1       25.7540  -26.2670   -0.2730 O.co2  32  GLU32      -0.2457
      9  OE2       26.0660  -24.0730    0.0350 O.co2  32  GLU32      -0.2457
     10  N         20.0530  -25.9990   -0.1250 N.am   33  LEU33      -0.1980
     11  CA        18.9070  -26.8480   -0.4960 C.3    33  LEU33       0.1596
     12  C         18.3000  -26.3720   -1.7910 C.2    33  LEU33       0.2287
     13  O         17.7200  -27.1500   -2.5540 O.2    33  LEU33      -0.2864
     14  CB        17.8570  -26.9240    0.6110 C.3    33  LEU33       0.0297
     15  CG        18.3120  -27.5090    1.9630 C.3    33  LEU33       0.0022
     16  CD1       17.1260  -27.7730    2.8720 C.3    33  LEU33       0.0001
     17  CD2       19.1400  -28.7800    1.8290 C.3    33  LEU33       0.0001
     18  N         20.4320  -24.8270   -4.1340 N.3    35  SER35      -0.1202
     19  CA        21.3930  -25.3230   -5.1570 C.3    35  SER35       0.2020
     20  C         20.9550  -26.7170   -5.5630 C.2    35  SER35       0.2619
     21  O         20.7270  -26.9820   -6.7560 O.2    35  SER35      -0.2717
     22  CB        22.8500  -25.4680   -4.6980 C.3    35  SER35       0.2103
     23  OG        23.3050  -24.3570   -3.9790 O.3    35  SER35      -0.2182
     24  N         20.8210  -27.6170   -4.5840 N.am   36  ASN36      -0.1960
     25  CA        20.5710  -28.9940   -4.9670 C.3    36  ASN36       0.1819
     26  C         19.3440  -29.0010   -5.8890 C.2    36  ASN36       0.2621
     27  O         19.4060  -29.5540   -6.9970 O.2    36  ASN36      -0.2715
     28  CB        20.4570  -29.9460   -3.7680 C.3    36  ASN36       0.1195
     29  CG        21.5330  -29.7090   -2.7080 C.2    36  ASN36       0.2630
     30  OD1       22.7010  -29.3950   -3.0130 O.2    36  ASN36      -0.2716
     31  ND2       21.1370  -29.8730   -1.4380 N.am   36  ASN36      -0.0877
     32  N         18.2730  -28.3110   -5.4780 N.am   37  ALA37      -0.1977
     33  CA        17.0900  -28.1980   -6.3240 C.3    37  ALA37       0.1597
     34  C         17.4840  -27.7870   -7.7540 C.2    37  ALA37       0.2287
     35  O         17.1920  -28.4870   -8.7350 O.2    37  ALA37      -0.2864
     36  CB        16.0820  -27.2290   -5.7210 C.3    37  ALA37       0.0319
     37  N         20.4490  -27.8900   -9.2200 N.3    39  ASP39      -0.1225
     38  CA        21.2350  -28.9170   -9.8650 C.3    39  ASP39       0.1805
     39  C         20.3340  -30.0570  -10.3510 C.2    39  ASP39       0.2597
     40  O         20.5260  -30.5530  -11.4640 O.2    39  ASP39      -0.2718
     41  CB        22.4090  -29.3550   -8.9840 C.3    39  ASP39       0.1424
     42  CG        23.4420  -28.2170   -8.7890 C.2    39  ASP39       0.3668
     43  OD1       23.1700  -27.2410   -8.0450 O.co2  39  ASP39      -0.2456
     44  OD2       24.5280  -28.2710   -9.4090 O.co2  39  ASP39      -0.2456
     45  N         19.3200  -30.4350   -9.5690 N.am   40  ALA40      -0.1979
     46  CA        18.4480  -31.5780   -9.9650 C.3    40  ALA40       0.1597
     47  C         17.4940  -31.2300  -11.1030 C.2    40  ALA40       0.2287
     48  O         17.0870  -32.0900  -11.9000 O.2    40  ALA40      -0.2864
     49  CB        17.6820  -32.1510   -8.7730 C.3    40  ALA40       0.0319
     50  N         19.5550  -31.3030  -14.3370 N.3    43  LYS43      -0.1245
     51  CA        19.8560  -32.6470  -14.7730 C.3    43  LYS43       0.1561
     52  C         18.6930  -33.1560  -15.5930 C.2    43  LYS43       0.2260
     53  O         18.8860  -33.5780  -16.7240 O.2    43  LYS43      -0.2867
     54  CB        20.2490  -33.5620  -13.6080 C.3    43  LYS43       0.0271
     55  CG        21.5630  -33.1380  -12.9320 C.3    43  LYS43       0.0035
     56  CD        22.1990  -34.2470  -12.0710 C.3    43  LYS43       0.0206
     57  CE        23.6810  -34.0720  -11.6980 C.3    43  LYS43       0.1093
     58  NZ        23.8530  -33.2140  -10.4980 N.3    43  LYS43      -0.1314
     59  N         11.2130  -29.5420   -5.3020 N.3    78  ASP78      -0.1239
     60  CA        11.6320  -29.3500   -6.6980 C.3    78  ASP78       0.1674
     61  C         10.9310  -30.3530   -7.6390 C.2    78  ASP78       0.2266
     62  O         10.3530  -31.3860   -7.2030 O.2    78  ASP78      -0.2867
     63  CB        13.1650  -29.3740   -6.8540 C.3    78  ASP78       0.1410
     64  CG        13.7790  -30.7630   -6.6000 C.2    78  ASP78       0.3668
     65  OD1       13.5270  -31.6740   -7.4000 O.co2  78  ASP78      -0.2456
     66  OD2       14.5380  -30.9520   -5.6200 O.co2  78  ASP78      -0.2456
     67  N         15.2160  -34.0760  -11.0810 N.3    81  ILE81      -0.1231
     68  CA        15.3220  -35.3970  -11.6560 C.3    81  ILE81       0.1692
     69  C         14.7140  -36.4350  -10.7090 C.2    81  ILE81       0.2593
     70  O         14.0270  -37.3620  -11.1390 O.2    81  ILE81      -0.2718
     71  CB        16.7950  -35.7140  -12.0440 C.3    81  ILE81       0.0266
     72  CG1       16.9400  -37.1470  -12.5610 C.3    81  ILE81       0.0019
     73  CG2       17.7480  -35.4420  -10.8750 C.3    81  ILE81       0.0020
     74  CD1       17.9010  -37.2470  -13.7080 C.3    81  ILE81       0.0001
     75  N         14.9410  -36.2590   -9.4150 N.am   82  GLY82      -0.1942
     76  CA        14.5420  -37.2550   -8.4400 C.3    82  GLY82       0.2014
     77  C         15.5920  -38.3420   -8.3070 C.2    82  GLY82       0.2638
     78  O         16.5760  -38.3800   -9.0470 O.2    82  GLY82      -0.2714
     79  N         15.3530  -39.2440   -7.3640 N.am   83  MET83      -0.1976
     80  CA        16.3300  -40.2340   -6.9460 C.3    83  MET83       0.1605
     81  C         15.6300  -41.5580   -6.6920 C.2    83  MET83       0.2287
     82  O         14.6440  -41.5940   -5.9570 O.2    83  MET83      -0.2864
     83  CB        17.0050  -39.7690   -5.6480 C.3    83  MET83       0.0413
     84  CG        18.0390  -38.6620   -5.8110 C.3    83  MET83       0.0598
     85  SD        18.8890  -38.2890   -4.2590 S.3    83  MET83      -0.1393
     86  CE        17.7150  -37.1410   -3.5590 C.3    83  MET83       0.0692
     87  N         19.6470  -45.0710   -5.5170 N.3    87  GLU87      -0.1245
     88  CA        20.2520  -43.7370   -5.4190 C.3    87  GLU87       0.1567
     89  C         20.1160  -43.1410   -4.0150 C.2    87  GLU87       0.2260
     90  O         21.0760  -42.5940   -3.4730 O.2    87  GLU87      -0.2867
     91  CB        19.6610  -42.7810   -6.4610 C.3    87  GLU87       0.0388
     92  CG        19.8110  -43.2770   -7.8870 C.3    87  GLU87       0.1160
     93  CD        19.5190  -42.2370   -8.9620 C.2    87  GLU87       0.3649
     94  OE1       18.3810  -41.6920   -9.0570 O.co2  87  GLU87      -0.2457
     95  OE2       20.4510  -42.0020   -9.7480 O.co2  87  GLU87      -0.2457
     96  N         23.7850  -42.8300   -2.1770 N.3    91  ASN91      -0.1225
     97  CA        24.2200  -41.4300   -2.2340 C.3    91  ASN91       0.1785
     98  C         23.9490  -40.6230   -0.9820 C.2    91  ASN91       0.2597
     99  O         24.7190  -39.7020   -0.6500 O.2    91  ASN91      -0.2718
    100  CB        23.6670  -40.7280   -3.4570 C.3    91  ASN91       0.1169
    101  CG        24.1690  -41.3400   -4.7510 C.2    91  ASN91       0.2627
    102  OD1       24.8320  -42.3820   -4.7720 O.2    91  ASN91      -0.2716
    103  ND2       23.8340  -40.6950   -5.8480 N.am   91  ASN91      -0.0877
    104  N         22.8730  -40.9660   -0.2780 N.am   92  LEU92      -0.1980
    105  CA        22.7090  -40.4250    1.0620 C.3    92  LEU92       0.1596
    106  C         23.3750  -41.3750    2.0440 C.2    92  LEU92       0.2287
    107  O         22.7870  -41.7380    3.0690 O.2    92  LEU92      -0.2864
    108  CB        21.2420  -40.0870    1.3560 C.3    92  LEU92       0.0297
    109  CG        20.6380  -39.0960    0.3290 C.3    92  LEU92       0.0022
    110  CD1       19.2940  -38.5620    0.7630 C.3    92  LEU92       0.0001
    111  CD2       21.5570  -37.9200    0.0440 C.3    92  LEU92       0.0001
    112  N         31.9060  -40.3140    1.2200 N.3    97  LYS97      -0.1245
    113  CA        31.7720  -39.1420    0.3590 C.3    97  LYS97       0.1561
    114  C         33.0780  -38.3170    0.4470 C.2    97  LYS97       0.2260
    115  O         33.5690  -38.0380    1.5440 O.2    97  LYS97      -0.2867
    116  CB        30.5270  -38.3410    0.7980 C.3    97  LYS97       0.0271
    117  CG        29.8490  -37.4830   -0.2530 C.3    97  LYS97       0.0035
    118  CD        28.6090  -38.1690   -0.7910 C.3    97  LYS97       0.0206
    119  CE        28.4330  -37.9160   -2.2870 C.3    97  LYS97       0.1093
    120  NZ        28.8780  -36.5450   -2.6950 N.3    97  LYS97      -0.1314
    121  N         31.1220  -30.2600   -1.4000 N.3   120  GLY120     -0.1210
    122  CA        30.1750  -31.2580   -1.9020 C.3   120  GLY120      0.1956
    123  C         29.4530  -32.1320   -0.8760 C.2   120  GLY120      0.2612
    124  O         29.0690  -33.2670   -1.1690 O.2   120  GLY120     -0.2717
    125  N         29.2650  -31.5960    0.3210 N.am  121  VAL121     -0.1965
    126  CA        28.4930  -32.2410    1.3780 C.3   121  VAL121      0.1727
    127  C         27.4100  -31.3020    1.9120 C.2   121  VAL121      0.2617
    128  O         26.9010  -31.4600    3.0310 O.2   121  VAL121     -0.2715
    129  CB        29.4000  -32.7420    2.5230 C.3   121  VAL121      0.0290
    130  CG1       29.6410  -34.2260    2.3400 C.3   121  VAL121      0.0023
    131  CG2       30.7210  -31.9760    2.5900 C.3   121  VAL121      0.0023
    132  N         27.0490  -30.3350    1.0710 N.am  122  GLY122     -0.1940
    133  CA        26.1280  -29.2530    1.4240 C.3   122  GLY122      0.2014
    134  C         24.8090  -29.7370    1.9900 C.2   122  GLY122      0.2639
    135  O         24.2090  -29.0540    2.8260 O.2   122  GLY122     -0.2714
    136  N         24.3630  -30.9080    1.5210 N.am  123  PHE123     -0.1959
    137  CA        23.0900  -31.4880    1.9200 C.3   123  PHE123      0.1771
    138  C         23.0020  -31.6300    3.4320 C.2   123  PHE123      0.2619
    139  O         21.9190  -31.4470    4.0000 O.2   123  PHE123     -0.2715
    140  CB        22.8570  -32.8440    1.2500 C.3   123  PHE123      0.0574
    141  CG        21.7630  -33.6730    1.8990 C.ar  123  PHE123     -0.0200
    142  CD1       20.4260  -33.4270    1.6380 C.ar  123  PHE123     -0.0042
    143  CD2       22.0770  -34.7150    2.7830 C.ar  123  PHE123     -0.0042
    144  CE1       19.4350  -34.1960    2.2410 C.ar  123  PHE123     -0.0003
    145  CE2       21.0800  -35.4940    3.3800 C.ar  123  PHE123     -0.0003
    146  CZ        19.7570  -35.2300    3.1060 C.ar  123  PHE123     -0.0000
    147  N         24.1350  -31.9310    4.0750 N.am  124  TYR124     -0.1974
    148  CA        24.1410  -32.2150    5.4950 C.3   124  TYR124      0.1639
    149  C         24.0340  -30.9720    6.3660 C.2   124  TYR124      0.2290
    150  O         23.6870  -31.0770    7.5510 O.2   124  TYR124     -0.2864
    151  CB        25.3360  -33.0790    5.8480 C.3   124  TYR124      0.0560
    152  CG        25.2670  -34.4420    5.1810 C.ar  124  TYR124     -0.0198
    153  CD1       24.3620  -35.4230    5.6320 C.ar  124  TYR124     -0.0009
    154  CD2       26.0890  -34.7590    4.0740 C.ar  124  TYR124     -0.0009
    155  CE1       24.2850  -36.6860    5.0130 C.ar  124  TYR124      0.0417
    156  CE2       26.0120  -36.0180    3.4460 C.ar  124  TYR124      0.0417
    157  CZ        25.1120  -36.9800    3.9210 C.ar  124  TYR124      0.1957
    158  OH        25.0200  -38.2140    3.3160 O.3   124  TYR124     -0.2866
    159  N         13.7210  -36.9730    3.2090 N.3   135  VAL135     -0.1245
    160  CA        13.8920  -36.7770    1.7850 C.3   135  VAL135      0.1561
    161  C         12.8930  -37.7130    1.0880 C.2   135  VAL135      0.2260
    162  O         13.1150  -38.9230    1.0240 O.2   135  VAL135     -0.2867
    163  CB        15.3570  -37.0010    1.3740 C.3   135  VAL135      0.0252
    164  CG1       15.5280  -36.8050   -0.1160 C.3   135  VAL135      0.0019
    165  CG2       16.2510  -36.0270    2.1380 C.3   135  VAL135      0.0019
    166  N         11.5150  -34.1050   -5.7800 N.3   170  THR170     -0.1218
    167  CA        11.9960  -34.3560   -4.4390 C.3   170  THR170      0.1862
    168  C         11.5260  -33.2820   -3.5070 C.2   170  THR170      0.2287
    169  O         11.6300  -32.0900   -3.8160 O.2   170  THR170     -0.2866
    170  CB        13.5170  -34.2400   -4.3710 C.3   170  THR170      0.1770
    171  OG1       14.1350  -35.2660   -5.1620 O.3   170  THR170     -0.2211
    172  CG2       13.9750  -34.3430   -2.9270 C.3   170  THR170      0.0375
    173  N         12.2630  -31.9980    0.3780 N.3   172  LEU172     -0.1245
    174  CA        13.0100  -32.0280    1.6430 C.3   172  LEU172      0.1561
    175  C         12.0260  -31.5970    2.7030 C.2   172  LEU172      0.2260
    176  O         11.5600  -30.4430    2.7020 O.2   172  LEU172     -0.2867
    177  CB        14.2410  -31.0850    1.6240 C.3   172  LEU172      0.0270
    178  CG        15.5660  -31.4790    0.9050 C.3   172  LEU172      0.0019
    179  CD1       16.6520  -32.0220    1.8260 C.3   172  LEU172      0.0001
    180  CD2       15.3810  -32.4050   -0.3090 C.3   172  LEU172      0.0001
@<TRIPOS>BOND
     1    53    52    2
     2    52    51    1
     3    51    50    1
     4    51    54    1
     5    74    72    1
     6    54    55    1
     7    55    56    1
     8    72    71    1
     9    56    57    1
    10    71    68    1
    11    71    73    1
    12    48    47    2
    13    57    58    1
    14    68    67    1
    15    68    69    1
    16    40    39    2
    17    70    69    2
    18    47    46    1
    19    69    75   am
    20    39    38    1
    21    39    45   am
    22    46    45    1
    23    46    49    1
    24    38    37    1
    25    38    41    1
    26    95    93   ar
    27    75    76    1
    28    44    42   ar
    29    94    93   ar
    30    78    77    2
    31    41    42    1
    32    93    92    1
    33    42    43   ar
    34    35    34    2
    35    76    77    1
    36    77    79   am
    37    92    91    1
    38    34    33    1
    39    61    62    2
    40    61    60    1
    41    65    64   ar
    42    79    80    1
    43    27    26    2
    44    80    81    1
    45    80    83    1
    46    63    60    1
    47    63    64    1
    48    21    20    2
    49    60    59    1
    50    81    82    2
    51    64    66   ar
    52    91    88    1
    53    33    36    1
    54    33    32    1
    55    26    32   am
    56    26    25    1
    57   103   101   am
    58    84    83    1
    59    84    85    1
    60   166   167    1
    61    20    19    1
    62    20    24   am
    63    87    88    1
    64    88    89    1
    65   171   170    1
    66    19    22    1
    67    19    18    1
    68    25    24    1
    69    25    28    1
    70   102   101    2
    71   101   100    1
    72    22    23    1
    73   167   170    1
    74   167   168    1
    75   170   172    1
    76    85    86    1
    77    89    90    2
    78   169   168    2
    79    28    29    1
    80   100    97    1
    81    30    29    2
    82    29    31   am
    83   120   119    1
    84    13    12    2
    85   119   118    1
    86    97    96    1
    87    97    98    1
    88   122   121    1
    89   122   123    1
    90    12    11    1
    91     4     3    2
    92   124   123    2
    93    98    99    2
    94    98   104   am
    95   123   125   am
    96   118   117    1
    97     3     2    1
    98     3    10   am
    99    11    10    1
   100    11    14    1
   101   180   178    1
   102   104   105    1
   103     8     7   ar
   104   117   116    1
   105     2     1    1
   106     2     5    1
   107   164   163    1
   108     9     7   ar
   109   111   109    1
   110     7     6    1
   111   125   126    1
   112   109   110    1
   113   109   108    1
   114   113   114    1
   115   113   116    1
   116   113   112    1
   117   173   174    1
   118   114   115    2
   119    14    15    1
   120     5     6    1
   121   178   177    1
   122   178   179    1
   123   162   161    2
   124   105   108    1
   125   105   106    1
   126   132   133    1
   127   132   127   am
   128   161   160    1
   129   140   141    1
   130   140   137    1
   131   163   160    1
   132   163   165    1
   133   126   127    1
   134   126   129    1
   135   133   134    1
   136   136   137    1
   137   136   134   am
   138   177   174    1
   139   142   141   ar
   140   142   144   ar
   141   174   175    1
   142   160   159    1
   143    17    15    1
   144   141   143   ar
   145   127   128    2
   146   137   138    1
   147    15    16    1
   148   134   135    2
   149   106   107    2
   150   144   146   ar
   151   130   129    1
   152   129   131    1
   153   176   175    2
   154   143   145   ar
   155   146   145   ar
   156   158   157    1
   157   138   139    2
   158   138   147   am
   159   156   157   ar
   160   156   154   ar
   161   157   155   ar
   162   154   152   ar
   163   147   148    1
   164   155   153   ar
   165   152   153   ar
   166   152   151    1
   167   148   151    1
   168   148   149    1
   169   149   150    2
