@<TRIPOS>MOLECULE
tmp/4aseA00.pdb
 217 206 0 0 0
SMALL
GASTEIGER

@<TRIPOS>ATOM
      1  N        -17.2060   -1.3930  -20.6500 N.3    34  LEU34      -0.1231
      2  CA       -16.5180   -0.7390  -19.5420 C.3    34  LEU34       0.1693
      3  C        -15.9330   -1.7940  -18.6160 C.2    34  LEU34       0.2592
      4  O        -14.8730   -1.6030  -18.0280 O.2    34  LEU34      -0.2718
      5  CB       -17.5020    0.1340  -18.7550 C.3    34  LEU34       0.0284
      6  CG       -18.0000    1.4110  -19.4360 C.3    34  LEU34       0.0019
      7  CD1      -19.3060    1.8610  -18.8090 C.3    34  LEU34       0.0001
      8  CD2      -16.9420    2.4950  -19.3200 C.3    34  LEU34       0.0001
      9  N        -16.6530   -2.9040  -18.4810 N.am   35  GLY35      -0.1957
     10  CA       -16.2040   -3.9890  -17.6340 C.3    35  GLY35       0.1869
     11  C        -16.9310   -5.2720  -17.9730 C.2    35  GLY35       0.2309
     12  O        -18.0460   -5.2480  -18.5050 O.2    35  GLY35      -0.2863
     13  N        -20.8740   -4.5560  -18.3720 N.3    42  VAL42      -0.1245
     14  CA       -21.4200   -3.2080  -18.4460 C.3    42  VAL42       0.1561
     15  C        -20.8140   -2.4970  -19.6490 C.2    42  VAL42       0.2260
     16  O        -19.5940   -2.5050  -19.8420 O.2    42  VAL42      -0.2867
     17  CB       -21.1120   -2.4110  -17.1610 C.3    42  VAL42       0.0252
     18  CG1      -21.6130   -0.9600  -17.3000 C.3    42  VAL42       0.0019
     19  CG2      -21.7820   -3.0870  -15.9660 C.3    42  VAL42       0.0019
     20  N        -24.5160    3.9800  -18.6570 N.3    60  ALA60      -0.1245
     21  CA       -23.9260    2.6520  -18.5270 C.3    60  ALA60       0.1562
     22  C        -25.0370    1.6090  -18.6220 C.2    60  ALA60       0.2260
     23  O        -26.1180    1.7730  -18.0500 O.2    60  ALA60      -0.2867
     24  CB       -23.1870    2.5210  -17.1880 C.3    60  ALA60       0.0290
     25  N        -26.0030   -2.4170  -18.1700 N.3    62  LYS62      -0.1245
     26  CA       -25.6850   -3.7580  -17.6970 C.3    62  LYS62       0.1561
     27  C        -26.4940   -4.7680  -18.4950 C.2    62  LYS62       0.2260
     28  O        -27.7040   -4.6220  -18.6620 O.2    62  LYS62      -0.2867
     29  CB       -26.0190   -3.8910  -16.2110 C.3    62  LYS62       0.0271
     30  CG       -25.5570   -5.1900  -15.5580 C.3    62  LYS62       0.0035
     31  CD       -25.5780   -5.0100  -14.0430 C.3    62  LYS62       0.0206
     32  CE       -25.3200   -6.2900  -13.2870 C.3    62  LYS62       0.1093
     33  NZ       -25.2550   -5.9970  -11.8190 N.3    62  LYS62      -0.1314
     34  N        -33.0590   -7.7720  -10.6390 N.3    79  GLU79      -0.1245
     35  CA       -32.2660   -6.5960  -10.3090 C.3    79  GLU79       0.1567
     36  C        -32.9780   -5.3270  -10.7920 C.2    79  GLU79       0.2260
     37  O        -33.0680   -4.3340  -10.0620 O.2    79  GLU79      -0.2867
     38  CB       -30.8770   -6.6880  -10.9560 C.3    79  GLU79       0.0388
     39  CG       -30.0380   -5.4290  -10.7660 C.3    79  GLU79       0.1160
     40  CD       -28.6860   -5.5070  -11.4520 C.2    79  GLU79       0.3649
     41  OE1      -28.2390   -6.6340  -11.7610 O.co2  79  GLU79      -0.2457
     42  OE2      -28.0740   -4.4380  -11.6850 O.co2  79  GLU79      -0.2457
     43  N        -35.8720   -4.5700   -8.5150 N.3    82  ILE82      -0.1231
     44  CA       -35.3730   -4.0500   -7.2460 C.3    82  ILE82       0.1692
     45  C        -35.0140   -2.5690   -7.3530 C.2    82  ILE82       0.2591
     46  O        -35.4280   -1.7470   -6.5270 O.2    82  ILE82      -0.2718
     47  CB       -34.1220   -4.8170   -6.7850 C.3    82  ILE82       0.0266
     48  CG1      -34.4960   -6.2630   -6.4620 C.3    82  ILE82       0.0019
     49  CG2      -33.5080   -4.1380   -5.5680 C.3    82  ILE82       0.0020
     50  CD1      -33.2940   -7.1490   -6.2020 C.3    82  ILE82       0.0001
     51  N        -34.2360   -2.2320   -8.3730 N.am   83  LEU83      -0.1980
     52  CA       -33.8550   -0.8450   -8.6080 C.3    83  LEU83       0.1596
     53  C        -35.0770    0.0670   -8.7350 C.2    83  LEU83       0.2287
     54  O        -35.1090    1.1510   -8.1520 O.2    83  LEU83      -0.2864
     55  CB       -32.9900   -0.7480   -9.8660 C.3    83  LEU83       0.0297
     56  CG       -31.5550   -1.2570   -9.6850 C.3    83  LEU83       0.0022
     57  CD1      -30.8300   -1.3130  -11.0290 C.3    83  LEU83       0.0001
     58  CD2      -30.8240   -0.3330   -8.7220 C.3    83  LEU83       0.0001
     59  N        -36.6920    0.4320   -5.2070 N.3    86  ILE86      -0.1245
     60  CA       -35.8920    1.2180   -4.2770 C.3    86  ILE86       0.1561
     61  C        -36.1520    2.7110   -4.4360 C.2    86  ILE86       0.2260
     62  O        -36.3040    3.4320   -3.4500 O.2    86  ILE86      -0.2867
     63  CB       -34.3920    0.9440   -4.4700 C.3    86  ILE86       0.0252
     64  CG1      -34.0560   -0.4480   -3.9340 C.3    86  ILE86       0.0019
     65  CG2      -33.5690    2.0110   -3.7770 C.3    86  ILE86       0.0019
     66  CD1      -32.6470   -0.8980   -4.2550 C.3    86  ILE86       0.0001
     67  N        -27.1360    6.3860   -4.6240 N.3    92  VAL92      -0.1231
     68  CA       -27.2910    5.0390   -5.1640 C.3    92  VAL92       0.1692
     69  C        -27.3430    5.1950   -6.6760 C.2    92  VAL92       0.2591
     70  O        -27.9740    6.1220   -7.1800 O.2    92  VAL92      -0.2718
     71  CB       -28.6040    4.3810   -4.6520 C.3    92  VAL92       0.0266
     72  CG1      -28.8010    3.0240   -5.3080 C.3    92  VAL92       0.0020
     73  CG2      -28.5500    4.2210   -3.1330 C.3    92  VAL92       0.0020
     74  N        -26.6810    4.3070   -7.4090 N.am   93  VAL93      -0.1980
     75  CA       -26.6170    4.4750   -8.8560 C.3    93  VAL93       0.1595
     76  C        -28.0420    4.5510   -9.4110 C.2    93  VAL93       0.2287
     77  O        -28.8770    3.7040   -9.1100 O.2    93  VAL93      -0.2864
     78  CB       -25.8410    3.3110   -9.5240 C.3    93  VAL93       0.0276
     79  CG1      -26.5860    2.0000   -9.3320 C.3    93  VAL93       0.0022
     80  CG2      -25.6260    3.6140  -11.0050 C.3    93  VAL93       0.0022
     81  N        -30.2140   -3.0570  -18.6190 N.3   108  VAL108     -0.1245
     82  CA       -30.5380   -2.1680  -17.5200 C.3   108  VAL108      0.1561
     83  C        -29.6790   -0.9220  -17.6380 C.2   108  VAL108      0.2260
     84  O        -28.4490   -0.9960  -17.5580 O.2   108  VAL108     -0.2867
     85  CB       -30.2770   -2.8540  -16.1600 C.3   108  VAL108      0.0252
     86  CG1      -30.5890   -1.8870  -15.0180 C.3   108  VAL108      0.0019
     87  CG2      -31.1440   -4.1090  -16.0440 C.3   108  VAL108      0.0019
     88  N        -28.3780    2.7300  -16.5030 N.3   110  VAL110     -0.1231
     89  CA       -28.1930    3.6170  -15.3540 C.3   110  VAL110      0.1692
     90  C        -27.2750    4.7870  -15.6770 C.2   110  VAL110      0.2592
     91  O        -26.5800    4.7880  -16.6970 O.2   110  VAL110     -0.2718
     92  CB       -27.5900    2.8710  -14.1600 C.3   110  VAL110      0.0266
     93  CG1      -28.4800    1.7040  -13.7780 C.3   110  VAL110      0.0020
     94  CG2      -26.1610    2.4000  -14.5100 C.3   110  VAL110      0.0020
     95  N        -27.2650    5.7830  -14.7970 N.am  111  GLU111     -0.1966
     96  CA       -26.4360    6.9610  -15.0190 C.3   111  GLU111      0.1733
     97  C        -24.9670    6.5700  -15.0690 C.2   111  GLU111      0.2616
     98  O        -24.5250    5.6920  -14.3310 O.2   111  GLU111     -0.2715
     99  CB       -26.6410    7.9700  -13.8970 C.3   111  GLU111      0.0429
    100  CG       -26.0770    7.5210  -12.5630 C.3   111  GLU111      0.1163
    101  CD       -26.4300    8.4870  -11.4530 C.2   111  GLU111      0.3649
    102  OE1      -26.3770    9.7110  -11.7030 O.co2 111  GLU111     -0.2457
    103  OE2      -26.7700    8.0220  -10.3400 O.co2 111  GLU111     -0.2457
    104  N        -24.2150    7.2380  -15.9330 N.am  112  PHE112     -0.1960
    105  CA       -22.7920    6.9720  -16.0970 C.3   112  PHE112      0.1771
    106  C        -21.9930    7.7090  -15.0120 C.2   112  PHE112      0.2620
    107  O        -22.1810    8.9040  -14.8070 O.2   112  PHE112     -0.2715
    108  CB       -22.3630    7.4340  -17.4970 C.3   112  PHE112      0.0574
    109  CG       -20.9200    7.1640  -17.8230 C.ar  112  PHE112     -0.0200
    110  CD1      -20.4720    5.8700  -18.0460 C.ar  112  PHE112     -0.0042
    111  CD2      -20.0220    8.2100  -17.9520 C.ar  112  PHE112     -0.0042
    112  CE1      -19.1480    5.6270  -18.3960 C.ar  112  PHE112     -0.0003
    113  CE2      -18.7030    7.9760  -18.3020 C.ar  112  PHE112     -0.0003
    114  CZ       -18.2650    6.6840  -18.5250 C.ar  112  PHE112     -0.0000
    115  N        -21.1130    6.9910  -14.3200 N.am  113  CYS113     -0.1954
    116  CA       -20.2430    7.5910  -13.3000 C.3   113  CYS113      0.1843
    117  C        -18.8060    7.6050  -13.8050 C.2   113  CYS113      0.2625
    118  O        -18.0920    6.6080  -13.7140 O.2   113  CYS113     -0.2714
    119  CB       -20.3230    6.7930  -11.9960 C.3   113  CYS113      0.0997
    120  SG       -21.9940    6.6940  -11.3160 S.3   113  CYS113     -0.0797
    121  N        -18.3840    8.7440  -14.3380 N.am  114  LYS114     -0.1963
    122  CA       -17.2520    8.7560  -15.2490 C.3   114  LYS114      0.1728
    123  C        -15.9390    8.3530  -14.5920 C.2   114  LYS114      0.2616
    124  O        -15.0300    7.8830  -15.2710 O.2   114  LYS114     -0.2715
    125  CB       -17.1060   10.1360  -15.8980 C.3   114  LYS114      0.0311
    126  CG       -16.5440   11.2060  -14.9820 C.3   114  LYS114      0.0038
    127  CD       -16.6340   12.5840  -15.6270 C.3   114  LYS114      0.0206
    128  CE       -15.9610   12.6060  -16.9910 C.3   114  LYS114      0.1093
    129  NZ       -14.4910   12.3720  -16.8970 N.3   114  LYS114     -0.1314
    130  N        -15.8290    8.5240  -13.2790 N.am  115  PHE115     -0.1960
    131  CA       -14.5580    8.2390  -12.6140 C.3   115  PHE115      0.1771
    132  C        -14.4120    6.7920  -12.1520 C.2   115  PHE115      0.2620
    133  O        -13.3490    6.3920  -11.6790 O.2   115  PHE115     -0.2715
    134  CB       -14.3480    9.2020  -11.4390 C.3   115  PHE115      0.0574
    135  CG       -14.1650   10.6320  -11.8630 C.ar  115  PHE115     -0.0200
    136  CD1      -12.9640   11.0560  -12.4150 C.ar  115  PHE115     -0.0042
    137  CD2      -15.2030   11.5440  -11.7500 C.ar  115  PHE115     -0.0042
    138  CE1      -12.8040   12.3650  -12.8500 C.ar  115  PHE115     -0.0003
    139  CE2      -15.0520   12.8550  -12.1820 C.ar  115  PHE115     -0.0003
    140  CZ       -13.8480   13.2630  -12.7340 C.ar  115  PHE115     -0.0000
    141  N        -15.4710    6.0010  -12.3050 N.am  116  GLY116     -0.1940
    142  CA       -15.3690    4.5800  -12.0170 C.3   116  GLY116      0.2014
    143  C        -15.3330    4.2660  -10.5300 C.2   116  GLY116      0.2638
    144  O        -15.7140    5.0980   -9.7010 O.2   116  GLY116     -0.2714
    145  N        -14.8600    3.0690  -10.1860 N.am  117  ASN117     -0.1972
    146  CA       -14.9000    2.6150   -8.7970 C.3   117  ASN117      0.1688
    147  C        -13.9620    3.4120   -7.8930 C.2   117  ASN117      0.2292
    148  O        -12.8700    3.8180   -8.2930 O.2   117  ASN117     -0.2864
    149  CB       -14.5770    1.1140   -8.7080 C.3   117  ASN117      0.1181
    150  CG       -13.0850    0.8300   -8.6210 C.2   117  ASN117      0.2629
    151  OD1      -12.4880    0.9260   -7.5510 O.2   117  ASN117     -0.2716
    152  ND2      -12.4800    0.4710   -9.7480 N.am  117  ASN117     -0.0877
    153  N        -31.0210    2.7620    1.5720 N.3   157  LEU157     -0.1245
    154  CA       -31.2820    1.3840    1.1770 C.3   157  LEU157      0.1561
    155  C        -31.9490    0.5970    2.3050 C.2   157  LEU157      0.2260
    156  O        -32.8850   -0.1720    2.0700 O.2   157  LEU157     -0.2867
    157  CB       -29.9800    0.7000    0.7590 C.3   157  LEU157      0.0270
    158  CG       -29.4200    1.1640   -0.5880 C.3   157  LEU157      0.0019
    159  CD1      -28.0990    0.4550   -0.8700 C.3   157  LEU157      0.0001
    160  CD2      -30.4200    0.8690   -1.6910 C.3   157  LEU157      0.0001
    161  N        -33.8670   -3.0240    1.9470 N.3   162  CYS162     -0.1235
    162  CA       -32.8420   -3.7360    1.1970 C.3   162  CYS162      0.1677
    163  C        -31.5550   -3.8380    2.0040 C.2   162  CYS162      0.2270
    164  O        -31.2690   -2.9840    2.8440 O.2   162  CYS162     -0.2867
    165  CB       -32.5630   -3.0240   -0.1270 C.3   162  CYS162      0.0956
    166  SG       -33.9740   -3.0140   -1.2540 S.3   162  CYS162     -0.0801
    167  N        -27.2590   -4.8170    1.2360 N.3   164  HIS164     -0.1241
    168  CA       -26.3560   -4.8630    0.1010 C.3   164  HIS164      0.1621
    169  C        -25.6270   -6.2000   -0.0800 C.2   164  HIS164      0.2264
    170  O        -25.6520   -6.7730   -1.1650 O.2   164  HIS164     -0.2867
    171  CB       -25.3400   -3.7290    0.2030 C.3   164  HIS164      0.0745
    172  CG       -24.5980   -3.4860   -1.0690 C.ar  164  HIS164      0.0817
    173  ND1      -23.6500   -4.3610   -1.5530 N.ar  164  HIS164     -0.2268
    174  CD2      -24.6730   -2.4750   -1.9650 C.ar  164  HIS164      0.1154
    175  CE1      -23.1710   -3.8970   -2.6940 C.ar  164  HIS164      0.1986
    176  NE2      -23.7750   -2.7540   -2.9650 N.ar  164  HIS164     -0.2212
    177  N        -19.1420    3.8950   -6.8780 N.3   173  LEU173     -0.1245
    178  CA       -18.7230    4.6170   -8.0690 C.3   173  LEU173      0.1561
    179  C        -18.6720    6.1210   -7.8220 C.2   173  LEU173      0.2260
    180  O        -19.4350    6.6590   -7.0230 O.2   173  LEU173     -0.2867
    181  CB       -19.6630    4.3260   -9.2330 C.3   173  LEU173      0.0270
    182  CG       -19.7470    2.8680   -9.7000 C.3   173  LEU173      0.0019
    183  CD1      -20.7100    2.7950  -10.8590 C.3   173  LEU173      0.0001
    184  CD2      -18.3880    2.3530  -10.1220 C.3   173  LEU173      0.0001
    185  N        -23.5600    4.1390   -4.5070 N.3   182  ILE182     -0.1231
    186  CA       -23.4770    2.7280   -4.1780 C.3   182  ILE182      0.1692
    187  C        -23.9370    1.9330   -5.3930 C.2   182  ILE182      0.2592
    188  O        -24.9550    2.2650   -6.0040 O.2   182  ILE182     -0.2718
    189  CB       -24.3760    2.3910   -2.9730 C.3   182  ILE182      0.0266
    190  CG1      -23.8730    3.1290   -1.7240 C.3   182  ILE182      0.0019
    191  CG2      -24.3840    0.8940   -2.7310 C.3   182  ILE182      0.0020
    192  CD1      -24.8440    3.0770   -0.5540 C.3   182  ILE182      0.0001
    193  N        -23.1710    0.9000   -5.7410 N.am  183  CYS183     -0.1956
    194  CA       -23.4910    0.0140   -6.8580 C.3   183  CYS183      0.1843
    195  C        -23.3840   -1.4420   -6.4240 C.2   183  CYS183      0.2625
    196  O        -22.9390   -1.7450   -5.3210 O.2   183  CYS183     -0.2714
    197  CB       -22.5170    0.2550   -8.0210 C.3   183  CYS183      0.0997
    198  SG       -22.5740    1.9550   -8.5770 S.3   183  CYS183     -0.0797
    199  N        -23.7970   -2.3420   -7.3060 N.am  184  ASP184     -0.1957
    200  CA       -23.4630   -3.7510   -7.1550 C.3   184  ASP184      0.1840
    201  C        -23.2200   -4.3030   -8.5460 C.2   184  ASP184      0.2622
    202  O        -24.1470   -4.4340   -9.3380 O.2   184  ASP184     -0.2715
    203  CB       -24.6120   -4.5090   -6.4930 C.3   184  ASP184      0.1450
    204  CG       -24.2570   -5.9510   -6.1870 C.2   184  ASP184      0.3671
    205  OD1      -23.0950   -6.3510   -6.4180 O.co2 184  ASP184     -0.2456
    206  OD2      -25.1440   -6.6860   -5.7120 O.co2 184  ASP184     -0.2456
    207  N        -21.9700   -4.6130   -8.8520 N.am  185  PHE185     -0.1974
    208  CA       -21.6550   -5.0780  -10.1920 C.3   185  PHE185      0.1639
    209  C        -22.2310   -6.4610  -10.4410 C.2   185  PHE185      0.2290
    210  O        -22.5710   -6.8030  -11.5760 O.2   185  PHE185     -0.2864
    211  CB       -20.1420   -5.0740  -10.4080 C.3   185  PHE185      0.0560
    212  CG       -19.6050   -3.7390  -10.8360 C.ar  185  PHE185     -0.0200
    213  CD1      -19.5320   -3.4090  -12.1780 C.ar  185  PHE185     -0.0042
    214  CD2      -19.1940   -2.8050   -9.8950 C.ar  185  PHE185     -0.0042
    215  CE1      -19.0550   -2.1660  -12.5820 C.ar  185  PHE185     -0.0003
    216  CE2      -18.7200   -1.5650  -10.2890 C.ar  185  PHE185     -0.0003
    217  CZ       -18.6500   -1.2440  -11.6340 C.ar  185  PHE185     -0.0000
@<TRIPOS>BOND
     1     1     2    1
     2    16    15    2
     3    15    14    1
     4     2     5    1
     5     2     3    1
     6     6     8    1
     7     6     7    1
     8     6     5    1
     9    28    27    2
    10    20    21    1
    11    22    21    1
    12    22    23    2
    13    81    82    1
    14     3     9   am
    15     3     4    2
    16    21    24    1
    17   114   112   ar
    18   114   113   ar
    19    12    11    2
    20    27    26    1
    21     9    10    1
    22    14    13    1
    23    14    17    1
    24   112   110   ar
    25   113   111   ar
    26    25    26    1
    27   110   109   ar
    28    11    10    1
    29   111   109   ar
    30   109   108    1
    31    26    29    1
    32    83    84    2
    33    83    82    1
    34    82    85    1
    35   108   105    1
    36    18    17    1
    37    17    19    1
    38   128   129    1
    39   128   127    1
    40    91    90    2
    41    88    89    1
    42    29    30    1
    43    85    87    1
    44    85    86    1
    45   105   104    1
    46   105   106    1
    47   104    97   am
    48   125   122    1
    49   125   126    1
    50    90    89    1
    51    90    95   am
    52   127   126    1
    53    30    31    1
    54    89    92    1
    55   124   123    2
    56   122   123    1
    57   122   121    1
    58    97    96    1
    59    97    98    2
    60    96    95    1
    61    96    99    1
    62   106   107    2
    63   106   115   am
    64   123   130   am
    65    94    92    1
    66   121   117   am
    67   115   116    1
    68    92    93    1
    69    31    32    1
    70    99   100    1
    71   117   118    2
    72   117   116    1
    73   116   119    1
    74    32    33    1
    75   130   131    1
    76   138   140   ar
    77   138   136   ar
    78   140   139   ar
    79   131   132    1
    80   131   134    1
    81   215   213   ar
    82   215   217   ar
    83   100   101    1
    84   136   135   ar
    85   141   132   am
    86   141   142    1
    87   139   137   ar
    88   213   212   ar
    89   132   133    2
    90   142   143    1
    91   119   120    1
    92   135   137   ar
    93   135   134    1
    94    41    40   ar
    95   102   101   ar
    96    42    40   ar
    97   217   216   ar
    98   210   209    2
    99   101   103   ar
   100    40    39    1
   101    57    56    1
   102    80    78    1
   103    38    39    1
   104    38    35    1
   105   183   182    1
   106   212   211    1
   107   212   214   ar
   108    36    35    1
   109    36    37    2
   110    34    35    1
   111   143   145   am
   112   143   144    2
   113   209   208    1
   114   211   208    1
   115   216   214   ar
   116   208   207    1
   117   145   146    1
   118   184   182    1
   119    55    56    1
   120    55    52    1
   121   152   150   am
   122   182   181    1
   123    56    58    1
   124    78    79    1
   125    78    75    1
   126    76    77    2
   127    76    75    1
   128   202   201    2
   129   181   178    1
   130    75    74    1
   131   207   201   am
   132   146   149    1
   133   146   147    1
   134    53    52    1
   135    53    54    2
   136   149   150    1
   137   150   151    2
   138    52    51    1
   139   198   197    1
   140   201   200    1
   141    43    44    1
   142    51    45   am
   143   148   147    2
   144   178   179    1
   145   178   177    1
   146   197   194    1
   147   179   180    2
   148    74    69   am
   149    45    44    1
   150    45    46    2
   151   199   200    1
   152   199   195   am
   153    44    47    1
   154    70    69    2
   155   200   203    1
   156   194   195    1
   157   194   193    1
   158    47    48    1
   159    47    49    1
   160    69    68    1
   161   203   204    1
   162    48    50    1
   163   195   196    2
   164   205   204   ar
   165   204   206   ar
   166   188   187    2
   167   193   187   am
   168   187   186    1
   169    72    71    1
   170    59    60    1
   171    68    71    1
   172    68    67    1
   173    71    73    1
   174   185   186    1
   175    63    60    1
   176    63    64    1
   177    63    65    1
   178    61    60    1
   179    61    62    2
   180    66    64    1
   181   186   189    1
   182   189   191    1
   183   189   190    1
   184   176   175   ar
   185   176   174   ar
   186   175   173   ar
   187   174   172   ar
   188   190   192    1
   189   160   158    1
   190   173   172   ar
   191   166   165    1
   192   170   169    2
   193   172   171    1
   194   159   158    1
   195   158   157    1
   196   165   162    1
   197   169   168    1
   198   168   171    1
   199   168   167    1
   200   157   154    1
   201   154   153    1
   202   154   155    1
   203   162   161    1
   204   162   163    1
   205   163   164    2
   206   156   155    2
