@<TRIPOS>MOLECULE
tmp/4asgA00.pdb
 184 172 0 0 0
SMALL
GASTEIGER

@<TRIPOS>ATOM
      1  N         21.9620  -23.7010    0.3160 N.3    32  GLU32      -0.1231
      2  CA        22.4530  -25.0610   -0.0730 C.3    32  GLU32       0.1699
      3  C         21.3160  -25.8880   -0.6470 C.2    32  GLU32       0.2592
      4  O         21.4470  -26.4560   -1.7110 O.2    32  GLU32      -0.2718
      5  CB        23.1460  -25.7760    1.1120 C.3    32  GLU32       0.0402
      6  CG        24.4900  -25.1030    1.4970 C.3    32  GLU32       0.1161
      7  CD        25.3920  -24.9390    0.3030 C.2    32  GLU32       0.3649
      8  OE1       25.3630  -25.8330   -0.5720 O.co2  32  GLU32      -0.2457
      9  OE2       26.0930  -23.9230    0.2030 O.co2  32  GLU32      -0.2457
     10  N         20.1720  -25.8980    0.0310 N.am   33  LEU33      -0.1980
     11  CA        18.9870  -26.6380   -0.4800 C.3    33  LEU33       0.1596
     12  C         18.4030  -26.0750   -1.7480 C.2    33  LEU33       0.2287
     13  O         17.9520  -26.8480   -2.5950 O.2    33  LEU33      -0.2864
     14  CB        17.8790  -26.7720    0.5920 C.3    33  LEU33       0.0297
     15  CG        18.3430  -27.4800    1.8700 C.3    33  LEU33       0.0022
     16  CD1       17.1850  -27.7320    2.8400 C.3    33  LEU33       0.0001
     17  CD2       19.2090  -28.7330    1.6450 C.3    33  LEU33       0.0001
     18  N         20.3790  -24.5350   -3.9740 N.3    35  SER35      -0.1202
     19  CA        21.4200  -24.9860   -4.9280 C.3    35  SER35       0.2020
     20  C         21.2440  -26.4450   -5.3530 C.2    35  SER35       0.2619
     21  O         21.3920  -26.7600   -6.5360 O.2    35  SER35      -0.2717
     22  CB        22.8140  -24.7950   -4.3190 C.3    35  SER35       0.2103
     23  OG        23.1310  -23.4100   -4.2830 O.3    35  SER35      -0.2182
     24  N         20.9000  -27.3260   -4.4100 N.am   36  ASN36      -0.1960
     25  CA        20.6410  -28.7500   -4.6840 C.3    36  ASN36       0.1819
     26  C         19.4190  -28.9110   -5.5890 C.2    36  ASN36       0.2621
     27  O         19.4480  -29.6700   -6.5500 O.2    36  ASN36      -0.2715
     28  CB        20.3850  -29.4890   -3.3550 C.3    36  ASN36       0.1195
     29  CG        21.6440  -29.6040   -2.5080 C.2    36  ASN36       0.2630
     30  OD1       22.7100  -29.2760   -2.9870 O.2    36  ASN36      -0.2716
     31  ND2       21.5180  -30.0310   -1.2430 N.am   36  ASN36      -0.0877
     32  N         18.3700  -28.1270   -5.3020 N.am   37  ALA37      -0.1977
     33  CA        17.1120  -28.1470   -6.0750 C.3    37  ALA37       0.1597
     34  C         17.4760  -27.7160   -7.4830 C.2    37  ALA37       0.2287
     35  O         17.0390  -28.3020   -8.4770 O.2    37  ALA37      -0.2864
     36  CB        16.1000  -27.1310   -5.4430 C.3    37  ALA37       0.0319
     37  N         20.4470  -27.8900   -8.9260 N.3    39  ASP39      -0.1225
     38  CA        21.2610  -28.9060   -9.5770 C.3    39  ASP39       0.1805
     39  C         20.3520  -30.0260  -10.1700 C.2    39  ASP39       0.2597
     40  O         20.5120  -30.4330  -11.3420 O.2    39  ASP39      -0.2718
     41  CB        22.2970  -29.4710   -8.5970 C.3    39  ASP39       0.1424
     42  CG        23.1280  -30.6470   -9.2300 C.2    39  ASP39       0.3668
     43  OD1       23.8340  -30.3830  -10.2130 O.co2  39  ASP39      -0.2456
     44  OD2       23.0440  -31.8290   -8.7970 O.co2  39  ASP39      -0.2456
     45  N         19.3820  -30.4920   -9.3710 N.am   40  ALA40      -0.1979
     46  CA        18.3490  -31.4980   -9.7850 C.3    40  ALA40       0.1597
     47  C         17.5220  -31.0170  -10.9750 C.2    40  ALA40       0.2287
     48  O         17.2330  -31.7940  -11.9130 O.2    40  ALA40      -0.2864
     49  CB        17.4050  -31.8410   -8.5790 C.3    40  ALA40       0.0319
     50  N         19.7150  -31.1200  -14.1100 N.3    43  LYS43      -0.1245
     51  CA        19.9220  -32.4960  -14.5850 C.3    43  LYS43       0.1561
     52  C         18.7120  -33.0430  -15.3570 C.2    43  LYS43       0.2260
     53  O         18.9030  -33.5900  -16.4340 O.2    43  LYS43      -0.2867
     54  CB        20.3050  -33.4030  -13.4500 C.3    43  LYS43       0.0271
     55  CG        21.8100  -33.3840  -13.1780 C.3    43  LYS43       0.0035
     56  CD        22.1120  -33.6880  -11.7210 C.3    43  LYS43       0.0206
     57  CE        23.6220  -33.8420  -11.5080 C.3    43  LYS43       0.1093
     58  NZ        24.0040  -33.7780  -10.0440 N.3    43  LYS43      -0.1314
     59  N         11.3350  -29.4100   -5.3100 N.3    78  ASP78      -0.1239
     60  CA        11.7170  -29.0930   -6.6700 C.3    78  ASP78       0.1674
     61  C         11.0800  -30.1130   -7.5660 C.2    78  ASP78       0.2266
     62  O         10.7850  -31.2360   -7.1400 O.2    78  ASP78      -0.2867
     63  CB        13.2370  -29.0860   -6.8880 C.3    78  ASP78       0.1410
     64  CG        13.8690  -30.4540   -6.5930 C.2    78  ASP78       0.3668
     65  OD1       13.7970  -31.3520   -7.4490 O.co2  78  ASP78      -0.2456
     66  OD2       14.3530  -30.6590   -5.4440 O.co2  78  ASP78      -0.2456
     67  N         15.2250  -33.9800  -11.1910 N.3    81  ILE81      -0.1231
     68  CA        15.3350  -35.3740  -11.6090 C.3    81  ILE81       0.1692
     69  C         14.8560  -36.3860  -10.5590 C.2    81  ILE81       0.2593
     70  O         14.4200  -37.4860  -10.9280 O.2    81  ILE81      -0.2718
     71  CB        16.7940  -35.6790  -12.1020 C.3    81  ILE81       0.0266
     72  CG1       16.9230  -37.0410  -12.8520 C.3    81  ILE81       0.0019
     73  CG2       17.8280  -35.5120  -10.9740 C.3    81  ILE81       0.0020
     74  CD1       18.1850  -37.0340  -13.7360 C.3    81  ILE81       0.0001
     75  N         14.9250  -36.0530   -9.2670 N.am   82  GLY82      -0.1942
     76  CA        14.4880  -37.0130   -8.2400 C.3    82  GLY82       0.2014
     77  C         15.5560  -38.0860   -8.0430 C.2    82  GLY82       0.2638
     78  O         16.5230  -38.1370   -8.7530 O.2    82  GLY82      -0.2714
     79  N         15.3920  -38.9300   -7.0500 N.am   83  MET83      -0.1976
     80  CA        16.3540  -39.9370   -6.7160 C.3    83  MET83       0.1605
     81  C         15.6220  -41.2840   -6.5390 C.2    83  MET83       0.2287
     82  O         14.5550  -41.3480   -5.9260 O.2    83  MET83      -0.2864
     83  CB        17.0750  -39.5570   -5.4250 C.3    83  MET83       0.0413
     84  CG        18.0120  -38.3370   -5.6180 C.3    83  MET83       0.0598
     85  SD        18.7240  -37.8300   -4.0370 S.3    83  MET83      -0.1393
     86  CE        17.2830  -36.9440   -3.4630 C.3    83  MET83       0.0692
     87  N         19.5950  -44.7710   -5.2110 N.3    87  GLU87      -0.1245
     88  CA        20.2160  -43.4200   -5.0780 C.3    87  GLU87       0.1567
     89  C         20.0630  -42.8200   -3.6730 C.2    87  GLU87       0.2260
     90  O         21.0300  -42.3310   -3.1330 O.2    87  GLU87      -0.2867
     91  CB        19.7410  -42.4420   -6.1400 C.3    87  GLU87       0.0388
     92  CG        20.2440  -42.8080   -7.4950 C.3    87  GLU87       0.1160
     93  CD        19.6160  -41.9990   -8.5920 C.2    87  GLU87       0.3649
     94  OE1       18.4150  -41.6300   -8.5250 O.co2  87  GLU87      -0.2457
     95  OE2       20.3210  -41.8060   -9.5820 O.co2  87  GLU87      -0.2457
     96  N         23.8650  -42.4240   -2.0060 N.3    91  ASN91      -0.1225
     97  CA        24.2800  -41.0000   -2.0040 C.3    91  ASN91       0.1785
     98  C         23.9380  -40.1970   -0.7430 C.2    91  ASN91       0.2597
     99  O         24.5410  -39.1390   -0.4860 O.2    91  ASN91      -0.2718
    100  CB        23.6930  -40.3260   -3.2410 C.3    91  ASN91       0.1169
    101  CG        24.3820  -40.7660   -4.5070 C.2    91  ASN91       0.2627
    102  OD1       23.9040  -41.6180   -5.2550 O.2    91  ASN91      -0.2716
    103  ND2       25.5210  -40.1660   -4.7660 N.am   91  ASN91      -0.0877
    104  N         22.9680  -40.6840    0.0320 N.am   92  LEU92      -0.1980
    105  CA        22.5540  -40.0120    1.2810 C.3    92  LEU92       0.1596
    106  C         22.9920  -40.7870    2.5320 C.2    92  LEU92       0.2287
    107  O         22.2510  -40.8590    3.5530 O.2    92  LEU92      -0.2864
    108  CB        21.0280  -39.7160    1.3240 C.3    92  LEU92       0.0297
    109  CG        20.4790  -38.6730    0.3350 C.3    92  LEU92       0.0022
    110  CD1       19.0380  -38.3520    0.6700 C.3    92  LEU92       0.0001
    111  CD2       21.3600  -37.4430    0.4420 C.3    92  LEU92       0.0001
    112  N         31.7060  -40.0720    1.2840 N.3    97  LYS97      -0.1245
    113  CA        31.6220  -38.9650    0.3480 C.3    97  LYS97       0.1561
    114  C         32.9810  -38.3090    0.2330 C.2    97  LYS97       0.2260
    115  O         33.5950  -37.9690    1.2310 O.2    97  LYS97      -0.2867
    116  CB        30.5180  -37.9650    0.7320 C.3    97  LYS97       0.0271
    117  CG        29.2580  -38.0110   -0.1280 C.3    97  LYS97       0.0035
    118  CD        29.0080  -36.6120   -0.6840 C.3    97  LYS97       0.0206
    119  CE        28.9190  -36.6650   -2.2070 C.3    97  LYS97       0.1093
    120  NZ        29.7330  -35.5890   -2.8620 N.3    97  LYS97      -0.1314
    121  N         29.2140  -26.2630    0.8600 N.3   117  GLY117     -0.1225
    122  CA        28.6280  -26.5740   -0.4670 C.3   117  GLY117      0.1811
    123  C         29.7490  -26.7690   -1.4340 C.2   117  GLY117      0.2280
    124  O         29.6720  -27.6250   -2.3100 O.2   117  GLY117     -0.2866
    125  N         30.9600  -30.2770   -1.5230 N.3   120  GLY120     -0.1210
    126  CA        30.0400  -31.2770   -2.0450 C.3   120  GLY120      0.1956
    127  C         29.2390  -31.9920   -0.9580 C.2   120  GLY120      0.2612
    128  O         28.7920  -33.0790   -1.2300 O.2   120  GLY120     -0.2717
    129  N         29.0970  -31.4220    0.2590 N.am  121  VAL121     -0.1965
    130  CA        28.2960  -32.0580    1.3520 C.3   121  VAL121      0.1727
    131  C         27.2980  -31.0740    1.9200 C.2   121  VAL121      0.2617
    132  O         26.8420  -31.1940    3.0520 O.2   121  VAL121     -0.2715
    133  CB        29.1490  -32.6910    2.5220 C.3   121  VAL121      0.0290
    134  CG1       29.7240  -34.0460    2.0450 C.3   121  VAL121      0.0023
    135  CG2       30.2970  -31.7640    2.9630 C.3   121  VAL121      0.0023
    136  N         26.9930  -30.0480    1.1360 N.am  122  GLY122     -0.1940
    137  CA        26.1000  -28.9890    1.6040 C.3   122  GLY122      0.2014
    138  C         24.7070  -29.4830    1.9640 C.2   122  GLY122      0.2639
    139  O         24.0390  -28.8460    2.8020 O.2   122  GLY122     -0.2714
    140  N         24.2660  -30.6320    1.4180 N.am  123  PHE123     -0.1959
    141  CA        23.0300  -31.3110    1.9650 C.3   123  PHE123      0.1771
    142  C         22.9870  -31.3400    3.4820 C.2   123  PHE123      0.2619
    143  O         21.9080  -31.0970    4.0980 O.2   123  PHE123     -0.2715
    144  CB        22.9010  -32.7510    1.4600 C.3   123  PHE123      0.0574
    145  CG        21.7660  -33.5550    2.1120 C.ar  123  PHE123     -0.0200
    146  CD1       20.4310  -33.4040    1.6900 C.ar  123  PHE123     -0.0042
    147  CD2       22.0210  -34.4820    3.1240 C.ar  123  PHE123     -0.0042
    148  CE1       19.3860  -34.1450    2.2840 C.ar  123  PHE123     -0.0003
    149  CE2       20.9910  -35.2610    3.6930 C.ar  123  PHE123     -0.0003
    150  CZ        19.6680  -35.0940    3.2670 C.ar  123  PHE123     -0.0000
    151  N         24.1240  -31.6310    4.1420 N.am  124  TYR124     -0.1974
    152  CA        24.0850  -31.8760    5.6270 C.3   124  TYR124      0.1639
    153  C         23.9670  -30.5950    6.4740 C.2   124  TYR124      0.2290
    154  O         23.7590  -30.6730    7.6810 O.2   124  TYR124     -0.2864
    155  CB        25.2940  -32.7610    6.0930 C.3   124  TYR124      0.0560
    156  CG        25.1950  -34.1470    5.4800 C.ar  124  TYR124     -0.0198
    157  CD1       24.3710  -35.1300    6.0640 C.ar  124  TYR124     -0.0009
    158  CD2       25.8720  -34.4730    4.2870 C.ar  124  TYR124     -0.0009
    159  CE1       24.2260  -36.4140    5.4820 C.ar  124  TYR124      0.0417
    160  CE2       25.7420  -35.7700    3.6870 C.ar  124  TYR124      0.0417
    161  CZ        24.9170  -36.7290    4.2870 C.ar  124  TYR124      0.1957
    162  OH        24.7600  -38.0030    3.7240 O.3   124  TYR124     -0.2866
    163  N         13.4640  -36.8660    3.1430 N.3   135  VAL135     -0.1245
    164  CA        13.7640  -36.5140    1.7480 C.3   135  VAL135      0.1561
    165  C         12.7470  -37.4460    1.0520 C.2   135  VAL135      0.2260
    166  O         12.8280  -38.6820    1.1800 O.2   135  VAL135     -0.2867
    167  CB        15.2310  -36.8190    1.3240 C.3   135  VAL135      0.0252
    168  CG1       15.3930  -36.6430   -0.1870 C.3   135  VAL135      0.0019
    169  CG2       16.2150  -35.8710    2.0220 C.3   135  VAL135      0.0019
    170  N         11.6810  -33.8450   -5.7440 N.3   170  THR170     -0.1274
    171  CA        12.0350  -34.0950   -4.3320 C.3   170  THR170      0.1548
    172  C         11.4080  -33.0590   -3.4210 C.3   170  THR170      0.2036
    173  O         11.3230  -31.8260   -3.7840 O.3   170  THR170     -0.2187
    174  CB        13.5980  -34.1020   -4.1310 C.3   170  THR170      0.1721
    175  OG1       14.1220  -35.1210   -4.9740 O.3   170  THR170     -0.2215
    176  CG2       14.0090  -34.4500   -2.6430 C.3   170  THR170      0.0371
    177  N         12.2420  -31.7910    0.4340 N.3   172  LEU172     -0.1245
    178  CA        12.9810  -31.7120    1.6650 C.3   172  LEU172      0.1561
    179  C         12.0230  -31.2150    2.7380 C.2   172  LEU172      0.2260
    180  O         11.5670  -30.0650    2.7070 O.2   172  LEU172     -0.2867
    181  CB        14.1790  -30.7350    1.5210 C.3   172  LEU172      0.0270
    182  CG        15.5360  -31.2500    1.0100 C.3   172  LEU172      0.0019
    183  CD1       16.3530  -31.9620    2.0540 C.3   172  LEU172      0.0001
    184  CD2       15.4020  -32.1730   -0.2140 C.3   172  LEU172      0.0001
@<TRIPOS>BOND
     1    53    52    2
     2    52    51    1
     3    51    50    1
     4    51    54    1
     5    74    72    1
     6    54    55    1
     7    55    56    1
     8    72    71    1
     9    71    68    1
    10    71    73    1
    11    48    47    2
    12    56    57    1
    13    68    67    1
    14    68    69    1
    15    57    58    1
    16    40    39    2
    17    47    46    1
    18    70    69    2
    19    69    75   am
    20    43    42   ar
    21    39    38    1
    22    39    45   am
    23    46    45    1
    24    46    49    1
    25    95    93   ar
    26    38    37    1
    27    38    41    1
    28    75    76    1
    29    42    44   ar
    30    42    41    1
    31    78    77    2
    32    93    94   ar
    33    93    92    1
    34    35    34    2
    35    76    77    1
    36    77    79   am
    37    61    62    2
    38    61    60    1
    39    92    91    1
    40    34    33    1
    41    65    64   ar
    42    79    80    1
    43    63    60    1
    44    63    64    1
    45    80    81    1
    46    80    83    1
    47    60    59    1
    48    64    66   ar
    49    27    26    2
    50    81    82    2
    51    21    20    2
    52    91    88    1
    53    33    36    1
    54    33    32    1
    55   170   171    1
    56    84    83    1
    57    84    85    1
    58    26    32   am
    59    26    25    1
    60    20    19    1
    61    20    24   am
    62   102   101    2
    63    87    88    1
    64    88    89    1
    65   175   174    1
    66    19    22    1
    67    19    18    1
    68   103   101   am
    69    25    24    1
    70    25    28    1
    71   101   100    1
    72   171   174    1
    73   171   172    1
    74    22    23    1
    75   174   176    1
    76    85    86    1
    77   173   172    1
    78    89    90    2
    79    28    29    1
    80   100    97    1
    81    30    29    2
    82   120   119    1
    83    13    12    2
    84    29    31   am
    85   124   123    2
    86   119   118    1
    87   126   125    1
    88   126   127    1
    89    96    97    1
    90    97    98    1
    91    12    11    1
    92     4     3    2
    93   123   122    1
    94   128   127    2
    95   127   129   am
    96    98    99    2
    97    98   104   am
    98   118   117    1
    99     3     2    1
   100     3    10   am
   101     8     7   ar
   102    11    10    1
   103    11    14    1
   104   122   121    1
   105   184   182    1
   106   168   167    1
   107   117   116    1
   108     2     1    1
   109     2     5    1
   110   104   105    1
   111     9     7   ar
   112   114   113    1
   113   114   115    2
   114   129   130    1
   115     7     6    1
   116   109   111    1
   117   109   110    1
   118   109   108    1
   119   113   116    1
   120   113   112    1
   121   177   178    1
   122    14    15    1
   123   182   181    1
   124   182   183    1
   125   165   166    2
   126   165   164    1
   127     5     6    1
   128   136   137    1
   129   136   131   am
   130   105   108    1
   131   105   106    1
   132   167   164    1
   133   167   169    1
   134   130   131    1
   135   130   133    1
   136   140   138   am
   137   140   141    1
   138   144   141    1
   139   144   145    1
   140   181   178    1
   141   137   138    1
   142    17    15    1
   143   178   179    1
   144   146   145   ar
   145   146   148   ar
   146   164   163    1
   147    15    16    1
   148   131   132    2
   149   138   139    2
   150   141   142    1
   151   134   133    1
   152   145   147   ar
   153   148   150   ar
   154   133   135    1
   155   106   107    2
   156   180   179    2
   157   147   149   ar
   158   150   149   ar
   159   142   143    2
   160   142   151   am
   161   160   158   ar
   162   160   161   ar
   163   162   161    1
   164   151   152    1
   165   158   156   ar
   166   161   159   ar
   167   156   157   ar
   168   156   155    1
   169   159   157   ar
   170   152   155    1
   171   152   153    1
   172   153   154    2
