@<TRIPOS>MOLECULE
tmp/4askA00.pdb
 215 203 0 0 0
SMALL
GASTEIGER

@<TRIPOS>ATOM
      1  N         49.8190    7.0200  -26.3260 N.3    68  GLU68      -0.1245
      2  CA        48.9730    6.5510  -25.2330 C.3    68  GLU68       0.1567
      3  C         47.6530    7.3120  -25.2920 C.2    68  GLU68       0.2260
      4  O         47.5860    8.5090  -24.9610 O.2    68  GLU68      -0.2867
      5  CB        49.6690    6.7490  -23.8850 C.3    68  GLU68       0.0388
      6  CG        49.0250    6.0160  -22.7200 C.3    68  GLU68       0.1160
      7  CD        49.7620    6.2300  -21.4010 C.2    68  GLU68       0.3649
      8  OE1       50.9760    6.5400  -21.4050 O.co2  68  GLU68      -0.2457
      9  OE2       49.1190    6.0960  -20.3460 O.co2  68  GLU68      -0.2457
     10  N         43.9100    8.3740  -24.3100 N.3    70  ARG70      -0.1245
     11  CA        42.9580    8.5030  -23.2200 C.3    70  ARG70       0.1563
     12  C         41.5870    8.7850  -23.8110 C.2    70  ARG70       0.2260
     13  O         41.3910    9.8120  -24.4700 O.2    70  ARG70      -0.2867
     14  CB        43.3650    9.6440  -22.2940 C.3    70  ARG70       0.0307
     15  CG        44.6110    9.3520  -21.4810 C.3    70  ARG70       0.0489
     16  CD        44.3030    8.4060  -20.3310 C.3    70  ARG70       0.2205
     17  NE        45.4780    8.2210  -19.4890 N.pl3  70  ARG70      -0.0865
     18  CZ        45.4700    7.7020  -18.2640 C.cat  70  ARG70       0.5346
     19  NH1       44.3380    7.2900  -17.6930 N.pl3  70  ARG70       0.1354
     20  NH2       46.6110    7.6000  -17.6020 N.pl3  70  ARG70       0.1354
     21  N         37.7730    9.8520  -23.4190 N.3    72  GLN72      -0.1245
     22  CA        37.0950   10.7810  -22.5190 C.3    72  GLN72       0.1566
     23  C         35.7450   11.2080  -23.0850 C.2    72  GLN72       0.2260
     24  O         35.5600   11.2590  -24.3010 O.2    72  GLN72      -0.2867
     25  CB        37.9560   12.0320  -22.3060 C.3    72  GLN72       0.0367
     26  CG        39.3670   11.7660  -21.7870 C.3    72  GLN72       0.0905
     27  CD        40.2010   13.0320  -21.6890 C.2    72  GLN72       0.2608
     28  OE1       40.2840   13.8020  -22.6470 O.2    72  GLN72      -0.2717
     29  NE2       40.8250   13.2560  -20.5250 N.am   72  GLN72      -0.0878
     30  N         37.6780   12.3630  -12.5810 N.3    92  CYS92      -0.1235
     31  CA        37.5880   12.5030  -14.0270 C.3    92  CYS92       0.1677
     32  C         38.2420   11.2840  -14.6930 C.2    92  CYS92       0.2270
     33  O         39.4020   11.3720  -15.1220 O.2    92  CYS92      -0.2867
     34  CB        38.3020   13.8050  -14.4270 C.3    92  CYS92       0.0956
     35  SG        37.8080   14.5190  -16.0120 S.3    92  CYS92      -0.0801
     36  N         39.2390    8.1510  -17.2120 N.3    94  SER94      -0.1217
     37  CA        39.4630    7.8690  -18.6180 C.3    94  SER94       0.1889
     38  C         39.8160    6.4030  -18.7770 C.2    94  SER94       0.2288
     39  O         40.2060    5.7420  -17.8170 O.2    94  SER94      -0.2866
     40  CB        40.6270    8.7050  -19.1520 C.3    94  SER94       0.2089
     41  OG        40.4390   10.0720  -18.8710 O.3    94  SER94      -0.2183
     42  N         42.1970   11.4600  -26.6840 N.3   122  PHE122     -0.1241
     43  CA        43.2990   12.3790  -26.4080 C.3   122  PHE122      0.1605
     44  C         44.6080   11.5880  -26.5620 C.2   122  PHE122      0.2264
     45  O         44.8190   10.5860  -25.8770 O.2   122  PHE122     -0.2867
     46  CB        43.0930   12.9280  -24.9770 C.3   122  PHE122      0.0534
     47  CG        44.1760   13.8490  -24.4550 C.ar  122  PHE122     -0.0203
     48  CD1       45.1860   14.3600  -25.2560 C.ar  122  PHE122     -0.0042
     49  CD2       44.1360   14.2470  -23.1140 C.ar  122  PHE122     -0.0042
     50  CE1       46.1480   15.2090  -24.7300 C.ar  122  PHE122     -0.0003
     51  CE2       45.0910   15.1060  -22.5890 C.ar  122  PHE122     -0.0003
     52  CZ        46.1030   15.5880  -23.4000 C.ar  122  PHE122     -0.0000
     53  N         48.1780   11.0860  -25.7860 N.3   124  THR124     -0.1203
     54  CA        49.0760   11.5560  -24.7330 C.3   124  THR124      0.1994
     55  C         50.4460   10.8920  -24.7180 C.2   124  THR124      0.2617
     56  O         50.6670    9.8350  -25.3280 O.2   124  THR124     -0.2717
     57  CB        48.4870   11.3450  -23.3150 C.3   124  THR124      0.1784
     58  OG1       48.5670    9.9570  -22.9560 O.3   124  THR124     -0.2211
     59  CG2       47.0390   11.8350  -23.2210 C.3   124  THR124      0.0376
     60  N         51.3470   11.5440  -23.9930 N.am  125  ASN125     -0.1974
     61  CA        52.6070   10.9630  -23.5460 C.3   125  ASN125      0.1688
     62  C         53.4510   10.4130  -24.6850 C.2   125  ASN125      0.2292
     63  O         54.0420    9.3390  -24.5750 O.2   125  ASN125     -0.2864
     64  CB        52.3480    9.8700  -22.4870 C.3   125  ASN125      0.1181
     65  CG        51.6390   10.3940  -21.2410 C.2   125  ASN125      0.2629
     66  OD1       51.3180    9.6250  -20.3350 O.2   125  ASN125     -0.2716
     67  ND2       51.4090   11.6920  -21.1800 N.am  125  ASN125     -0.0877
     68  N         51.7840   15.9410  -27.0290 N.3   173  TYR173     -0.1241
     69  CA        50.3590   15.6680  -26.8330 C.3   173  TYR173      0.1605
     70  C         49.6070   16.0810  -28.0890 C.2   173  TYR173      0.2264
     71  O         49.7910   17.1970  -28.5850 O.2   173  TYR173     -0.2867
     72  CB        49.8260   16.4260  -25.6080 C.3   173  TYR173      0.0534
     73  CG        50.6280   16.1280  -24.3680 C.ar  173  TYR173     -0.0201
     74  CD1       50.3140   15.0470  -23.5540 C.ar  173  TYR173     -0.0009
     75  CD2       51.7350   16.9000  -24.0340 C.ar  173  TYR173     -0.0009
     76  CE1       51.0680   14.7570  -22.4260 C.ar  173  TYR173      0.0417
     77  CE2       52.4960   16.6140  -22.9160 C.ar  173  TYR173      0.0417
     78  CZ        52.1590   15.5410  -22.1190 C.ar  173  TYR173      0.1957
     79  OH        52.9180   15.2630  -21.0100 O.3   173  TYR173     -0.2866
     80  N         45.8290   16.5210  -29.7350 N.3   175  LYS175     -0.1245
     81  CA        44.5370   16.8170  -29.1100 C.3   175  LYS175      0.1561
     82  C         43.4350   17.1140  -30.1200 C.2   175  LYS175      0.2260
     83  O         43.6930   17.6080  -31.2230 O.2   175  LYS175     -0.2867
     84  CB        44.6510   18.0220  -28.1510 C.3   175  LYS175      0.0271
     85  CG        45.7310   17.9010  -27.0780 C.3   175  LYS175      0.0035
     86  CD        45.7080   19.0820  -26.1100 C.3   175  LYS175      0.0206
     87  CE        46.8410   19.0230  -25.0920 C.3   175  LYS175      0.1093
     88  NZ        46.8390   20.2190  -24.1880 N.3   175  LYS175     -0.1314
     89  N         41.3100   16.5980  -22.3330 N.3   180  ARG180     -0.1231
     90  CA        41.3670   17.1220  -20.9760 C.3   180  ARG180      0.1694
     91  C         42.5840   16.5750  -20.2250 C.2   180  ARG180      0.2593
     92  O         42.8070   15.3550  -20.1720 O.2   180  ARG180     -0.2718
     93  CB        40.0580   16.7300  -20.2690 C.3   180  ARG180      0.0321
     94  CG        39.9470   17.1140  -18.8210 C.3   180  ARG180      0.0489
     95  CD        38.5140   16.9940  -18.3180 C.3   180  ARG180      0.2205
     96  NE        37.6390   18.0460  -18.8380 N.pl3 180  ARG180     -0.0865
     97  CZ        36.4560   18.3780  -18.3090 C.cat 180  ARG180      0.5346
     98  NH1       35.9970   17.7460  -17.2370 N.pl3 180  ARG180      0.1354
     99  NH2       35.7330   19.3590  -18.8410 N.pl3 180  ARG180      0.1354
    100  N         43.3690   17.4930  -19.6600 N.am  181  THR181     -0.1940
    101  CA        44.5000   17.1580  -18.8040 C.3   181  THR181      0.2013
    102  C         44.0840   17.3830  -17.3550 C.2   181  THR181      0.2484
    103  O         43.9060   18.5230  -16.9340 O.2   181  THR181     -0.2729
    104  CB        45.7180   18.0370  -19.1220 C.3   181  THR181      0.1807
    105  OG1       46.1330   17.7880  -20.4710 O.3   181  THR181     -0.2208
    106  CG2       46.8660   17.7560  -18.1480 C.3   181  THR181      0.0379
    107  N         43.9050   16.2930  -16.5900 N.am  182  PRO182     -0.2726
    108  CA        43.4390   16.4290  -15.2110 C.3   182  PRO182      0.1402
    109  C         44.3910   17.2160  -14.3020 C.2   182  PRO182      0.2269
    110  O         45.5740   17.3820  -14.6170 O.2   182  PRO182     -0.2865
    111  CB        43.3240   14.9810  -14.7330 C.3   182  PRO182      0.0296
    112  CG        43.1580   14.1730  -15.9780 C.3   182  PRO182      0.0237
    113  CD        44.0000   14.8800  -17.0010 C.3   182  PRO182      0.0939
    114  N         46.8860   18.5660  -11.4770 N.3   184  HIS184     -0.1226
    115  CA        48.0660   18.0180  -10.8160 C.3   184  HIS184      0.1752
    116  C         49.1030   19.0580  -10.5690 C.2   184  HIS184      0.2596
    117  O         49.0520   20.1750  -11.1190 O.2   184  HIS184     -0.2718
    118  CB        48.6850   16.8710  -11.6400 C.3   184  HIS184      0.0759
    119  CG        49.1700   17.2750  -13.0160 C.ar  184  HIS184      0.0818
    120  ND1       48.3330   17.5940  -14.0200 N.ar  184  HIS184     -0.2268
    121  CD2       50.4590   17.3500  -13.5470 C.ar  184  HIS184      0.1154
    122  CE1       49.0450   17.8830  -15.1240 C.ar  184  HIS184      0.1986
    123  NE2       50.3420   17.7360  -14.8360 N.ar  184  HIS184     -0.2212
    124  N         50.0620   18.6730   -9.7330 N.am  185  GLN185     -0.1965
    125  CA        51.3570   19.3190   -9.6610 C.3   185  GLN185      0.1733
    126  C         52.3520   18.4480  -10.4030 C.2   185  GLN185      0.2616
    127  O         52.1430   17.2390  -10.5630 O.2   185  GLN185     -0.2715
    128  CB        51.7890   19.4840   -8.2040 C.3   185  GLN185      0.0408
    129  CG        50.9940   20.5240   -7.4450 C.3   185  GLN185      0.0908
    130  CD        51.2830   20.5180   -5.9540 C.2   185  GLN185      0.2608
    131  OE1       51.0370   19.5250   -5.2610 O.2   185  GLN185     -0.2717
    132  NE2       51.7770   21.6410   -5.4450 N.am  185  GLN185     -0.0878
    133  N         53.4300   19.0630  -10.8630 N.am  186  GLU186     -0.1963
    134  CA        54.4840   18.3510  -11.5500 C.3   186  GLU186      0.1733
    135  C         55.2770   17.4770  -10.5790 C.2   186  GLU186      0.2616
    136  O         55.2270   17.6820   -9.3600 O.2   186  GLU186     -0.2715
    137  CB        55.4060   19.3320  -12.2620 C.3   186  GLU186      0.0429
    138  CG        54.7220   20.1100  -13.3740 C.3   186  GLU186      0.1163
    139  CD        54.3430   19.2070  -14.5270 C.2   186  GLU186      0.3649
    140  OE1       55.2570   18.7810  -15.2440 O.co2 186  GLU186     -0.2457
    141  OE2       53.1490   18.8800  -14.6800 O.co2 186  GLU186     -0.2457
    142  N         55.9730   16.4830  -11.1250 N.am  187  ASN187     -0.1972
    143  CA        56.8780   15.6410  -10.3330 C.3   187  ASN187      0.1688
    144  C         57.8340   16.5030   -9.5100 C.2   187  ASN187      0.2292
    145  O         58.5650   17.3260  -10.0670 O.2   187  ASN187     -0.2864
    146  CB        57.7250   14.7310  -11.2260 C.3   187  ASN187      0.1181
    147  CG        56.9320   13.6250  -11.8910 C.2   187  ASN187      0.2629
    148  OD1       57.1740   13.3140  -13.0540 O.2   187  ASN187     -0.2716
    149  ND2       55.9930   13.0250  -11.1700 N.am  187  ASN187     -0.0877
    150  N         55.6790   24.5660  -21.6660 N.3   194  ASN194     -0.1240
    151  CA        54.6790   23.9720  -22.5390 C.3   194  ASN194      0.1653
    152  C         54.4230   24.9120  -23.7030 C.2   194  ASN194      0.2266
    153  O         54.1170   26.0850  -23.4980 O.2   194  ASN194     -0.2867
    154  CB        53.3850   23.7250  -21.7550 C.3   194  ASN194      0.1155
    155  CG        52.3180   23.0200  -22.5680 C.2   194  ASN194      0.2627
    156  OD1       51.8210   23.5480  -23.5690 O.2   194  ASN194     -0.2716
    157  ND2       51.9360   21.8280  -22.1250 N.am  194  ASN194     -0.0877
    158  N         43.6010   27.0080  -20.0370 N.3   204  TRP204     -0.1241
    159  CA        44.3860   26.6600  -18.8570 C.3   204  TRP204      0.1605
    160  C         43.7480   27.1590  -17.5940 C.2   204  TRP204      0.2264
    161  O         43.1660   28.2400  -17.5690 O.2   204  TRP204     -0.2867
    162  CB        45.7750   27.2830  -18.9760 C.3   204  TRP204      0.0550
    163  CG        46.6890   26.5390  -19.9070 C.ar  204  TRP204      0.0003
    164  CD1       46.6660   26.5270  -21.3020 C.ar  204  TRP204      0.0946
    165  CD2       47.8140   25.6720  -19.5370 C.ar  204  TRP204      0.0152
    166  NE1       47.6610   25.7240  -21.7960 N.ar  204  TRP204     -0.2442
    167  CE2       48.3810   25.1770  -20.7890 C.ar  204  TRP204      0.0810
    168  CE3       48.3710   25.2550  -18.3350 C.ar  204  TRP204      0.0012
    169  CZ2       49.4700   24.3170  -20.8120 C.ar  204  TRP204      0.0191
    170  CZ3       49.4610   24.3900  -18.3700 C.ar  204  TRP204      0.0001
    171  CH2       49.9980   23.9300  -19.5840 C.ar  204  TRP204      0.0015
    172  N         43.0570   10.8750  -10.9410 N.3   230  SER230     -0.1217
    173  CA        42.6200   11.7830  -12.0080 C.3   230  SER230      0.1889
    174  C         41.3990   12.5670  -11.5670 C.2   230  SER230      0.2288
    175  O         40.3460   11.9810  -11.3170 O.2   230  SER230     -0.2866
    176  CB        42.2710   10.9990  -13.2720 C.3   230  SER230      0.2089
    177  OG        43.4260   10.4330  -13.8470 O.3   230  SER230     -0.2183
    178  N         47.6150   22.7900  -11.7590 N.3   264  HIS264     -0.1241
    179  CA        47.1120   23.2140  -13.0580 C.3   264  HIS264      0.1621
    180  C         46.3270   22.1240  -13.7280 C.2   264  HIS264      0.2264
    181  O         46.5300   20.9420  -13.4500 O.2   264  HIS264     -0.2867
    182  CB        48.2720   23.6800  -13.9500 C.3   264  HIS264      0.0745
    183  CG        49.2230   22.5790  -14.3280 C.ar  264  HIS264      0.0817
    184  ND1       50.1140   22.0600  -13.4560 N.ar  264  HIS264     -0.2268
    185  CD2       49.3890   21.8830  -15.5240 C.ar  264  HIS264      0.1154
    186  CE1       50.8110   21.0870  -14.0640 C.ar  264  HIS264      0.1986
    187  NE2       50.3650   20.9740  -15.3260 N.ar  264  HIS264     -0.2212
    188  N         44.1160   21.5580  -17.8170 N.3   266  VAL266     -0.1245
    189  CA        44.1150   22.0690  -19.2030 C.3   266  VAL266      0.1561
    190  C         43.0460   21.3570  -20.0390 C.2   266  VAL266      0.2260
    191  O         42.7700   20.1750  -19.8360 O.2   266  VAL266     -0.2867
    192  CB        45.4930   21.8420  -19.8990 C.3   266  VAL266      0.0252
    193  CG1       45.6130   22.6550  -21.1920 C.3   266  VAL266      0.0019
    194  CG2       46.6480   22.2030  -18.9750 C.3   266  VAL266      0.0019
    195  N         50.5910   19.8940  -28.3520 N.3   274  ASN274     -0.1240
    196  CA        51.4150   20.5570  -27.3400 C.3   274  ASN274      0.1653
    197  C         52.7110   19.7850  -27.1240 C.2   274  ASN274      0.2266
    198  O         52.7220   18.5440  -27.1820 O.2   274  ASN274     -0.2867
    199  CB        50.6970   20.6700  -25.9910 C.3   274  ASN274      0.1155
    200  CG        49.5200   21.6250  -26.0210 C.2   274  ASN274      0.2627
    201  OD1       48.4600   21.3020  -26.5560 O.2   274  ASN274     -0.2716
    202  ND2       49.6920   22.8000  -25.4180 N.am  274  ASN274     -0.0877
    203  N         56.0100   19.5940  -24.2120 N.3   276  ALA276     -0.1245
    204  CA        56.3640   19.9990  -22.8560 C.3   276  ALA276      0.1562
    205  C         57.5350   19.2200  -22.2750 C.2   276  ALA276      0.2260
    206  O         57.8150   18.0940  -22.6750 O.2   276  ALA276     -0.2867
    207  CB        55.1550   19.8720  -21.9410 C.3   276  ALA276      0.0290
    208  N         60.1770   19.4790  -18.3420 N.3   278  ASN278     -0.1240
    209  CA        60.3970   20.1460  -17.0770 C.3   278  ASN278      0.1653
    210  C         61.7270   20.8840  -17.0010 C.2   278  ASN278      0.2266
    211  O         62.6870   20.5790  -17.7250 O.2   278  ASN278     -0.2867
    212  CB        60.2770   19.1370  -15.9390 C.3   278  ASN278      0.1155
    213  CG        58.8530   18.6810  -15.7370 C.2   278  ASN278      0.2627
    214  OD1       58.0480   19.3840  -15.1180 O.2   278  ASN278     -0.2716
    215  ND2       58.5200   17.5270  -16.2820 N.am  278  ASN278     -0.0877
@<TRIPOS>BOND
     1    83    82    2
     2    82    81    1
     3    80    81    1
     4    81    84    1
     5    71    70    2
     6   195   196    1
     7    84    85    1
     8    70    69    1
     9   196   197    1
    10   196   199    1
    11   198   197    2
    12    85    86    1
    13    68    69    1
    14    69    72    1
    15    42    43    1
    16    44    43    1
    17    44    45    2
    18   201   200    2
    19    43    46    1
    20     1     2    1
    21    86    87    1
    22   200   199    1
    23   200   202   am
    24    53    54    1
    25    72    73    1
    26    56    55    2
    27     3     2    1
    28     3     4    2
    29    48    50   ar
    30    48    47   ar
    31     2     5    1
    32    87    88    1
    33    46    47    1
    34    54    55    1
    35    54    57    1
    36    50    52   ar
    37    55    60   am
    38    62    63    2
    39    62    61    1
    40    13    12    2
    41    47    49   ar
    42    73    75   ar
    43    73    74   ar
    44    10    11    1
    45    24    23    2
    46   203   204    1
    47    75    77   ar
    48    60    61    1
    49     5     6    1
    50    12    11    1
    51   152   153    2
    52   152   151    1
    53   156   155    2
    54    74    76   ar
    55    61    64    1
    56    21    22    1
    57    52    51   ar
    58    57    59    1
    59    57    58    1
    60    11    14    1
    61    49    51   ar
    62    23    22    1
    63    77    78   ar
    64   204   205    1
    65   204   207    1
    66     6     7    1
    67   206   205    2
    68    28    27    2
    69   155   157   am
    70   155   154    1
    71   151   154    1
    72   151   150    1
    73    22    25    1
    74    64    65    1
    75    76    78   ar
    76    89    90    1
    77    25    26    1
    78    14    15    1
    79    78    79    1
    80   166   164   ar
    81   166   167   ar
    82    26    27    1
    83    27    29   am
    84    15    16    1
    85     8     7   ar
    86     7     9   ar
    87   164   163   ar
    88    65    67   am
    89    65    66    2
    90   193   192    1
    91    90    93    1
    92    90    91    1
    93   169   167   ar
    94   169   171   ar
    95   167   165   ar
    96   105   104    1
    97    16    17    1
    98    93    94    1
    99    91    92    2
   100    91   100   am
   101   190   191    2
   102   190   189    1
   103   158   159    1
   104   163   165   ar
   105   163   162    1
   106   192   189    1
   107   192   194    1
   108   100   101    1
   109   171   170   ar
   110   165   168   ar
   111    17    18    2
   112   189   188    1
   113    40    41    1
   114    40    37    1
   115   104   101    1
   116   104   106    1
   117   162   159    1
   118   159   160    1
   119    99    97    1
   120    96    95    1
   121    96    97    2
   122    94    95    1
   123   101   102    1
   124    38    37    1
   125    38    39    2
   126    37    36    1
   127   170   168   ar
   128   208   209    1
   129    97    98    1
   130    18    19    1
   131    18    20    1
   132   211   210    2
   133   160   161    2
   134   102   103    2
   135   102   107   am
   136   209   210    1
   137   209   212    1
   138   113   107    1
   139   113   112    1
   140   107   108    1
   141   215   213   am
   142    35    34    1
   143   112   111    1
   144   212   213    1
   145   213   214    2
   146   185   187   ar
   147   185   183   ar
   148   187   186   ar
   149   140   139   ar
   150   108   111    1
   151   108   109    1
   152   122   123   ar
   153   122   120   ar
   154    33    32    2
   155   123   121   ar
   156    32    31    1
   157   141   139   ar
   158   110   109    2
   159   139   138    1
   160    34    31    1
   161   183   182    1
   162   183   184   ar
   163   186   184   ar
   164    31    30    1
   165   120   119   ar
   166   182   179    1
   167   177   176    1
   168   180   181    2
   169   180   179    1
   170   121   119   ar
   171   138   137    1
   172   176   173    1
   173   179   178    1
   174   148   147    2
   175   119   118    1
   176   137   134    1
   177   173   174    1
   178   173   172    1
   179   147   146    1
   180   147   149   am
   181   118   115    1
   182   174   175    2
   183   134   133    1
   184   134   135    1
   185   114   115    1
   186   146   143    1
   187   142   135   am
   188   142   143    1
   189   117   116    2
   190   133   126   am
   191   115   116    1
   192   135   136    2
   193   116   124   am
   194   127   126    2
   195   126   125    1
   196   143   144    1
   197   145   144    2
   198   124   125    1
   199   125   128    1
   200   128   129    1
   201   129   130    1
   202   130   132   am
   203   130   131    2
