@<TRIPOS>MOLECULE
tmp/4aslA00.pdb
 122 122 0 0 0
SMALL
GASTEIGER

@<TRIPOS>ATOM
      1  N         55.2060    4.0540    5.0360 N.3    41  TRP41      -0.1241
      2  CA        53.8510    4.5650    5.2240 C.3    41  TRP41       0.1605
      3  C         52.8950    3.4560    5.6980 C.2    41  TRP41       0.2264
      4  O         53.0570    2.2770    5.3260 O.2    41  TRP41      -0.2867
      5  CB        53.3310    5.2440    3.9330 C.3    41  TRP41       0.0550
      6  CG        53.5680    4.5410    2.5570 C.ar   41  TRP41       0.0003
      7  CD1       54.6260    4.7350    1.6960 C.ar   41  TRP41       0.0946
      8  CD2       52.6890    3.6060    1.8910 C.ar   41  TRP41       0.0152
      9  NE1       54.4650    3.9480    0.5550 N.ar   41  TRP41      -0.2442
     10  CE2       53.2800    3.2660    0.6520 C.ar   41  TRP41       0.0810
     11  CE3       51.4670    3.0220    2.2320 C.ar   41  TRP41       0.0012
     12  CZ2       52.6950    2.3610   -0.2290 C.ar   41  TRP41       0.0191
     13  CZ3       50.8750    2.1420    1.3460 C.ar   41  TRP41       0.0001
     14  CH2       51.4930    1.8090    0.1330 C.ar   41  TRP41       0.0015
     15  N         48.6160   22.2990   -2.5320 N.3    74  TYR74      -0.1241
     16  CA        49.7140   21.4020   -2.8750 C.3    74  TYR74       0.1605
     17  C         50.8150   21.6470   -1.8460 C.2    74  TYR74       0.2264
     18  O         51.3300   22.7340   -1.7310 O.2    74  TYR74      -0.2867
     19  CB        50.2620   21.5740   -4.3230 C.3    74  TYR74       0.0534
     20  CG        50.9970   20.2980   -4.7800 C.ar   74  TYR74      -0.0201
     21  CD1       52.1820   19.9350   -4.1980 C.ar   74  TYR74      -0.0009
     22  CD2       50.4570   19.4180   -5.7200 C.ar   74  TYR74      -0.0009
     23  CE1       52.8120   18.7660   -4.4970 C.ar   74  TYR74       0.0417
     24  CE2       51.1230   18.2410   -6.0540 C.ar   74  TYR74       0.0417
     25  CZ        52.3150   17.9420   -5.4400 C.ar   74  TYR74       0.1957
     26  OH        53.0180   16.7850   -5.7220 O.3    74  TYR74      -0.2866
     27  N         60.1030   17.4880    1.5190 N.3    78  THR78      -0.1203
     28  CA        61.5140   17.3980    1.1250 C.3    78  THR78       0.1994
     29  C         62.1420   16.0350    1.3800 C.2    78  THR78       0.2618
     30  O         63.2680   15.8250    0.9580 O.2    78  THR78      -0.2717
     31  CB        62.3940   18.4750    1.8370 C.3    78  THR78       0.1784
     32  OG1       62.5540   18.1550    3.2250 O.3    78  THR78      -0.2211
     33  CG2       61.8100   19.8820    1.6810 C.3    78  THR78       0.0376
     34  N         61.4460   15.1480    2.0790 N.am   79  LYS79      -0.1965
     35  CA        61.9860   13.8540    2.4900 C.3    79  LYS79       0.1728
     36  C         60.8490   12.8700    2.5920 C.2    79  LYS79       0.2617
     37  O         59.7820   13.1960    3.1330 O.2    79  LYS79      -0.2715
     38  CB        62.7160   13.9610    3.8320 C.3    79  LYS79       0.0311
     39  CG        63.8630   12.9690    4.0590 C.3    79  LYS79       0.0038
     40  CD        64.3320   13.0020    5.5090 C.3    79  LYS79       0.0206
     41  CE        64.9160   14.3380    5.9140 C.3    79  LYS79       0.1093
     42  NZ        66.4060   14.3230    5.9580 N.3    79  LYS79      -0.1314
     43  N         61.0730   11.6690    2.0740 N.am   80  GLY80      -0.1940
     44  CA        60.1780   10.5480    2.2880 C.3    80  GLY80       0.2014
     45  C         60.2900   10.0200    3.7110 C.2    80  GLY80       0.2639
     46  O         61.2800   10.2530    4.4240 O.2    80  GLY80      -0.2714
     47  N         59.2770    9.2590    4.1090 N.am   81  CYS81      -0.1967
     48  CA        59.2920    8.4750    5.3450 C.3    81  CYS81       0.1712
     49  C         59.5090    9.3290    6.5910 C.2    81  CYS81       0.2296
     50  O         59.9780    8.8410    7.6050 O.2    81  CYS81      -0.2864
     51  CB        60.3310    7.3440    5.2160 C.3    81  CYS81       0.0983
     52  SG        59.9210    6.1950    3.8600 S.3    81  CYS81      -0.0798
     53  N         46.5180   13.6800   -3.6060 N.3   126  ASP126     -0.1225
     54  CA        47.6710   12.9370   -3.1710 C.3   126  ASP126      0.1805
     55  C         47.5610   12.9240   -1.6580 C.2   126  ASP126      0.2597
     56  O         47.7390   13.9930   -1.0670 O.2   126  ASP126     -0.2718
     57  CB        48.9760   13.5850   -3.6520 C.3   126  ASP126      0.1424
     58  CG        50.2050   12.9210   -3.1000 C.2   126  ASP126      0.3668
     59  OD1       50.0610   12.0960   -2.1690 O.co2 126  ASP126     -0.2456
     60  OD2       51.3230   13.2750   -3.5700 O.co2 126  ASP126     -0.2456
     61  N         47.1340   11.8370   -1.0100 N.am  127  ASP127     -0.1974
     62  CA        46.9710   10.4930   -1.5600 C.3   127  ASP127      0.1709
     63  C         45.5640   10.0760   -1.9120 C.2   127  ASP127      0.2293
     64  O         45.3980    9.2560   -2.7900 O.2   127  ASP127     -0.2864
     65  CB        47.5410    9.4680   -0.5780 C.3   127  ASP127      0.1436
     66  CG        49.0470    9.4290   -0.6350 C.2   127  ASP127      0.3671
     67  OD1       49.5800    8.7220   -1.5370 O.co2 127  ASP127     -0.2456
     68  OD2       49.6710   10.1470    0.1830 O.co2 127  ASP127     -0.2456
     69  N         46.0570    8.5640   -5.4370 N.3   160  TRP160     -0.1241
     70  CA        47.3370    8.7500   -6.0870 C.3   160  TRP160      0.1605
     71  C         47.9430    7.4110   -6.3990 C.2   160  TRP160      0.2264
     72  O         47.9470    6.5120   -5.5530 O.2   160  TRP160     -0.2867
     73  CB        48.2750    9.5540   -5.1830 C.3   160  TRP160      0.0550
     74  CG        49.5900    9.8540   -5.8430 C.ar  160  TRP160      0.0003
     75  CD1       49.8560   10.9110   -6.6420 C.ar  160  TRP160      0.0946
     76  CD2       50.7380    9.0040   -5.8940 C.ar  160  TRP160      0.0152
     77  NE1       51.1180   10.8010   -7.1660 N.ar  160  TRP160     -0.2442
     78  CE2       51.6850    9.6390   -6.7270 C.ar  160  TRP160      0.0810
     79  CE3       51.0690    7.7780   -5.3050 C.ar  160  TRP160      0.0012
     80  CZ2       52.9400    9.0860   -6.9950 C.ar  160  TRP160      0.0191
     81  CZ3       52.3090    7.2380   -5.5700 C.ar  160  TRP160      0.0001
     82  CH2       53.2220    7.8840   -6.4110 C.ar  160  TRP160      0.0015
     83  N         49.4760    9.9620    3.0940 N.3   188  ARG188     -0.1231
     84  CA        50.2050    8.8850    3.7580 C.3   188  ARG188      0.1694
     85  C         51.6640    9.1910    4.0270 C.2   188  ARG188      0.2592
     86  O         52.2690    8.5980    4.9310 O.2   188  ARG188     -0.2718
     87  CB        50.1040    7.6040    2.9290 C.3   188  ARG188      0.0321
     88  CG        51.0610    7.5570    1.7250 C.3   188  ARG188      0.0489
     89  CD        50.7490    6.4480    0.7530 C.3   188  ARG188      0.2205
     90  NE        51.7420    6.3570   -0.2790 N.pl3 188  ARG188     -0.0865
     91  CZ        51.7180    5.5160   -1.3090 C.cat 188  ARG188      0.5346
     92  NH1       50.6980    4.6870   -1.5070 N.pl3 188  ARG188      0.1354
     93  NH2       52.7460    5.5460   -2.1600 N.pl3 188  ARG188      0.1354
     94  N         52.2330   10.0880    3.2250 N.am  189  GLU189     -0.1966
     95  CA        53.6710   10.3410    3.1740 C.3   189  GLU189      0.1733
     96  C         53.9610   11.4700    2.1970 C.2   189  GLU189      0.2616
     97  O         53.2530   11.6270    1.2010 O.2   189  GLU189     -0.2715
     98  CB        54.4290    9.0990    2.7070 C.3   189  GLU189      0.0429
     99  CG        55.9520    9.2560    2.7560 C.3   189  GLU189      0.1163
    100  CD        56.7150    8.2260    1.9630 C.2   189  GLU189      0.3649
    101  OE1       56.1230    7.4300    1.2170 O.co2 189  GLU189     -0.2457
    102  OE2       57.9480    8.2230    2.1140 O.co2 189  GLU189     -0.2457
    103  N         55.0440   12.2130    2.4170 N.am  190  TYR190     -0.1960
    104  CA        55.6170   13.0450    1.3540 C.3   190  TYR190      0.1771
    105  C         54.6010   14.1140    0.8710 C.2   190  TYR190      0.2619
    106  O         53.8920   14.6860    1.7050 O.2   190  TYR190     -0.2715
    107  CB        56.1740   12.1650    0.2050 C.3   190  TYR190      0.0574
    108  CG        57.2420   12.7910   -0.6400 C.ar  190  TYR190     -0.0198
    109  CD1       58.4380   13.2140   -0.0630 C.ar  190  TYR190     -0.0009
    110  CD2       57.0830   12.9380   -1.9970 C.ar  190  TYR190     -0.0009
    111  CE1       59.4540   13.7650   -0.8240 C.ar  190  TYR190      0.0417
    112  CE2       58.0870   13.5270   -2.7780 C.ar  190  TYR190      0.0417
    113  CZ        59.2660   13.9340   -2.1690 C.ar  190  TYR190      0.1957
    114  OH        60.2870   14.4950   -2.8930 O.3   190  TYR190     -0.2866
    115  N         54.5820   14.4320   -0.4190 N.am  191  ASP191     -0.1971
    116  CA        53.7180   15.4730   -0.9350 C.3   191  ASP191      0.1709
    117  C         52.2690   15.1710   -0.6100 C.2   191  ASP191      0.2293
    118  O         51.8590   13.9950   -0.5300 O.2   191  ASP191     -0.2864
    119  CB        53.8390   15.5810   -2.4540 C.3   191  ASP191      0.1436
    120  CG        55.1680   16.1050   -2.9400 C.2   191  ASP191      0.3671
    121  OD1       56.0390   16.5010   -2.1420 O.co2 191  ASP191     -0.2456
    122  OD2       55.3200   16.1400   -4.1940 O.co2 191  ASP191     -0.2456
@<TRIPOS>BOND
     1    77    78   ar
     2    77    75   ar
     3    80    78   ar
     4    80    82   ar
     5    78    76   ar
     6    75    74   ar
     7    82    81   ar
     8    71    70    1
     9    71    72    2
    10    70    69    1
    11    70    73    1
    12    24    22   ar
    13    24    25   ar
    14    76    74   ar
    15    76    79   ar
    16    74    73    1
    17    26    25    1
    18    22    20   ar
    19    81    79   ar
    20    25    23   ar
    21    20    19    1
    22    20    21   ar
    23    23    21   ar
    24    19    16    1
    25   122   120   ar
    26    57    54    1
    27    57    58    1
    28    53    54    1
    29    60    58   ar
    30    54    55    1
    31    58    59   ar
    32   120   119    1
    33   120   121   ar
    34   114   113    1
    35    16    15    1
    36    16    17    1
    37    64    63    2
    38   112   113   ar
    39   112   110   ar
    40   119   116    1
    41   113   111   ar
    42    93    91    1
    43   110   108   ar
    44    63    62    1
    45    17    18    2
    46    55    56    2
    47    55    61   am
    48    62    61    1
    49    62    65    1
    50    67    66   ar
    51    92    91    1
    52    91    90    2
    53   116   117    1
    54   116   115    1
    55   111   109   ar
    56   108   109   ar
    57   108   107    1
    58    66    65    1
    59    66    68   ar
    60   117   118    2
    61   115   105   am
    62    90    89    1
    63    12    14   ar
    64    12    10   ar
    65    14    13   ar
    66   107   104    1
    67     9    10   ar
    68     9     7   ar
    69    10     8   ar
    70    89    88    1
    71   105   104    1
    72   105   106    2
    73    30    29    2
    74    28    29    1
    75    28    27    1
    76    28    31    1
    77    97    96    2
    78   101   100   ar
    79    13    11   ar
    80   104   103    1
    81    29    34   am
    82    33    31    1
    83     7     6   ar
    84    88    87    1
    85    31    32    1
    86     8    11   ar
    87     8     6   ar
    88   100   102   ar
    89   100    99    1
    90    43    44    1
    91    43    36   am
    92    34    35    1
    93    96   103   am
    94    96    95    1
    95    44    45    1
    96    35    36    1
    97    35    38    1
    98     6     5    1
    99    36    37    2
   100    98    99    1
   101    98    95    1
   102    87    84    1
   103    83    84    1
   104    95    94    1
   105    94    85   am
   106    45    47   am
   107    45    46    2
   108    84    85    1
   109    38    39    1
   110    52    51    1
   111     5     2    1
   112    85    86    2
   113    39    40    1
   114    47    48    1
   115     1     2    1
   116    51    48    1
   117     2     3    1
   118     4     3    2
   119    48    49    1
   120    40    41    1
   121    41    42    1
   122    49    50    2
