@<TRIPOS>MOLECULE
tmp/4asmA00.pdb
 100 101 0 0 0
SMALL
GASTEIGER

@<TRIPOS>ATOM
      1  N         12.5010   17.0560   25.6020 N.3   159  GLU159     -0.1245
      2  CA        11.5510   16.4210   26.5180 C.3   159  GLU159      0.1567
      3  C         11.8230   17.1030   27.8520 C.2   159  GLU159      0.2260
      4  O         12.9050   16.9090   28.4410 O.2   159  GLU159     -0.2867
      5  CB        11.8040   14.9160   26.6240 C.3   159  GLU159      0.0388
      6  CG        10.9330   14.2130   27.6380 C.3   159  GLU159      0.1160
      7  CD        11.0950   12.7150   27.5550 C.2   159  GLU159      0.3649
      8  OE1       12.2470   12.2570   27.7060 O.co2 159  GLU159     -0.2457
      9  OE2       10.0890   11.9950   27.3260 O.co2 159  GLU159     -0.2457
     10  N          9.9970   18.5320   31.6030 N.3   161  TYR161     -0.1241
     11  CA         8.9050   18.6640   32.5730 C.3   161  TYR161      0.1605
     12  C          9.2120   19.9000   33.3910 C.2   161  TYR161      0.2264
     13  O          9.7280   19.8100   34.5170 O.2   161  TYR161     -0.2867
     14  CB         8.8170   17.4160   33.4650 C.3   161  TYR161      0.0534
     15  CG         9.0330   16.1330   32.6810 C.ar  161  TYR161     -0.0201
     16  CD1       10.3120   15.7220   32.3420 C.ar  161  TYR161     -0.0009
     17  CD2        7.9670   15.3230   32.3270 C.ar  161  TYR161     -0.0009
     18  CE1       10.5410   14.5660   31.6180 C.ar  161  TYR161      0.0417
     19  CE2        8.1830   14.1350   31.5880 C.ar  161  TYR161      0.0417
     20  CZ         9.4810   13.7810   31.2540 C.ar  161  TYR161      0.1957
     21  OH         9.7580   12.6220   30.5320 O.3   161  TYR161     -0.2866
     22  N         15.6550   16.9010   29.2780 N.3   178  HIS178     -0.1241
     23  CA        16.1280   15.5930   28.8420 C.3   178  HIS178      0.1621
     24  C         16.5030   15.6200   27.3720 C.2   178  HIS178      0.2264
     25  O         15.6450   15.8650   26.5200 O.2   178  HIS178     -0.2867
     26  CB        15.0830   14.5080   29.1150 C.3   178  HIS178      0.0745
     27  CG        15.6340   13.1150   29.0390 C.ar  178  HIS178      0.0817
     28  ND1       14.8660   12.0420   28.6410 N.ar  178  HIS178     -0.2268
     29  CD2       16.8780   12.6270   29.2690 C.ar  178  HIS178      0.1154
     30  CE1       15.6040   10.9430   28.6710 C.ar  178  HIS178      0.1986
     31  NE2       16.8290   11.2710   29.0310 N.ar  178  HIS178     -0.2212
     32  N         15.0780    7.5130   21.2690 N.3   182  HIS182     -0.1241
     33  CA        14.6770    6.1670   21.6560 C.3   182  HIS182      0.1621
     34  C         14.9250    5.2340   20.4930 C.2   182  HIS182      0.2264
     35  O         14.8080    5.6220   19.3350 O.2   182  HIS182     -0.2867
     36  CB        13.1780    6.0920   21.9570 C.3   182  HIS182      0.0745
     37  CG        12.7530    6.6350   23.2900 C.ar  182  HIS182      0.0817
     38  ND1       12.7150    7.9840   23.5910 N.ar  182  HIS182     -0.2268
     39  CD2       12.2410    5.9970   24.3660 C.ar  182  HIS182      0.1154
     40  CE1       12.2390    8.1430   24.8170 C.ar  182  HIS182      0.1986
     41  NE2       11.9400    6.9530   25.3070 N.ar  182  HIS182     -0.2212
     42  N         16.2830    4.4450   25.9070 N.3   194  GLN194     -0.1231
     43  CA        16.5690    5.8740   25.8270 C.3   194  GLN194      0.1683
     44  C         17.7690    6.1910   26.7370 C.2   194  GLN194      0.2434
     45  O         18.0660    5.4360   27.6740 O.2   194  GLN194     -0.2733
     46  CB        15.3640    6.6840   26.2740 C.3   194  GLN194      0.0380
     47  CG        15.0600    6.5100   27.7640 C.3   194  GLN194      0.0905
     48  CD        13.7830    7.1960   28.1690 C.2   194  GLN194      0.2608
     49  OE1       12.7950    6.5610   28.5670 O.2   194  GLN194     -0.2717
     50  NE2       13.7690    8.4870   28.0150 N.am  194  GLN194     -0.0878
     51  N         18.4670    7.3000   26.4570 N.am  195  PRO195     -0.2729
     52  CA        19.5660    7.6930   27.3410 C.3   195  PRO195      0.1401
     53  C         19.1220    7.8920   28.7770 C.2   195  PRO195      0.2269
     54  O         18.1240    8.5690   29.0560 O.2   195  PRO195     -0.2865
     55  CB        20.0650    9.0040   26.7360 C.3   195  PRO195      0.0296
     56  CG        19.6950    8.8640   25.2550 C.3   195  PRO195      0.0237
     57  CD        18.3400    8.1940   25.2930 C.3   195  PRO195      0.0939
     58  N         20.2310   14.5000   31.4310 N.3   201  TRP201     -0.1241
     59  CA        19.3220   15.4410   32.0860 C.3   201  TRP201      0.1605
     60  C         20.1170   16.7420   32.2240 C.2   201  TRP201      0.2264
     61  O         20.8270   16.9690   33.2160 O.2   201  TRP201     -0.2867
     62  CB        18.8090   14.8550   33.4050 C.3   201  TRP201      0.0550
     63  CG        17.9330   13.6750   33.1330 C.ar  201  TRP201      0.0003
     64  CD1       18.3330   12.3610   32.9680 C.ar  201  TRP201      0.0946
     65  CD2       16.5140   13.6880   32.9360 C.ar  201  TRP201      0.0152
     66  NE1       17.2460   11.5720   32.6930 N.ar  201  TRP201     -0.2442
     67  CE2       16.1190   12.3530   32.6660 C.ar  201  TRP201      0.0810
     68  CE3       15.5310   14.6960   32.9710 C.ar  201  TRP201      0.0012
     69  CZ2       14.7860   11.9910   32.4370 C.ar  201  TRP201      0.0191
     70  CZ3       14.1890   14.3320   32.7400 C.ar  201  TRP201      0.0001
     71  CH2       13.8400   12.9870   32.4820 C.ar  201  TRP201      0.0015
     72  N          3.0540   11.4720   31.2130 N.3   322  GLN322     -0.1231
     73  CA         3.6890   10.1430   31.0860 C.3   322  GLN322      0.1698
     74  C          3.4140    9.2520   32.2870 C.2   322  GLN322      0.2593
     75  O          3.1840    9.7390   33.4010 O.2   322  GLN322     -0.2718
     76  CB         5.1860   10.2950   30.8040 C.3   322  GLN322      0.0381
     77  CG         5.4080   11.0760   29.5010 C.3   322  GLN322      0.0905
     78  CD         6.8630   11.3360   29.1590 C.2   322  GLN322      0.2608
     79  OE1        7.1940   11.7710   28.0380 O.2   322  GLN322     -0.2717
     80  NE2        7.7280   11.1150   30.1100 N.am  322  GLN322     -0.0878
     81  N          3.4540    7.9350   32.0780 N.am  323  SER323     -0.1938
     82  CA         3.1110    6.9980   33.1310 C.3   323  SER323      0.2055
     83  C          3.9010    7.1960   34.4090 C.2   323  SER323      0.2643
     84  O          3.3210    7.1900   35.4890 O.2   323  SER323     -0.2714
     85  CB         3.2830    5.5550   32.6480 C.3   323  SER323      0.2130
     86  OG         2.4850    5.3080   31.5120 O.3   323  SER323     -0.2179
     87  N          5.2200    7.3610   34.2920 N.am  324  TRP324     -0.1973
     88  CA         6.0670    7.4790   35.4980 C.3   324  TRP324      0.1640
     89  C          5.7220    8.7300   36.3210 C.2   324  TRP324      0.2290
     90  O          5.6650    8.6850   37.5660 O.2   324  TRP324     -0.2864
     91  CB         7.5720    7.4150   35.1310 C.3   324  TRP324      0.0576
     92  CG         8.0900    8.6390   34.3940 C.ar  324  TRP324      0.0006
     93  CD1        7.7500    9.0530   33.1460 C.ar  324  TRP324      0.0946
     94  CD2        9.0130    9.6080   34.9010 C.ar  324  TRP324      0.0152
     95  NE1        8.4260   10.2120   32.8220 N.ar  324  TRP324     -0.2442
     96  CE2        9.2040   10.5770   33.8900 C.ar  324  TRP324      0.0810
     97  CE3        9.7020    9.7460   36.1220 C.ar  324  TRP324      0.0012
     98  CZ2       10.0530   11.6750   34.0570 C.ar  324  TRP324      0.0191
     99  CZ3       10.5460   10.8320   36.2840 C.ar  324  TRP324      0.0001
    100  CH2       10.7060   11.7910   35.2590 C.ar  324  TRP324      0.0015
@<TRIPOS>BOND
     1    35    34    2
     2    34    33    1
     3    32    33    1
     4    33    36    1
     5    36    37    1
     6    37    38   ar
     7    37    39   ar
     8    38    40   ar
     9    39    41   ar
    10    40    41   ar
    11    56    57    1
    12    56    55    1
    13    57    51    1
    14     1     2    1
    15    43    42    1
    16    43    46    1
    17    43    44    1
    18    46    47    1
    19    51    44   am
    20    51    52    1
    21     2     5    1
    22     2     3    1
    23    25    24    2
    24     5     6    1
    25    55    52    1
    26    44    45    2
    27     9     7   ar
    28    52    53    1
    29    24    23    1
    30     7     6    1
    31     7     8   ar
    32    47    48    1
    33     3     4    2
    34    50    48   am
    35    79    78    2
    36    48    49    2
    37    28    30   ar
    38    28    27   ar
    39    30    31   ar
    40    53    54    2
    41    23    26    1
    42    23    22    1
    43    31    29   ar
    44    27    26    1
    45    27    29   ar
    46    78    77    1
    47    78    80   am
    48    77    76    1
    49    21    20    1
    50    76    73    1
    51    73    72    1
    52    73    74    1
    53    20    19   ar
    54    20    18   ar
    55    58    59    1
    56    86    85    1
    57    19    17   ar
    58    10    11    1
    59    18    16   ar
    60    81    74   am
    61    81    82    1
    62    59    60    1
    63    59    62    1
    64    60    61    2
    65    74    75    2
    66    17    15   ar
    67    16    15   ar
    68    69    71   ar
    69    69    67   ar
    70    71    70   ar
    71    11    12    1
    72    11    14    1
    73    85    82    1
    74    67    66   ar
    75    67    65   ar
    76    15    14    1
    77    66    64   ar
    78    70    68   ar
    79    95    93   ar
    80    95    96   ar
    81    65    68   ar
    82    65    63   ar
    83    64    63   ar
    84    82    83    1
    85    63    62    1
    86    93    92   ar
    87    12    13    2
    88    96    98   ar
    89    96    94   ar
    90    98   100   ar
    91    87    83   am
    92    87    88    1
    93    92    94   ar
    94    92    91    1
    95    83    84    2
    96    94    97   ar
    97    91    88    1
    98   100    99   ar
    99    88    89    1
   100    97    99   ar
   101    89    90    2
