@<TRIPOS>MOLECULE
tmp/4asqA00.pdb
 220 216 0 0 0
SMALL
GASTEIGER

@<TRIPOS>ATOM
      1  N         -8.9220   32.5600   -0.4350 N.3   108  GLU108     -0.1245
      2  CA        -9.1980   31.1340   -0.6050 C.3   108  GLU108      0.1567
      3  C         -9.0370   30.3660    0.7070 C.2   108  GLU108      0.2260
      4  O         -9.8240   29.4620    0.9920 O.2   108  GLU108     -0.2867
      5  CB        -8.3470   30.5070   -1.7160 C.3   108  GLU108      0.0388
      6  CG        -8.8040   29.0860   -2.0770 C.3   108  GLU108      0.1160
      7  CD        -8.0540   28.4740   -3.2480 C.2   108  GLU108      0.3649
      8  OE1       -6.8300   28.7060   -3.3760 O.co2 108  GLU108     -0.2457
      9  OE2       -8.6950   27.7410   -4.0310 O.co2 108  GLU108     -0.2457
     10  N        -28.2550   28.0260   -6.2040 N.3   249  GLN249     -0.1231
     11  CA       -27.8070   27.9060   -7.5900 C.3   249  GLN249      0.1698
     12  C        -28.4680   26.7420   -8.3150 C.2   249  GLN249      0.2592
     13  O        -28.6540   26.7890   -9.5300 O.2   249  GLN249     -0.2718
     14  CB       -26.2830   27.7810   -7.6580 C.3   249  GLN249      0.0381
     15  CG       -25.7030   26.4960   -7.0880 C.3   249  GLN249      0.0905
     16  CD       -24.1940   26.5050   -7.0980 C.2   249  GLN249      0.2608
     17  OE1      -23.5630   27.2970   -6.3960 O.2   249  GLN249     -0.2717
     18  NE2      -23.6030   25.6250   -7.8970 N.am  249  GLN249     -0.0878
     19  N        -28.8030   25.7020   -7.5540 N.am  250  GLN250     -0.1979
     20  CA       -29.4630   24.5040   -8.0670 C.3   250  GLN250      0.1601
     21  C        -30.4160   23.9920   -6.9870 C.2   250  GLN250      0.2287
     22  O        -30.0570   23.9580   -5.8060 O.2   250  GLN250     -0.2864
     23  CB       -28.4230   23.4450   -8.4540 C.3   250  GLN250      0.0394
     24  CG       -27.7620   23.7160   -9.8170 C.3   250  GLN250      0.0908
     25  CD       -26.3870   23.0820   -9.9800 C.2   250  GLN250      0.2608
     26  OE1      -25.4510   23.3840   -9.2320 O.2   250  GLN250     -0.2717
     27  NE2      -26.2520   22.2250  -10.9870 N.am  250  GLN250     -0.0878
     28  N        -13.4820   22.0680   -2.1650 N.3   321  HIS321     -0.1226
     29  CA       -14.1760   22.2500   -3.4390 C.3   321  HIS321      0.1752
     30  C        -13.4140   21.4870   -4.5170 C.2   321  HIS321      0.2596
     31  O        -12.2320   21.7520   -4.7560 O.2   321  HIS321     -0.2718
     32  CB       -14.3310   23.7270   -3.8100 C.3   321  HIS321      0.0759
     33  CG       -15.2870   23.9600   -4.9410 C.ar  321  HIS321      0.0818
     34  ND1      -16.6030   24.3210   -4.7410 N.ar  321  HIS321     -0.2268
     35  CD2      -15.1230   23.8660   -6.2820 C.ar  321  HIS321      0.1154
     36  CE1      -17.2050   24.4470   -5.9100 C.ar  321  HIS321      0.1986
     37  NE2      -16.3300   24.1750   -6.8610 N.ar  321  HIS321     -0.2212
     38  N        -14.0950   20.5300   -5.1430 N.am  322  ALA322     -0.1966
     39  CA       -13.4510   19.5610   -6.0310 C.3   322  ALA322      0.1728
     40  C        -12.6730   20.2160   -7.1690 C.2   322  ALA322      0.2617
     41  O        -13.0780   21.2550   -7.6940 O.2   322  ALA322     -0.2715
     42  CB       -14.4710   18.5700   -6.5730 C.3   322  ALA322      0.0334
     43  N        -11.5470   19.6040   -7.5280 N.am  323  SER323     -0.1936
     44  CA       -10.6830   20.1190   -8.5870 C.3   323  SER323      0.2055
     45  C         -9.9230   18.9990   -9.2910 C.2   323  SER323      0.2643
     46  O         -9.6570   17.9460   -8.7020 O.2   323  SER323     -0.2714
     47  CB        -9.6980   21.1530   -8.0290 C.3   323  SER323      0.2130
     48  OG        -8.9340   20.6090   -6.9660 O.3   323  SER323     -0.2179
     49  N         -9.5980   19.2380  -10.5600 N.am  324  ALA324     -0.1963
     50  CA        -8.7840   18.3280  -11.3610 C.3   324  ALA324      0.1728
     51  C         -7.4740   19.0230  -11.7210 C.2   324  ALA324      0.2616
     52  O         -7.4430   20.2370  -11.9140 O.2   324  ALA324     -0.2715
     53  CB        -9.5320   17.9110  -12.6120 C.3   324  ALA324      0.0334
     54  N         -6.3970   18.2510  -11.8140 N.am  325  TRP325     -0.1974
     55  CA        -5.0610   18.8230  -11.8990 C.3   325  TRP325      0.1640
     56  C         -4.2440   18.2290  -13.0410 C.2   325  TRP325      0.2290
     57  O         -4.1120   17.0100  -13.1570 O.2   325  TRP325     -0.2864
     58  CB        -4.3280   18.6420  -10.5640 C.3   325  TRP325      0.0576
     59  CG        -4.9500   19.3920   -9.4160 C.ar  325  TRP325      0.0006
     60  CD1       -6.1060   19.0760   -8.7540 C.ar  325  TRP325      0.0946
     61  CD2       -4.4400   20.5730   -8.7860 C.ar  325  TRP325      0.0152
     62  NE1       -6.3520   19.9930   -7.7620 N.ar  325  TRP325     -0.2442
     63  CE2       -5.3450   20.9230   -7.7570 C.ar  325  TRP325      0.0810
     64  CE3       -3.3080   21.3740   -8.9920 C.ar  325  TRP325      0.0012
     65  CZ2       -5.1540   22.0380   -6.9360 C.ar  325  TRP325      0.0191
     66  CZ3       -3.1170   22.4830   -8.1750 C.ar  325  TRP325      0.0001
     67  CH2       -4.0360   22.8030   -7.1580 C.ar  325  TRP325      0.0015
     68  N        -20.6390   14.8140   -9.7750 N.3   348  THR348     -0.1218
     69  CA       -19.4150   15.5840   -9.5390 C.3   348  THR348      0.1862
     70  C        -18.1610   14.7900   -9.9310 C.2   348  THR348      0.2287
     71  O        -17.2460   15.3380  -10.5560 O.2   348  THR348     -0.2866
     72  CB       -19.3280   16.0690   -8.0720 C.3   348  THR348      0.1770
     73  OG1      -20.4600   16.8970   -7.7780 O.3   348  THR348     -0.2211
     74  CG2      -18.0570   16.8740   -7.8300 C.3   348  THR348      0.0375
     75  N        -18.0210   14.8750  -13.6150 N.3   351  HIS351     -0.1226
     76  CA       -17.6380   16.2310  -14.0200 C.3   351  HIS351      0.1752
     77  C        -16.1190   16.3960  -14.0020 C.2   351  HIS351      0.2595
     78  O        -15.5210   16.8420  -14.9860 O.2   351  HIS351     -0.2718
     79  CB       -18.2980   17.2900  -13.1210 C.3   351  HIS351      0.0759
     80  CG       -17.8380   18.6900  -13.3990 C.ar  351  HIS351      0.0818
     81  ND1      -18.5410   19.5570  -14.2060 N.ar  351  HIS351     -0.2268
     82  CD2      -16.7390   19.3670  -12.9880 C.ar  351  HIS351      0.1154
     83  CE1      -17.9000   20.7090  -14.2780 C.ar  351  HIS351      0.1986
     84  NE2      -16.7990   20.6190  -13.5530 N.ar  351  HIS351     -0.2212
     85  N        -15.5080   16.0260  -12.8800 N.am  352  GLU352     -0.1979
     86  CA       -14.0680   16.1710  -12.6910 C.3   352  GLU352      0.1602
     87  C        -13.2670   15.2390  -13.5910 C.2   352  GLU352      0.2287
     88  O        -12.1910   15.6080  -14.0710 O.2   352  GLU352     -0.2864
     89  CB       -13.6900   15.9620  -11.2200 C.3   352  GLU352      0.0415
     90  CG       -14.1610   17.0790  -10.2920 C.3   352  GLU352      0.1163
     91  CD       -13.6850   18.4520  -10.7350 C.2   352  GLU352      0.3649
     92  OE1      -12.4980   18.6000  -11.0860 O.co2 352  GLU352     -0.2457
     93  OE2      -14.5040   19.3880  -10.7320 O.co2 352  GLU352     -0.2457
     94  N        -12.6900   16.7440  -16.9860 N.3   355  HIS355     -0.1241
     95  CA       -11.4820   17.5720  -17.0480 C.3   355  HIS355      0.1621
     96  C        -10.2390   16.7190  -17.2720 C.2   355  HIS355      0.2264
     97  O         -9.4090   17.0340  -18.1250 O.2   355  HIS355     -0.2867
     98  CB       -11.2980   18.3810  -15.7650 C.3   355  HIS355      0.0745
     99  CG       -12.3070   19.4670  -15.5740 C.ar  355  HIS355      0.0817
    100  ND1      -12.4700   20.5000  -16.4710 N.ar  355  HIS355     -0.2268
    101  CD2      -13.1840   19.6990  -14.5690 C.ar  355  HIS355      0.1154
    102  CE1      -13.4160   21.3130  -16.0360 C.ar  355  HIS355      0.1986
    103  NE2      -13.8640   20.8500  -14.8830 N.ar  355  HIS355     -0.2212
    104  N        -15.5630   22.6750  -18.8820 N.3   379  GLU379     -0.1245
    105  CA       -16.6070   22.4120  -17.8890 C.3   379  GLU379      0.1567
    106  C        -17.7190   21.4950  -18.4090 C.2   379  GLU379      0.2260
    107  O        -18.3860   20.8150  -17.6220 O.2   379  GLU379     -0.2867
    108  CB       -17.2010   23.7300  -17.3680 C.3   379  GLU379      0.0388
    109  CG       -16.1870   24.6750  -16.7140 C.3   379  GLU379      0.1160
    110  CD       -15.4170   24.0360  -15.5640 C.2   379  GLU379      0.3649
    111  OE1      -15.9890   23.1900  -14.8470 O.co2 379  GLU379     -0.2457
    112  OE2      -14.2360   24.3820  -15.3700 O.co2 379  GLU379     -0.2457
    113  N        -20.0750   16.8560  -17.7100 N.3   383  ASP383     -0.1239
    114  CA       -21.5200   17.0570  -17.5740 C.3   383  ASP383      0.1674
    115  C        -22.3370   16.3450  -18.6540 C.2   383  ASP383      0.2266
    116  O        -23.4890   15.9780  -18.4210 O.2   383  ASP383     -0.2867
    117  CB       -21.8560   18.5500  -17.5610 C.3   383  ASP383      0.1410
    118  CG       -21.6150   19.1960  -16.2070 C.2   383  ASP383      0.3668
    119  OD1      -20.8440   18.6350  -15.3940 O.co2 383  ASP383     -0.2456
    120  OD2      -22.1980   20.2760  -15.9580 O.co2 383  ASP383     -0.2456
    121  N        -30.0560   27.0180  -12.8310 N.3   425  PHE425     -0.1241
    122  CA       -28.6590   27.4450  -12.7730 C.3   425  PHE425      0.1605
    123  C        -28.3050   28.6070  -13.7080 C.2   425  PHE425      0.2264
    124  O        -27.4100   29.3950  -13.4020 O.2   425  PHE425     -0.2867
    125  CB       -27.7460   26.2500  -13.0610 C.3   425  PHE425      0.0534
    126  CG       -26.2800   26.5630  -12.9590 C.ar  425  PHE425     -0.0203
    127  CD1      -25.6710   26.7160  -11.7190 C.ar  425  PHE425     -0.0042
    128  CD2      -25.5100   26.7060  -14.1060 C.ar  425  PHE425     -0.0042
    129  CE1      -24.3160   27.0060  -11.6250 C.ar  425  PHE425     -0.0003
    130  CE2      -24.1570   26.9860  -14.0240 C.ar  425  PHE425     -0.0003
    131  CZ       -23.5590   27.1420  -12.7820 C.ar  425  PHE425     -0.0000
    132  N        -19.5120   32.6150   -2.0260 N.3   479  LYS479     -0.1231
    133  CA       -19.4630   31.6480   -3.1210 C.3   479  LYS479      0.1693
    134  C        -17.9990   31.3280   -3.4290 C.2   479  LYS479      0.2592
    135  O        -17.1930   32.2410   -3.6310 O.2   479  LYS479     -0.2718
    136  CB       -20.1550   32.2260   -4.3630 C.3   479  LYS479      0.0285
    137  CG       -20.1140   31.3360   -5.6060 C.3   479  LYS479      0.0035
    138  CD       -20.9170   30.0610   -5.4060 C.3   479  LYS479      0.0206
    139  CE       -20.6140   29.0530   -6.4970 C.3   479  LYS479      0.1093
    140  NZ       -20.9600   27.6740   -6.0600 N.3   479  LYS479     -0.1314
    141  N        -17.6630   30.0360   -3.4680 N.am  480  TYR480     -0.1962
    142  CA       -16.2690   29.5950   -3.6140 C.3   480  TYR480      0.1771
    143  C        -15.5160   30.3100   -4.7360 C.2   480  TYR480      0.2619
    144  O        -14.4500   30.8790   -4.5080 O.2   480  TYR480     -0.2715
    145  CB       -16.1700   28.0740   -3.8140 C.3   480  TYR480      0.0574
    146  CG       -14.7750   27.6250   -4.2150 C.ar  480  TYR480     -0.0198
    147  CD1      -13.7500   27.5340   -3.2700 C.ar  480  TYR480     -0.0009
    148  CD2      -14.4750   27.3210   -5.5440 C.ar  480  TYR480     -0.0009
    149  CE1      -12.4660   27.1400   -3.6360 C.ar  480  TYR480      0.0417
    150  CE2      -13.1920   26.9250   -5.9190 C.ar  480  TYR480      0.0417
    151  CZ       -12.1980   26.8360   -4.9620 C.ar  480  TYR480      0.1957
    152  OH       -10.9340   26.4470   -5.3320 O.3   480  TYR480     -0.2866
    153  N        -16.0860   30.2720   -5.9360 N.am  481  HIS481     -0.1973
    154  CA       -15.4490   30.8130   -7.1390 C.3   481  HIS481      0.1656
    155  C        -15.1170   32.2990   -7.0350 C.2   481  HIS481      0.2291
    156  O        -14.1590   32.7690   -7.6520 O.2   481  HIS481     -0.2864
    157  CB       -16.3350   30.5610   -8.3570 C.3   481  HIS481      0.0771
    158  CG       -16.5890   29.1100   -8.6260 C.ar  481  HIS481      0.0820
    159  ND1      -17.3620   28.3230   -7.8000 N.ar  481  HIS481     -0.2267
    160  CD2      -16.1790   28.3070   -9.6360 C.ar  481  HIS481      0.1154
    161  CE1      -17.4130   27.0960   -8.2860 C.ar  481  HIS481      0.1986
    162  NE2      -16.7050   27.0600   -9.4020 N.ar  481  HIS481     -0.2212
    163  N        -12.1660   32.4030   -4.7020 N.3   484  ALA484     -0.1245
    164  CA       -11.0300   31.7220   -5.3320 C.3   484  ALA484      0.1562
    165  C        -10.5990   32.3180   -6.6770 C.2   484  ALA484      0.2260
    166  O         -9.6980   31.7820   -7.3280 O.2   484  ALA484     -0.2867
    167  CB       -11.3210   30.2300   -5.4800 C.3   484  ALA484      0.0290
    168  N        -12.1540   32.4310   -9.6320 N.3   486  VAL486     -0.1245
    169  CA       -12.4240   31.5410  -10.7550 C.3   486  VAL486      0.1561
    170  C        -13.5540   32.1450  -11.5750 C.2   486  VAL486      0.2260
    171  O        -14.6620   32.3450  -11.0660 O.2   486  VAL486     -0.2867
    172  CB       -12.7960   30.1080  -10.2960 C.3   486  VAL486      0.0252
    173  CG1      -13.1290   29.2250  -11.4940 C.3   486  VAL486      0.0019
    174  CG2      -11.6630   29.4850   -9.4810 C.3   486  VAL486      0.0019
    175  N        -16.6590   32.6400  -13.8740 N.3   488  TYR488     -0.1241
    176  CA       -17.8780   31.8330  -13.7640 C.3   488  TYR488      0.1605
    177  C        -18.6580   31.6570  -15.0660 C.2   488  TYR488      0.2264
    178  O        -19.4370   30.7130  -15.1940 O.2   488  TYR488     -0.2867
    179  CB       -18.7990   32.3450  -12.6470 C.3   488  TYR488      0.0534
    180  CG       -19.5500   31.2270  -11.9500 C.ar  488  TYR488     -0.0201
    181  CD1      -18.9500   30.4930  -10.9270 C.ar  488  TYR488     -0.0009
    182  CD2      -20.8480   30.8870  -12.3300 C.ar  488  TYR488     -0.0009
    183  CE1      -19.6280   29.4560  -10.2910 C.ar  488  TYR488      0.0417
    184  CE2      -21.5370   29.8530  -11.7000 C.ar  488  TYR488      0.0417
    185  CZ       -20.9200   29.1450  -10.6810 C.ar  488  TYR488      0.1957
    186  OH       -21.5910   28.1210  -10.0570 O.3   488  TYR488     -0.2866
    187  N        -17.8310   30.4930  -17.7670 N.3   490  ARG490     -0.1231
    188  CA       -17.5710   29.1290  -18.2340 C.3   490  ARG490      0.1694
    189  C        -18.7380   28.1760  -17.9550 C.2   490  ARG490      0.2592
    190  O        -19.0200   27.2930  -18.7610 O.2   490  ARG490     -0.2718
    191  CB       -16.2810   28.5770  -17.6120 C.3   490  ARG490      0.0321
    192  CG       -16.2860   28.5000  -16.0820 C.3   490  ARG490      0.0489
    193  CD       -14.9430   28.0390  -15.5330 C.3   490  ARG490      0.2205
    194  NE       -13.8820   29.0120  -15.7960 N.pl3 490  ARG490     -0.0865
    195  CZ       -12.6110   28.8600  -15.4340 C.cat 490  ARG490      0.5346
    196  NH1      -12.2220   27.7700  -14.7800 N.pl3 490  ARG490      0.1354
    197  NH2      -11.7240   29.8040  -15.7260 N.pl3 490  ARG490      0.1354
    198  N        -19.4130   28.3640  -16.8200 N.am  491  TYR491     -0.1976
    199  CA       -20.5140   27.4840  -16.4280 C.3   491  TYR491      0.1639
    200  C        -21.8080   27.7760  -17.1890 C.2   491  TYR491      0.2290
    201  O        -22.5520   26.8510  -17.5210 O.2   491  TYR491     -0.2864
    202  CB       -20.7360   27.5230  -14.9120 C.3   491  TYR491      0.0560
    203  CG       -19.5420   27.0370  -14.1270 C.ar  491  TYR491     -0.0198
    204  CD1      -19.2110   25.6800  -14.0940 C.ar  491  TYR491     -0.0009
    205  CD2      -18.7370   27.9300  -13.4300 C.ar  491  TYR491     -0.0009
    206  CE1      -18.1070   25.2290  -13.3830 C.ar  491  TYR491      0.0417
    207  CE2      -17.6290   27.4890  -12.7140 C.ar  491  TYR491      0.0417
    208  CZ       -17.3220   26.1380  -12.6930 C.ar  491  TYR491      0.1957
    209  OH       -16.2290   25.6990  -11.9830 O.3   491  TYR491     -0.2866
    210  N        -23.3950   24.9360  -19.5520 N.3   495  PHE495     -0.1241
    211  CA       -24.7730   24.4600  -19.4280 C.3   495  PHE495      0.1605
    212  C        -25.5770   24.5980  -20.7240 C.2   495  PHE495      0.2264
    213  O        -26.5260   23.8500  -20.9420 O.2   495  PHE495     -0.2867
    214  CB       -25.4780   25.1390  -18.2500 C.3   495  PHE495      0.0534
    215  CG       -25.2320   24.4660  -16.9200 C.ar  495  PHE495     -0.0203
    216  CD1      -23.9360   24.1910  -16.4820 C.ar  495  PHE495     -0.0042
    217  CD2      -26.3010   24.0990  -16.1070 C.ar  495  PHE495     -0.0042
    218  CE1      -23.7100   23.5690  -15.2520 C.ar  495  PHE495     -0.0003
    219  CE2      -26.0870   23.4800  -14.8760 C.ar  495  PHE495     -0.0003
    220  CZ       -24.7910   23.2140  -14.4480 C.ar  495  PHE495     -0.0000
@<TRIPOS>BOND
     1   213   212    2
     2   212   211    1
     3   210   211    1
     4   211   214    1
     5   104   105    1
     6   190   189    2
     7   115   116    2
     8   115   114    1
     9   106   105    1
    10   106   107    2
    11   214   215    1
    12   188   189    1
    13   188   187    1
    14   188   191    1
    15    97    96    2
    16   189   198   am
    17   105   108    1
    18   113   114    1
    19   191   192    1
    20   114   117    1
    21   117   118    1
    22   201   200    2
    23   108   109    1
    24    96    95    1
    25   200   199    1
    26    95    94    1
    27    95    98    1
    28   215   216   ar
    29   215   217   ar
    30   198   199    1
    31   109   110    1
    32   216   218   ar
    33   100   102   ar
    34   100    99   ar
    35   199   202    1
    36   118   120   ar
    37   118   119   ar
    38   217   219   ar
    39   192   193    1
    40   102   103   ar
    41   194   193    1
    42   194   195    2
    43    98    99    1
    44   197   195    1
    45    99   101   ar
    46   110   112   ar
    47   110   111   ar
    48   195   196    1
    49   218   220   ar
    50   178   177    2
    51   177   176    1
    52    78    77    2
    53   202   203    1
    54   103   101   ar
    55   219   220   ar
    56    83    81   ar
    57    83    84   ar
    58    81    80   ar
    59   203   204   ar
    60   203   205   ar
    61   128   130   ar
    62   128   126   ar
    63   204   206   ar
    64    88    87    2
    65   130   131   ar
    66    76    77    1
    67    76    75    1
    68    76    79    1
    69    77    85   am
    70   175   176    1
    71   176   179    1
    72   123   124    2
    73   123   122    1
    74    87    86    1
    75    84    82   ar
    76   205   207   ar
    77    80    79    1
    78    80    82   ar
    79   206   208   ar
    80    57    56    2
    81   125   126    1
    82   125   122    1
    83    56    55    1
    84   126   127   ar
    85    85    86    1
    86   121   122    1
    87   131   129   ar
    88   207   208   ar
    89   208   209    1
    90    86    89    1
    91   179   180    1
    92    53    50    1
    93   182   180   ar
    94   182   184   ar
    95   180   181   ar
    96    52    51    2
    97    55    54    1
    98    55    58    1
    99    54    51   am
   100    51    50    1
   101   127   129   ar
   102   184   185   ar
   103   170   171    2
   104   170   169    1
   105   173   172    1
   106    50    49    1
   107    89    90    1
   108    92    91   ar
   109    27    25   am
   110   181   183   ar
   111   169   172    1
   112   169   168    1
   113    91    93   ar
   114    91    90    1
   115   185   183   ar
   116   185   186    1
   117    58    59    1
   118    49    45   am
   119    71    70    2
   120   172   174    1
   121    25    24    1
   122    25    26    2
   123    70    69    1
   124    24    23    1
   125    68    69    1
   126   160   162   ar
   127   160   158   ar
   128    69    72    1
   129    13    12    2
   130    59    61   ar
   131    59    60   ar
   132   162   161   ar
   133    45    46    2
   134    45    44    1
   135    64    61   ar
   136    64    66   ar
   137    61    63   ar
   138    60    62   ar
   139   158   157    1
   140   158   159   ar
   141    44    47    1
   142    44    43    1
   143    23    20    1
   144   157   154    1
   145    12    11    1
   146    12    19   am
   147   161   159   ar
   148    66    67   ar
   149    72    74    1
   150    72    73    1
   151    20    19    1
   152    20    21    1
   153    47    48    1
   154    18    16   am
   155    62    63   ar
   156    63    65   ar
   157    41    40    2
   158    14    11    1
   159    14    15    1
   160   156   155    2
   161    11    10    1
   162    43    40   am
   163   166   165    2
   164    40    39    1
   165    67    65   ar
   166   154   155    1
   167   154   153    1
   168    16    15    1
   169    16    17    2
   170    21    22    2
   171    37    35   ar
   172    37    36   ar
   173   165   164    1
   174    42    39    1
   175   139   140    1
   176   139   138    1
   177    35    33   ar
   178    39    38    1
   179   153   143   am
   180   150   148   ar
   181   150   151   ar
   182    36    34   ar
   183   137   138    1
   184   137   136    1
   185   148   146   ar
   186   167   164    1
   187   164   163    1
   188   152   151    1
   189    38    30   am
   190   151   149   ar
   191    33    34   ar
   192    33    32    1
   193    31    30    2
   194   143   144    2
   195   143   142    1
   196    30    29    1
   197   136   133    1
   198   146   145    1
   199   146   147   ar
   200     9     7   ar
   201   145   142    1
   202    32    29    1
   203   149   147   ar
   204   135   134    2
   205   142   141    1
   206   141   134   am
   207    29    28    1
   208   134   133    1
   209     8     7   ar
   210     7     6    1
   211   133   132    1
   212     6     5    1
   213     5     2    1
   214     2     1    1
   215     2     3    1
   216     3     4    2
