@<TRIPOS>MOLECULE
tmp/4asqA03.pdb
 105 103 0 0 0
SMALL
GASTEIGER

@<TRIPOS>ATOM
      1  N        -14.0950   20.5300   -5.1430 N.3   322  ALA322     -0.1231
      2  CA       -13.4510   19.5610   -6.0310 C.3   322  ALA322      0.1694
      3  C        -12.6730   20.2160   -7.1690 C.2   322  ALA322      0.2593
      4  O        -13.0780   21.2550   -7.6940 O.2   322  ALA322     -0.2718
      5  CB       -14.4710   18.5700   -6.5730 C.3   322  ALA322      0.0304
      6  N        -11.5470   19.6040   -7.5280 N.am  323  SER323     -0.1938
      7  CA       -10.6830   20.1190   -8.5870 C.3   323  SER323      0.2055
      8  C         -9.9230   18.9990   -9.2910 C.2   323  SER323      0.2643
      9  O         -9.6570   17.9460   -8.7020 O.2   323  SER323     -0.2714
     10  CB        -9.6980   21.1530   -8.0290 C.3   323  SER323      0.2130
     11  OG        -8.9340   20.6090   -6.9660 O.3   323  SER323     -0.2179
     12  N         -9.5980   19.2380  -10.5600 N.am  324  ALA324     -0.1963
     13  CA        -8.7840   18.3280  -11.3610 C.3   324  ALA324      0.1728
     14  C         -7.4740   19.0230  -11.7210 C.2   324  ALA324      0.2616
     15  O         -7.4430   20.2370  -11.9140 O.2   324  ALA324     -0.2715
     16  CB        -9.5320   17.9110  -12.6120 C.3   324  ALA324      0.0334
     17  N         -6.3970   18.2510  -11.8140 N.am  325  TRP325     -0.1960
     18  CA        -5.0610   18.8230  -11.8990 C.3   325  TRP325      0.1771
     19  C         -4.2440   18.2290  -13.0410 C.2   325  TRP325      0.2619
     20  O         -4.1120   17.0100  -13.1570 O.2   325  TRP325     -0.2715
     21  CB        -4.3280   18.6420  -10.5640 C.3   325  TRP325      0.0590
     22  CG        -4.9500   19.3920   -9.4160 C.ar  325  TRP325      0.0006
     23  CD1       -6.1060   19.0760   -8.7540 C.ar  325  TRP325      0.0946
     24  CD2       -4.4400   20.5730   -8.7860 C.ar  325  TRP325      0.0152
     25  NE1       -6.3520   19.9930   -7.7620 N.ar  325  TRP325     -0.2442
     26  CE2       -5.3450   20.9230   -7.7570 C.ar  325  TRP325      0.0810
     27  CE3       -3.3080   21.3740   -8.9920 C.ar  325  TRP325      0.0012
     28  CZ2       -5.1540   22.0380   -6.9360 C.ar  325  TRP325      0.0191
     29  CZ3       -3.1170   22.4830   -8.1750 C.ar  325  TRP325      0.0001
     30  CH2       -4.0360   22.8030   -7.1580 C.ar  325  TRP325      0.0015
     31  N         -3.7150   19.1090  -13.8880 N.am  326  ASP326     -0.1971
     32  CA        -2.8330   18.7210  -14.9810 C.3   326  ASP326      0.1709
     33  C         -1.4180   19.1760  -14.6400 C.2   326  ASP326      0.2293
     34  O         -1.1760   20.3660  -14.4320 O.2   326  ASP326     -0.2864
     35  CB        -3.3040   19.3620  -16.2920 C.3   326  ASP326      0.1436
     36  CG        -2.5970   18.8020  -17.5220 C.2   326  ASP326      0.3671
     37  OD1       -1.6740   17.9670  -17.3860 O.co2 326  ASP326     -0.2456
     38  OD2       -2.9770   19.2040  -18.6420 O.co2 326  ASP326     -0.2456
     39  N        -15.5080   16.0260  -12.8800 N.3   352  GLU352     -0.1245
     40  CA       -14.0680   16.1710  -12.6910 C.3   352  GLU352      0.1567
     41  C        -13.2670   15.2390  -13.5910 C.2   352  GLU352      0.2260
     42  O        -12.1910   15.6080  -14.0710 O.2   352  GLU352     -0.2867
     43  CB       -13.6900   15.9620  -11.2200 C.3   352  GLU352      0.0388
     44  CG       -14.1610   17.0790  -10.2920 C.3   352  GLU352      0.1160
     45  CD       -13.6850   18.4520  -10.7350 C.2   352  GLU352      0.3649
     46  OE1      -12.4980   18.6000  -11.0860 O.co2 352  GLU352     -0.2457
     47  OE2      -14.5040   19.3880  -10.7320 O.co2 352  GLU352     -0.2457
     48  N        -12.6900   16.7440  -16.9860 N.3   355  HIS355     -0.1241
     49  CA       -11.4820   17.5720  -17.0480 C.3   355  HIS355      0.1621
     50  C        -10.2390   16.7190  -17.2720 C.2   355  HIS355      0.2264
     51  O         -9.4090   17.0340  -18.1250 O.2   355  HIS355     -0.2867
     52  CB       -11.2980   18.3810  -15.7650 C.3   355  HIS355      0.0745
     53  CG       -12.3070   19.4670  -15.5740 C.ar  355  HIS355      0.0817
     54  ND1      -12.4700   20.5000  -16.4710 N.ar  355  HIS355     -0.2268
     55  CD2      -13.1840   19.6990  -14.5690 C.ar  355  HIS355      0.1154
     56  CE1      -13.4160   21.3130  -16.0360 C.ar  355  HIS355      0.1986
     57  NE2      -13.8640   20.8500  -14.8830 N.ar  355  HIS355     -0.2212
     58  N         -7.4400   16.6620  -20.3050 N.3   359  PHE359     -0.1241
     59  CA        -5.9830   16.7300  -20.0770 C.3   359  PHE359      0.1605
     60  C         -5.2460   15.6450  -20.8600 C.2   359  PHE359      0.2264
     61  O         -4.2460   15.9190  -21.5300 O.2   359  PHE359     -0.2867
     62  CB        -5.6130   16.5680  -18.5930 C.3   359  PHE359      0.0534
     63  CG        -6.1900   17.6150  -17.6680 C.ar  359  PHE359     -0.0203
     64  CD1       -6.4960   18.9000  -18.1140 C.ar  359  PHE359     -0.0042
     65  CD2       -6.3740   17.3160  -16.3190 C.ar  359  PHE359     -0.0042
     66  CE1       -7.0130   19.8560  -17.2360 C.ar  359  PHE359     -0.0003
     67  CE2       -6.8870   18.2650  -15.4360 C.ar  359  PHE359     -0.0003
     68  CZ        -7.2050   19.5380  -15.8950 C.ar  359  PHE359     -0.0000
     69  N         -5.0060   23.3300  -23.1690 N.3   371  THR371     -0.1218
     70  CA        -6.1330   23.8720  -22.4090 C.3   371  THR371      0.1862
     71  C         -7.3920   23.7330  -23.2700 C.2   371  THR371      0.2287
     72  O         -7.3010   23.3300  -24.4280 O.2   371  THR371     -0.2866
     73  CB        -5.8880   25.3400  -21.9520 C.3   371  THR371      0.1770
     74  OG1       -6.9610   25.7630  -21.1030 O.3   371  THR371     -0.2211
     75  CG2       -5.7730   26.2900  -23.1400 C.3   371  THR371      0.0375
     76  N        -14.2540   22.9510  -21.3650 N.3   378  HIS378     -0.1226
     77  CA       -13.6480   22.1590  -20.2950 C.3   378  HIS378      0.1752
     78  C        -14.6810   21.7450  -19.2420 C.2   378  HIS378      0.2595
     79  O        -14.6830   20.6030  -18.7780 O.2   378  HIS378     -0.2718
     80  CB       -12.5030   22.9370  -19.6360 C.3   378  HIS378      0.0759
     81  CG       -11.2140   22.1780  -19.5750 C.ar  378  HIS378      0.0818
     82  ND1      -11.0610   21.0270  -18.8330 N.ar  378  HIS378     -0.2268
     83  CD2      -10.0190   22.4040  -20.1700 C.ar  378  HIS378      0.1154
     84  CE1       -9.8270   20.5770  -18.9710 C.ar  378  HIS378      0.1986
     85  NE2       -9.1740   21.3940  -19.7780 N.ar  378  HIS378     -0.2212
     86  N        -15.5630   22.6750  -18.8820 N.am  379  GLU379     -0.1979
     87  CA       -16.6070   22.4120  -17.8890 C.3   379  GLU379      0.1602
     88  C        -17.7190   21.4950  -18.4090 C.2   379  GLU379      0.2287
     89  O        -18.3860   20.8150  -17.6220 O.2   379  GLU379     -0.2864
     90  CB       -17.2010   23.7300  -17.3680 C.3   379  GLU379      0.0415
     91  CG       -16.1870   24.6750  -16.7140 C.3   379  GLU379      0.1163
     92  CD       -15.4170   24.0360  -15.5640 C.2   379  GLU379      0.3649
     93  OE1      -15.9890   23.1900  -14.8470 O.co2 379  GLU379     -0.2457
     94  OE2      -14.2360   24.3820  -15.3700 O.co2 379  GLU379     -0.2457
     95  N        -17.8310   30.4930  -17.7670 N.3   490  ARG490     -0.1245
     96  CA       -17.5710   29.1290  -18.2340 C.3   490  ARG490      0.1563
     97  C        -18.7380   28.1760  -17.9550 C.2   490  ARG490      0.2260
     98  O        -19.0200   27.2930  -18.7610 O.2   490  ARG490     -0.2867
     99  CB       -16.2810   28.5770  -17.6120 C.3   490  ARG490      0.0307
    100  CG       -16.2860   28.5000  -16.0820 C.3   490  ARG490      0.0489
    101  CD       -14.9430   28.0390  -15.5330 C.3   490  ARG490      0.2205
    102  NE       -13.8820   29.0120  -15.7960 N.pl3 490  ARG490     -0.0865
    103  CZ       -12.6110   28.8600  -15.4340 C.cat 490  ARG490      0.5346
    104  NH1      -12.2220   27.7700  -14.7800 N.pl3 490  ARG490      0.1354
    105  NH2      -11.7240   29.8040  -15.7260 N.pl3 490  ARG490      0.1354
@<TRIPOS>BOND
     1    72    71    2
     2    71    70    1
     3    69    70    1
     4    75    73    1
     5    70    73    1
     6    73    74    1
     7    61    60    2
     8    76    77    1
     9    60    59    1
    10    58    59    1
    11    77    80    1
    12    77    78    1
    13    83    85   ar
    14    83    81   ar
    15    59    62    1
    16    85    84   ar
    17    80    81    1
    18    81    82   ar
    19    78    86   am
    20    78    79    2
    21    84    82   ar
    22    86    87    1
    23    98    97    2
    24    38    36   ar
    25    62    63    1
    26    88    87    1
    27    88    89    2
    28    96    97    1
    29    96    95    1
    30    96    99    1
    31    51    50    2
    32    64    63   ar
    33    64    66   ar
    34    87    90    1
    35    63    65   ar
    36    99   100    1
    37    36    37   ar
    38    36    35    1
    39    90    91    1
    40    50    49    1
    41    66    68   ar
    42    49    48    1
    43    49    52    1
    44    91    92    1
    45    54    56   ar
    46    54    53   ar
    47    65    67   ar
    48    35    32    1
    49   100   101    1
    50    56    57   ar
    51    68    67   ar
    52   102   101    1
    53   102   103    2
    54    52    53    1
    55   105   103    1
    56    53    55   ar
    57    92    94   ar
    58    92    93   ar
    59   103   104    1
    60    32    33    1
    61    32    31    1
    62    57    55   ar
    63    33    34    2
    64    42    41    2
    65    31    19   am
    66    41    40    1
    67    20    19    2
    68    19    18    1
    69    39    40    1
    70    40    43    1
    71    16    13    1
    72    15    14    2
    73    18    17    1
    74    18    21    1
    75    17    14   am
    76    14    13    1
    77    13    12    1
    78    43    44    1
    79    46    45   ar
    80    45    47   ar
    81    45    44    1
    82    21    22    1
    83    12     8   am
    84    22    24   ar
    85    22    23   ar
    86     8     9    2
    87     8     7    1
    88    27    24   ar
    89    27    29   ar
    90    24    26   ar
    91    23    25   ar
    92     7    10    1
    93     7     6    1
    94    29    30   ar
    95    10    11    1
    96    25    26   ar
    97    26    28   ar
    98     4     3    2
    99     6     3   am
   100     3     2    1
   101    30    28   ar
   102     5     2    1
   103     2     1    1
