@<TRIPOS>MOLECULE
tmp/4asxA00.pdb
 156 146 0 0 0
SMALL
GASTEIGER

@<TRIPOS>ATOM
      1  N        -33.0160   39.8550    5.3430 N.3    23  LYS23      -0.1231
      2  CA       -33.2870   41.0630    4.5670 C.3    23  LYS23       0.1693
      3  C        -32.7320   42.3080    5.2630 C.2    23  LYS23       0.2592
      4  O        -32.2710   43.2280    4.5960 O.2    23  LYS23      -0.2718
      5  CB       -34.7880   41.2100    4.3240 C.3    23  LYS23       0.0285
      6  CG       -35.2600   42.5320    3.6820 C.3    23  LYS23       0.0035
      7  CD       -35.0890   42.5940    2.1570 C.3    23  LYS23       0.0206
      8  CE       -35.8860   43.7380    1.5210 C.3    23  LYS23       0.1093
      9  NZ       -35.9670   43.6640    0.0260 N.3    23  LYS23      -0.1314
     10  N        -32.8000   42.3400    6.5920 N.am   24  ALA24      -0.1966
     11  CA       -32.3310   43.5080    7.3530 C.3    24  ALA24       0.1728
     12  C        -31.9950   43.1090    8.7670 C.2    24  ALA24       0.2616
     13  O        -32.4350   42.0640    9.2540 O.2    24  ALA24      -0.2715
     14  CB       -33.4160   44.5780    7.3630 C.3    24  ALA24       0.0334
     15  N        -31.2330   43.9720    9.4300 N.am   25  ARG25      -0.1963
     16  CA       -30.8290   43.7870   10.8150 C.3    25  ARG25       0.1729
     17  C        -31.5190   44.8570   11.6200 C.2    25  ARG25       0.2616
     18  O        -31.1580   46.0130   11.5040 O.2    25  ARG25      -0.2715
     19  CB       -29.3070   43.9860   10.9400 C.3    25  ARG25       0.0348
     20  CG       -28.7610   43.9400   12.3660 C.3    25  ARG25       0.0492
     21  CD       -28.7140   42.5180   12.8810 C.3    25  ARG25       0.2205
     22  NE       -29.3080   42.3540   14.2080 N.pl3  25  ARG25      -0.0865
     23  CZ       -29.4720   41.1690   14.7960 C.cat  25  ARG25       0.5346
     24  NH1      -29.0710   40.0570   14.1750 N.pl3  25  ARG25       0.1354
     25  NH2      -30.0380   41.0820   16.0040 N.pl3  25  ARG25       0.1354
     26  N        -32.4870   44.4910   12.4470 N.am   26  GLY26      -0.1955
     27  CA       -33.1330   45.4640   13.3210 C.3    26  GLY26       0.1869
     28  C        -32.2570   45.8460   14.4940 C.2    26  GLY26       0.2309
     29  O        -31.1400   45.3460   14.6520 O.2    26  GLY26      -0.2863
     30  N        -34.2900   40.3410   10.6040 N.3    31  VAL31      -0.1245
     31  CA       -35.4980   40.3120    9.7770 C.3    31  VAL31       0.1561
     32  C        -35.2830   39.4150    8.5660 C.2    31  VAL31       0.2260
     33  O        -34.4490   39.7210    7.7240 O.2    31  VAL31      -0.2867
     34  CB       -35.9060   41.7110    9.2860 C.3    31  VAL31       0.0252
     35  CG1      -37.2430   41.6580    8.5320 C.3    31  VAL31       0.0019
     36  CG2      -36.0450   42.6740   10.4720 C.3    31  VAL31       0.0019
     37  N        -42.3690   38.7180    6.6430 N.3    42  ALA42      -0.1245
     38  CA       -41.1140   39.0030    7.3150 C.3    42  ALA42       0.1562
     39  C        -41.1700   38.3230    8.6670 C.2    42  ALA42       0.2260
     40  O        -42.1280   38.5440    9.4360 O.2    42  ALA42      -0.2867
     41  CB       -40.9080   40.5240    7.4930 C.3    42  ALA42       0.0290
     42  N        -39.2000   38.3120   12.0550 N.3    44  LYS44      -0.1245
     43  CA       -38.1780   38.9460   12.8330 C.3    44  LYS44       0.1561
     44  C        -37.8730   38.0460   14.0280 C.2    44  LYS44       0.2260
     45  O        -38.7630   37.6980   14.8180 O.2    44  LYS44      -0.2867
     46  CB       -38.6230   40.3290   13.2650 C.3    44  LYS44       0.0271
     47  CG       -37.4940   41.1600   13.8400 C.3    44  LYS44       0.0035
     48  CD       -37.7800   42.6360   13.6340 C.3    44  LYS44       0.0206
     49  CE       -37.4910   43.4180   14.8950 C.3    44  LYS44       0.1093
     50  NZ       -38.5830   44.3970   15.1090 N.3    44  LYS44      -0.1314
     51  N        -42.7970   44.9740   21.4910 N.3    57  GLU57      -0.1245
     52  CA       -43.3600   45.0910   20.1540 C.3    57  GLU57       0.1567
     53  C        -44.7080   44.3680   20.0320 C.2    57  GLU57       0.2260
     54  O        -45.6800   44.9060   19.4760 O.2    57  GLU57      -0.2867
     55  CB       -42.3590   44.6010   19.1160 C.3    57  GLU57       0.0388
     56  CG       -42.7840   44.9250   17.6820 C.3    57  GLU57       0.1160
     57  CD       -41.6270   45.0790   16.7140 C.2    57  GLU57       0.3649
     58  OE1      -40.5210   44.5270   16.9570 O.co2  57  GLU57      -0.2457
     59  OE2      -41.8350   45.7740   15.7060 O.co2  57  GLU57      -0.2457
     60  N        -46.7970   49.1170    9.6410 N.3    72  LEU72      -0.1245
     61  CA       -46.4310   47.7880    9.1400 C.3    72  LEU72       0.1561
     62  C        -47.3840   46.7350    9.7010 C.2    72  LEU72       0.2260
     63  O        -47.6080   46.6610   10.9250 O.2    72  LEU72      -0.2867
     64  CB       -45.0040   47.4390    9.4980 C.3    72  LEU72       0.0270
     65  CG       -44.5220   46.0270    9.0990 C.3    72  LEU72       0.0019
     66  CD1      -44.5120   45.8320    7.5730 C.3    72  LEU72       0.0001
     67  CD2      -43.1930   45.7590    9.7450 C.3    72  LEU72       0.0001
     68  N        -44.5870   39.8610   10.3220 N.3    92  THR92      -0.1203
     69  CA       -45.2500   41.0320    9.7430 C.3    92  THR92       0.1994
     70  C        -45.3790   40.8460    8.2430 C.2    92  THR92       0.2618
     71  O        -44.9050   39.8420    7.6550 O.2    92  THR92      -0.2717
     72  CB       -44.4610   42.3520   10.0040 C.3    92  THR92       0.1784
     73  OG1      -43.2190   42.3300    9.2800 O.3    92  THR92      -0.2211
     74  CG2      -44.1850   42.5870   11.4720 C.3    92  THR92       0.0376
     75  N        -46.0290   41.7980    7.5990 N.am   93  ALA93      -0.1965
     76  CA       -45.9730   41.8580    6.1530 C.3    93  ALA93       0.1728
     77  C        -44.5300   42.0320    5.7080 C.2    93  ALA93       0.2616
     78  O        -43.6710   42.4920    6.4760 O.2    93  ALA93      -0.2715
     79  CB       -46.8300   42.9950    5.6270 C.3    93  ALA93       0.0334
     80  N        -44.2700   41.6050    4.4800 N.am   94  PHE94      -0.1960
     81  CA       -43.0020   41.8000    3.8330 C.3    94  PHE94       0.1771
     82  C        -43.1910   42.7360    2.6430 C.2    94  PHE94       0.2619
     83  O        -44.1800   42.6140    1.8980 O.2    94  PHE94      -0.2715
     84  CB       -42.4460   40.4720    3.3280 C.3    94  PHE94       0.0574
     85  CG       -41.1810   40.6380    2.5670 C.ar   94  PHE94      -0.0200
     86  CD1      -39.9720   40.7570    3.2310 C.ar   94  PHE94      -0.0042
     87  CD2      -41.1960   40.7740    1.1910 C.ar   94  PHE94      -0.0042
     88  CE1      -38.7930   40.9620    2.5270 C.ar   94  PHE94      -0.0003
     89  CE2      -40.0160   40.9750    0.4940 C.ar   94  PHE94      -0.0003
     90  CZ       -38.8140   41.0550    1.1660 C.ar   94  PHE94      -0.0000
     91  N        -42.2590   43.6670    2.4690 N.am   95  HIS95      -0.1973
     92  CA       -42.3260   44.6260    1.3360 C.3    95  HIS95       0.1656
     93  C        -41.0280   44.6020    0.5800 C.2    95  HIS95       0.2291
     94  O        -39.9690   44.8890    1.1430 O.2    95  HIS95      -0.2864
     95  CB       -42.6360   46.0430    1.8220 C.3    95  HIS95       0.0771
     96  CG       -43.9540   46.1650    2.5280 C.ar   95  HIS95       0.0820
     97  ND1      -45.1050   45.8780    1.9330 N.ar   95  HIS95      -0.2267
     98  CD2      -44.2630   46.5300    3.8300 C.ar   95  HIS95       0.1154
     99  CE1      -46.1130   46.0380    2.7870 C.ar   95  HIS95       0.1986
    100  NE2      -45.5930   46.4360    3.9670 N.ar   95  HIS95      -0.2212
    101  N        -38.3860   47.2370    0.6290 N.3    98  GLY98      -0.1210
    102  CA       -37.7020   47.4700    1.8970 C.3    98  GLY98       0.1956
    103  C        -37.8150   48.8780    2.4900 C.2    98  GLY98       0.2612
    104  O        -38.8270   49.5820    2.3280 O.2    98  GLY98      -0.2717
    105  N        -36.7640   49.2930    3.1900 N.am   99  SER99      -0.1952
    106  CA       -36.7790   50.5450    3.9060 C.3    99  SER99       0.1924
    107  C        -36.6150   51.7040    2.9590 C.2    99  SER99       0.2314
    108  O        -36.0720   51.5400    1.8670 O.2    99  SER99      -0.2863
    109  CB       -35.6740   50.5750    4.9420 C.3    99  SER99       0.2116
    110  OG       -34.4150   50.4940    4.2980 O.3    99  SER99      -0.2180
    111  N        -32.8690   51.9610    2.1320 N.3   102  ASP102     -0.1239
    112  CA       -32.4120   51.1800    1.0040 C.3   102  ASP102      0.1674
    113  C        -32.9230   51.7310   -0.3230 C.2   102  ASP102      0.2266
    114  O        -32.1600   51.8000   -1.2840 O.2   102  ASP102     -0.2867
    115  CB       -32.8030   49.7290    1.1580 C.3   102  ASP102      0.1410
    116  CG       -32.0670   49.0400    2.3000 C.2   102  ASP102      0.3668
    117  OD1      -31.2720   49.6590    3.0630 O.co2 102  ASP102     -0.2456
    118  OD2      -32.3200   47.8430    2.4420 O.co2 102  ASP102     -0.2456
    119  N        -34.4570   53.9140    8.0240 N.3   151  LYS151     -0.1231
    120  CA       -34.4980   52.4310    8.1110 C.3   151  LYS151      0.1693
    121  C        -35.7840   51.8250    8.6590 C.2   151  LYS151      0.2592
    122  O        -36.0340   50.6530    8.4810 O.2   151  LYS151     -0.2718
    123  CB       -33.3060   51.8670    8.9110 C.3   151  LYS151      0.0285
    124  CG       -31.9720   52.1110    8.1930 C.3   151  LYS151      0.0035
    125  CD       -31.0590   50.9030    8.2260 C.3   151  LYS151      0.0206
    126  CE       -29.7700   51.1330    7.4250 C.3   151  LYS151      0.1093
    127  NZ       -29.7460   50.4310    6.0920 N.3   151  LYS151     -0.1314
    128  N        -36.5800   52.6150    9.3460 N.am  152  ASN152     -0.1974
    129  CA       -37.7680   52.1180    9.9860 C.3   152  ASN152      0.1688
    130  C        -39.0360   52.5870    9.2810 C.2   152  ASN152      0.2292
    131  O        -40.1130   52.4760    9.8370 O.2   152  ASN152     -0.2864
    132  CB       -37.7650   52.5310   11.4710 C.3   152  ASN152      0.1181
    133  CG       -36.8090   51.6950   12.3190 C.2   152  ASN152      0.2629
    134  OD1      -36.4860   50.5750   11.9540 O.2   152  ASN152     -0.2716
    135  ND2      -36.3770   52.2280   13.4640 N.am  152  ASN152     -0.0877
    136  N        -40.9400   51.7410    5.7560 N.3   154  LEU154     -0.1245
    137  CA       -40.9040   50.7710    4.6740 C.3   154  LEU154      0.1561
    138  C        -41.7870   51.2420    3.5440 C.2   154  LEU154      0.2260
    139  O        -42.7790   51.9220    3.7750 O.2   154  LEU154     -0.2867
    140  CB       -41.3420   49.3910    5.1960 C.3   154  LEU154      0.0270
    141  CG       -40.6610   48.8550    6.4680 C.3   154  LEU154      0.0019
    142  CD1      -41.0160   47.3820    6.7510 C.3   154  LEU154      0.0001
    143  CD2      -39.1520   49.0350    6.3860 C.3   154  LEU154      0.0001
    144  N        -42.3750   51.0290   10.8870 N.3   164  ALA164     -0.1231
    145  CA       -41.9830   49.7120   11.3860 C.3   164  ALA164      0.1694
    146  C        -41.1230   49.8040   12.6480 C.2   164  ALA164      0.2592
    147  O        -40.5010   50.8150   12.9080 O.2   164  ALA164     -0.2718
    148  CB       -41.2340   48.9650   10.3060 C.3   164  ALA164      0.0304
    149  N        -41.1040   48.7090   13.3980 N.am  165  ASP165     -0.1974
    150  CA       -40.2430   48.4760   14.5330 C.3   165  ASP165      0.1709
    151  C        -40.6710   49.2100   15.7950 C.2   165  ASP165      0.2293
    152  O        -40.3260   50.3690   16.0100 O.2   165  ASP165     -0.2864
    153  CB       -38.7660   48.7160   14.2530 C.3   165  ASP165      0.1436
    154  CG       -37.8800   47.9510   15.2470 C.2   165  ASP165      0.3671
    155  OD1      -38.2520   47.9280   16.4590 O.co2 165  ASP165     -0.2456
    156  OD2      -36.9060   47.3120   14.8190 O.co2 165  ASP165     -0.2456
@<TRIPOS>BOND
     1   114   113    2
     2   113   112    1
     3     9     8    1
     4    89    90   ar
     5    89    87   ar
     6    93    94    2
     7    93    92    1
     8   101   102    1
     9   112   115    1
    10   112   111    1
    11   115   116    1
    12    90    88   ar
    13    87    85   ar
    14    92    95    1
    15    92    91    1
    16     8     7    1
    17    95    96    1
    18   108   107    2
    19   102   103    1
    20    83    82    2
    21    97    96   ar
    22    97    99   ar
    23     7     6    1
    24   116   118   ar
    25   116   117   ar
    26   104   103    2
    27    91    82   am
    28   103   105   am
    29    88    86   ar
    30    96    98   ar
    31    85    86   ar
    32    85    84    1
    33    82    81    1
    34    99   100   ar
    35   107   106    1
    36   105   106    1
    37    84    81    1
    38   138   139    2
    39   138   137    1
    40     6     5    1
    41    98   100   ar
    42    81    80    1
    43   106   109    1
    44   110   109    1
    45     5     2    1
    46    80    77   am
    47     2     3    1
    48     2     1    1
    49     4     3    2
    50   137   140    1
    51   137   136    1
    52   140   141    1
    53     3    10   am
    54    79    76    1
    55    77    76    1
    56    77    78    2
    57   127   126    1
    58    76    75    1
    59   143   141    1
    60   141   142    1
    61    10    11    1
    62    37    38    1
    63    38    41    1
    64    38    39    1
    65    11    14    1
    66    11    12    1
    67   126   125    1
    68    66    65    1
    69    75    70   am
    70    71    70    2
    71    33    32    2
    72   119   120    1
    73   120   121    1
    74   120   123    1
    75   124   125    1
    76   124   123    1
    77    70    69    1
    78   122   121    2
    79    35    34    1
    80    32    31    1
    81   121   128   am
    82    39    40    2
    83    12    13    2
    84    12    15   am
    85    65    64    1
    86    65    67    1
    87    61    64    1
    88    61    60    1
    89    61    62    1
    90    73    72    1
    91   130   131    2
    92   130   129    1
    93    34    31    1
    94    34    36    1
    95   128   129    1
    96    15    16    1
    97    62    63    2
    98    69    72    1
    99    69    68    1
   100    31    30    1
   101   129   132    1
   102    72    74    1
   103   148   145    1
   104    16    19    1
   105    16    17    1
   106   144   145    1
   107    19    20    1
   108   145   146    1
   109   132   133    1
   110    18    17    2
   111    17    26   am
   112   134   133    2
   113    42    43    1
   114   133   135   am
   115    20    21    1
   116    26    27    1
   117   146   147    2
   118   146   149   am
   119    43    46    1
   120    43    44    1
   121    21    22    1
   122    46    47    1
   123    27    28    1
   124   149   150    1
   125    48    47    1
   126    48    49    1
   127    44    45    2
   128    24    23    1
   129    22    23    2
   130   153   150    1
   131   153   154    1
   132    28    29    2
   133   150   151    1
   134    23    25    1
   135   156   154   ar
   136    49    50    1
   137   154   155   ar
   138    59    57   ar
   139   151   152    2
   140    57    58   ar
   141    57    56    1
   142    56    55    1
   143    55    52    1
   144    54    53    2
   145    53    52    1
   146    52    51    1
