@<TRIPOS>MOLECULE
tmp/4asyC00.pdb
 156 154 0 0 0
SMALL
GASTEIGER

@<TRIPOS>ATOM
      1  N         12.9650  -31.1580   30.0650 N.3    38  TYR38      -0.1241
      2  CA        11.8320  -31.9910   29.6400 C.3    38  TYR38       0.1605
      3  C         12.2530  -33.4730   29.5040 C.2    38  TYR38       0.2264
      4  O         11.6550  -34.3450   30.1600 O.2    38  TYR38      -0.2867
      5  CB        11.1640  -31.4350   28.3670 C.3    38  TYR38       0.0534
      6  CG        10.5160  -30.0830   28.5890 C.ar   38  TYR38      -0.0201
      7  CD1       11.2510  -28.9140   28.4240 C.ar   38  TYR38      -0.0009
      8  CD2        9.1730  -29.9680   28.9680 C.ar   38  TYR38      -0.0009
      9  CE1       10.6860  -27.6800   28.6440 C.ar   38  TYR38       0.0417
     10  CE2        8.5990  -28.7240   29.1800 C.ar   38  TYR38       0.0417
     11  CZ         9.3690  -27.5910   29.0190 C.ar   38  TYR38       0.1957
     12  OH         8.8570  -26.3430   29.2230 O.3    38  TYR38      -0.2866
     13  N         13.3830  -34.7530   32.8670 N.3    41  SER41      -0.1202
     14  CA        12.2030  -35.1060   33.6570 C.3    41  SER41       0.2020
     15  C         11.6140  -36.4840   33.2720 C.2    41  SER41       0.2619
     16  O         11.1860  -37.2440   34.1450 O.2    41  SER41      -0.2717
     17  CB        11.1330  -34.0190   33.5340 C.3    41  SER41       0.2103
     18  OG        11.4650  -32.9080   34.3590 O.3    41  SER41      -0.2182
     19  N         11.6130  -36.7860   31.9730 N.am   42  THR42      -0.1952
     20  CA        11.1920  -38.0770   31.4430 C.3    42  THR42       0.1897
     21  C         12.0260  -39.2350   31.9830 C.2    42  THR42       0.2313
     22  O         11.4690  -40.2400   32.4350 O.2    42  THR42      -0.2863
     23  CB        11.2320  -38.0830   29.8950 C.3    42  THR42       0.1794
     24  OG1       10.4690  -36.9850   29.3960 O.3    42  THR42      -0.2208
     25  CG2       10.6440  -39.3730   29.3330 C.3    42  THR42       0.0378
     26  N         11.1430  -39.6510   35.6630 N.3    45  LEU45      -0.1245
     27  CA         9.8520  -40.3220   35.8240 C.3    45  LEU45       0.1561
     28  C          9.9650  -41.8330   35.5370 C.2    45  LEU45       0.2260
     29  O          9.1860  -42.6020   36.0550 O.2    45  LEU45      -0.2867
     30  CB         8.7740  -39.6960   34.9390 C.3    45  LEU45       0.0270
     31  CG         7.3260  -40.0450   35.3410 C.3    45  LEU45       0.0019
     32  CD1        6.9360  -39.3030   36.6220 C.3    45  LEU45       0.0001
     33  CD2        6.3200  -39.7410   34.2300 C.3    45  LEU45       0.0001
     34  N          7.6510  -34.7150   26.1760 N.3   113  TYR113     -0.1227
     35  CA         6.5320  -35.6220   26.3060 C.3   113  TYR113      0.1736
     36  C          5.5610  -35.0700   27.3280 C.2   113  TYR113      0.2595
     37  O          5.9830  -34.5760   28.3730 O.2   113  TYR113     -0.2718
     38  CB         7.0300  -36.9970   26.7780 C.3   113  TYR113      0.0548
     39  CG         7.9490  -37.6700   25.7850 C.ar  113  TYR113     -0.0200
     40  CD1        9.3280  -37.4530   25.8150 C.ar  113  TYR113     -0.0009
     41  CD2        7.4390  -38.5210   24.8030 C.ar  113  TYR113     -0.0009
     42  CE1       10.1690  -38.0600   24.8950 C.ar  113  TYR113      0.0417
     43  CE2        8.2780  -39.1390   23.8830 C.ar  113  TYR113      0.0417
     44  CZ         9.6370  -38.9020   23.9360 C.ar  113  TYR113      0.1957
     45  OH        10.4700  -39.4980   23.0240 O.3   113  TYR113     -0.2866
     46  N          4.2650  -35.2090   27.0640 N.am  114  TYR114     -0.1962
     47  CA         3.2500  -34.8940   28.0800 C.3   114  TYR114      0.1771
     48  C          2.0710  -35.8670   27.9980 C.2   114  TYR114      0.2620
     49  O          1.6050  -36.2120   26.8920 O.2   114  TYR114     -0.2715
     50  CB         2.7630  -33.4340   27.9230 C.3   114  TYR114      0.0574
     51  CG         1.4210  -33.1390   28.5720 C.ar  114  TYR114     -0.0198
     52  CD1        1.3360  -32.8530   29.9170 C.ar  114  TYR114     -0.0009
     53  CD2        0.2360  -33.1540   27.8430 C.ar  114  TYR114     -0.0009
     54  CE1        0.1220  -32.6050   30.5320 C.ar  114  TYR114      0.0417
     55  CE2       -0.9950  -32.9040   28.4570 C.ar  114  TYR114      0.0417
     56  CZ        -1.0370  -32.6150   29.8080 C.ar  114  TYR114      0.1957
     57  OH        -2.2300  -32.3560   30.4710 O.3   114  TYR114     -0.2866
     58  N          1.5880  -36.3050   29.1660 N.am  115  GLY115     -0.1940
     59  CA         0.3290  -37.0350   29.2300 C.3   115  GLY115      0.2014
     60  C          0.0920  -37.7810   30.5190 C.2   115  GLY115      0.2638
     61  O          0.9290  -37.7980   31.3910 O.2   115  GLY115     -0.2714
     62  N         -1.0720  -38.3980   30.6170 N.am  116  HIS116     -0.1973
     63  CA        -1.4940  -39.1210   31.8110 C.3   116  HIS116      0.1656
     64  C         -0.9770  -40.5420   31.8720 C.2   116  HIS116      0.2291
     65  O         -0.9250  -41.2460   30.8590 O.2   116  HIS116     -0.2864
     66  CB        -3.0030  -39.1290   31.8740 C.3   116  HIS116      0.0771
     67  CG        -3.5780  -40.1040   32.8750 C.ar  116  HIS116      0.0820
     68  ND1       -3.6080  -39.8520   34.1880 N.ar  116  HIS116     -0.2267
     69  CD2       -4.1870  -41.3480   32.6970 C.ar  116  HIS116      0.1154
     70  CE1       -4.1960  -40.8810   34.8280 C.ar  116  HIS116      0.1986
     71  NE2       -4.5520  -41.7930   33.9110 N.ar  116  HIS116     -0.2212
     72  N          2.0340  -41.5240   32.5820 N.3   118  PHE118     -0.1227
     73  CA         3.3000  -41.5860   31.8700 C.3   118  PHE118      0.1736
     74  C          4.2720  -42.4340   32.6850 C.2   118  PHE118      0.2595
     75  O          5.1490  -43.1140   32.1310 O.2   118  PHE118     -0.2718
     76  CB         3.8170  -40.1650   31.6060 C.3   118  PHE118      0.0547
     77  CG         4.9410  -40.0780   30.6080 C.ar  118  PHE118     -0.0202
     78  CD1        5.0330  -40.9500   29.5290 C.ar  118  PHE118     -0.0042
     79  CD2        5.8950  -39.0780   30.7280 C.ar  118  PHE118     -0.0042
     80  CE1        6.0630  -40.8410   28.6110 C.ar  118  PHE118     -0.0003
     81  CE2        6.9370  -38.9720   29.8180 C.ar  118  PHE118     -0.0003
     82  CZ         7.0220  -39.8650   28.7580 C.ar  118  PHE118     -0.0000
     83  N          4.0620  -42.4540   33.9970 N.am  119  HIS119     -0.1975
     84  CA         4.8420  -43.3080   34.8800 C.3   119  HIS119      0.1656
     85  C          4.6930  -44.7550   34.5310 C.2   119  HIS119      0.2291
     86  O          5.6700  -45.5170   34.5720 O.2   119  HIS119     -0.2864
     87  CB         4.4350  -43.0930   36.3370 C.3   119  HIS119      0.0771
     88  CG         5.3540  -43.7730   37.3260 C.ar  119  HIS119      0.0820
     89  ND1        5.1630  -45.0450   37.7400 N.ar  119  HIS119     -0.2267
     90  CD2        6.5060  -43.3140   37.9790 C.ar  119  HIS119      0.1154
     91  CE1        6.1360  -45.3820   38.6140 C.ar  119  HIS119      0.1986
     92  NE2        6.9550  -44.3200   38.7620 N.ar  119  HIS119     -0.2212
     93  N          3.2510  -27.0360   36.9130 N.3   249  LYS249     -0.1231
     94  CA         4.2420  -27.0430   35.8370 C.3   249  LYS249      0.1693
     95  C          4.4260  -28.4190   35.2160 C.2   249  LYS249      0.2592
     96  O          4.2490  -29.4470   35.8740 O.2   249  LYS249     -0.2718
     97  CB         5.5880  -26.4850   36.3200 C.3   249  LYS249      0.0285
     98  CG         5.5650  -24.9850   36.6260 C.3   249  LYS249      0.0035
     99  CD         6.9510  -24.4620   36.9940 C.3   249  LYS249      0.0206
    100  CE         6.9790  -22.9480   37.2770 C.3   249  LYS249      0.1093
    101  NZ         6.3150  -22.0820   36.2400 N.3   249  LYS249     -0.1314
    102  N          4.7710  -28.4140   33.9310 N.am  250  VAL250     -0.1966
    103  CA         5.2080  -29.6000   33.2060 C.3   250  VAL250      0.1727
    104  C          6.7600  -29.7160   33.2520 C.2   250  VAL250      0.2616
    105  O          7.4880  -28.7410   33.0230 O.2   250  VAL250     -0.2715
    106  CB         4.6840  -29.5550   31.7610 C.3   250  VAL250      0.0290
    107  CG1        5.0130  -30.8400   31.0190 C.3   250  VAL250      0.0023
    108  CG2        3.1760  -29.3500   31.7670 C.3   250  VAL250      0.0023
    109  N          7.2320  -30.9070   33.6170 N.am  251  ALA251     -0.1963
    110  CA         8.6400  -31.2890   33.6480 C.3   251  ALA251      0.1728
    111  C          9.5320  -30.3870   34.4850 C.2   251  ALA251      0.2616
    112  O         10.5990  -29.9900   34.0510 O.2   251  ALA251     -0.2715
    113  CB         9.1970  -31.4400   32.2410 C.3   251  ALA251      0.0334
    114  N          9.0830  -30.0940   35.6960 N.am  252  CYS252     -0.1968
    115  CA         9.8730  -29.3940   36.6900 C.3   252  CYS252      0.1712
    116  C         10.7030  -30.4180   37.4340 C.2   252  CYS252      0.2296
    117  O         10.1610  -31.1790   38.2170 O.2   252  CYS252     -0.2864
    118  CB         8.9260  -28.6770   37.6470 C.3   252  CYS252      0.0983
    119  SG         9.6760  -27.9290   39.1000 S.3   252  CYS252     -0.0798
    120  N         10.3640  -30.7550   41.2790 N.3   255  GLU255     -0.1231
    121  CA         9.0980  -31.3510   41.7160 C.3   255  GLU255      0.1699
    122  C          9.1310  -32.8590   41.5500 C.2   255  GLU255      0.2592
    123  O          8.7830  -33.5960   42.4710 O.2   255  GLU255     -0.2718
    124  CB         7.9040  -30.7800   40.9220 C.3   255  GLU255      0.0402
    125  CG         6.5760  -31.5130   41.1730 C.3   255  GLU255      0.1161
    126  CD         5.3610  -30.8270   40.5500 C.2   255  GLU255      0.3649
    127  OE1        5.5150  -30.0550   39.5820 O.co2 255  GLU255     -0.2457
    128  OE2        4.2350  -31.0830   41.0110 O.co2 255  GLU255     -0.2457
    129  N          9.5790  -33.3290   40.3920 N.am  256  ILE256     -0.1980
    130  CA         9.6290  -34.7660   40.1500 C.3   256  ILE256      0.1595
    131  C         10.5270  -35.4550   41.1830 C.2   256  ILE256      0.2287
    132  O         10.1300  -36.4860   41.7640 O.2   256  ILE256     -0.2864
    133  CB        10.0430  -35.0980   38.7030 C.3   256  ILE256      0.0276
    134  CG1        8.9800  -34.5510   37.7180 C.3   256  ILE256      0.0022
    135  CG2       10.1950  -36.6100   38.5120 C.3   256  ILE256      0.0022
    136  CD1        9.4790  -34.3730   36.3060 C.3   256  ILE256      0.0001
    137  N          8.6830  -35.6170   44.5060 N.3   259  ARG259     -0.1231
    138  CA         7.5630  -36.5560   44.4990 C.3   259  ARG259      0.1694
    139  C          8.0240  -38.0050   44.4100 C.2   259  ARG259      0.2591
    140  O          7.2540  -38.9080   44.7190 O.2   259  ARG259     -0.2718
    141  CB         6.6100  -36.2560   43.3380 C.3   259  ARG259      0.0321
    142  CG         5.9600  -34.8880   43.4260 C.3   259  ARG259      0.0489
    143  CD         4.6620  -34.7960   42.6300 C.3   259  ARG259      0.2205
    144  NE         4.2010  -33.4130   42.6560 N.pl3 259  ARG259     -0.0865
    145  CZ         3.5390  -32.8260   43.6550 C.cat 259  ARG259      0.5346
    146  NH1        3.1780  -33.5020   44.7340 N.pl3 259  ARG259      0.1354
    147  NH2        3.2180  -31.5390   43.5570 N.pl3 259  ARG259      0.1354
    148  N          9.2620  -38.2240   43.9590 N.am  260  GLN260     -0.1979
    149  CA         9.8580  -39.5600   43.9550 C.3   260  GLN260      0.1601
    150  C         10.5220  -39.9010   45.3050 C.2   260  GLN260      0.2287
    151  O         11.0450  -40.9960   45.4720 O.2   260  GLN260     -0.2864
    152  CB        10.8960  -39.6910   42.8210 C.3   260  GLN260      0.0394
    153  CG        10.3480  -39.5980   41.4020 C.3   260  GLN260      0.0908
    154  CD         9.7360  -40.8920   40.8920 C.2   260  GLN260      0.2608
    155  OE1        9.0430  -41.6080   41.6270 O.2   260  GLN260     -0.2717
    156  NE2        9.9890  -41.2000   39.6260 N.am  260  GLN260     -0.0878
@<TRIPOS>BOND
     1    45    44    1
     2    43    44   ar
     3    43    41   ar
     4    44    42   ar
     5    41    39   ar
     6    42    40   ar
     7    39    40   ar
     8    39    38    1
     9    34    35    1
    10    35    38    1
    11    35    36    1
    12    49    48    2
    13    46    36   am
    14    46    47    1
    15    36    37    2
    16    53    55   ar
    17    53    51   ar
    18    50    47    1
    19    50    51    1
    20    48    47    1
    21    48    58   am
    22     5     6    1
    23     5     2    1
    24     7     6   ar
    25     7     9   ar
    26    55    56   ar
    27    51    52   ar
    28     6     8   ar
    29    80    82   ar
    30    80    78   ar
    31     9    11   ar
    32    82    81   ar
    33     8    10   ar
    34    11    10   ar
    35    11    12    1
    36    58    59    1
    37    59    60    1
    38    25    23    1
    39    24    23    1
    40     3     2    1
    41     3     4    2
    42    78    77   ar
    43     2     1    1
    44    56    57    1
    45    56    54   ar
    46    81    79   ar
    47    23    20    1
    48    52    54   ar
    49    60    62   am
    50    60    61    2
    51    77    79   ar
    52    77    76    1
    53    62    63    1
    54    65    64    2
    55   107   106    1
    56    20    19    1
    57    20    21    1
    58    76    73    1
    59   106   108    1
    60   106   103    1
    61    63    64    1
    62    63    66    1
    63    73    72    1
    64    73    74    1
    65    66    67    1
    66    19    15   am
    67    21    22    2
    68    75    74    2
    69   113   110    1
    70    74    83   am
    71    69    67   ar
    72    69    71   ar
    73    13    14    1
    74    67    68   ar
    75   105   104    2
    76   103   104    1
    77   103   102    1
    78   104   109   am
    79    15    14    1
    80    15    16    2
    81    17    14    1
    82    17    18    1
    83   109   110    1
    84   110   111    1
    85    71    70   ar
    86   102    95   am
    87    83    84    1
    88   112   111    2
    89    68    70   ar
    90    33    31    1
    91   111   114   am
    92    85    86    2
    93    85    84    1
    94    84    87    1
    95    30    31    1
    96    30    27    1
    97    95    94    1
    98    95    96    2
    99    31    32    1
   100    28    27    1
   101    28    29    2
   102    26    27    1
   103   114   115    1
   104    94    97    1
   105    94    93    1
   106   101   100    1
   107   136   134    1
   108    97    98    1
   109    87    88    1
   110    98    99    1
   111   115   116    1
   112   115   118    1
   113    99   100    1
   114    88    89   ar
   115    88    90   ar
   116   116   117    2
   117   118   119    1
   118   134   133    1
   119    89    91   ar
   120    90    92   ar
   121   135   133    1
   122    91    92   ar
   123   133   130    1
   124   127   126   ar
   125   156   154   am
   126   130   129    1
   127   130   131    1
   128   129   122   am
   129   126   128   ar
   130   126   125    1
   131   154   153    1
   132   154   155    2
   133   124   125    1
   134   124   121    1
   135   131   132    2
   136   120   121    1
   137   153   152    1
   138   122   121    1
   139   122   123    2
   140   143   144    1
   141   143   142    1
   142   144   145    2
   143   152   149    1
   144   141   142    1
   145   141   138    1
   146   147   145    1
   147   145   146    1
   148   149   148    1
   149   149   150    1
   150   148   139   am
   151   139   138    1
   152   139   140    2
   153   138   137    1
   154   150   151    2
