@<TRIPOS>MOLECULE
tmp/4at1B00.pdb
 127 118 0 0 0
SMALL
GASTEIGER

@<TRIPOS>ATOM
      1  N         13.5570   82.3830   35.8290 N.3     1  GLY1       -0.1210
      2  CA        14.3630   82.3550   34.6200 C.3     1  GLY1        0.1956
      3  C         14.4800   83.7970   34.1500 C.2     1  GLY1        0.2612
      4  O         13.6250   84.5960   34.5270 O.2     1  GLY1       -0.2717
      5  N         15.4990   84.1320   33.3520 N.am    2  VAL2       -0.1965
      6  CA        15.7990   85.5250   33.0080 C.3     2  VAL2        0.1727
      7  C         15.2940   86.0940   31.6460 C.2     2  VAL2        0.2616
      8  O         14.3950   85.5280   31.0080 O.2     2  VAL2       -0.2715
      9  CB        17.3810   85.7310   33.1670 C.3     2  VAL2        0.0290
     10  CG1       17.5710   86.4210   34.5060 C.3     2  VAL2        0.0023
     11  CG2       18.2320   84.4560   33.1910 C.3     2  VAL2        0.0023
     12  N         15.8920   87.2230   31.2010 N.am    3  GLU3       -0.1963
     13  CA        15.5430   87.9880   30.0040 C.3     3  GLU3        0.1733
     14  C         16.7480   88.2510   29.0550 C.2     3  GLU3        0.2616
     15  O         17.8790   87.8170   29.3180 O.2     3  GLU3       -0.2715
     16  CB        14.8760   89.3240   30.4740 C.3     3  GLU3        0.0429
     17  CG        15.3900   90.0580   31.7480 C.3     3  GLU3        0.1163
     18  CD        16.8620   90.5130   31.7910 C.2     3  GLU3        0.3649
     19  OE1       17.5700   90.1290   32.7310 O.co2   3  GLU3       -0.2457
     20  OE2       17.3060   91.2580   30.9050 O.co2   3  GLU3       -0.2457
     21  N         16.4710   89.0230   27.9870 N.am    4  ALA4       -0.1963
     22  CA        17.3150   89.3790   26.8290 C.3     4  ALA4        0.1728
     23  C         18.8290   89.5250   26.6220 C.2     4  ALA4        0.2616
     24  O         19.6050   90.1240   27.3700 O.2     4  ALA4       -0.2715
     25  CB        16.6920   90.6080   26.1930 C.3     4  ALA4        0.0334
     26  N         19.1330   88.9560   25.4570 N.am    5  ILE5       -0.1977
     27  CA        20.4190   88.9290   24.7780 C.3     5  ILE5        0.1596
     28  C         19.9840   89.1160   23.3250 C.2     5  ILE5        0.2287
     29  O         18.8410   88.7550   22.9990 O.2     5  ILE5       -0.2864
     30  CB        21.1980   87.5450   24.8500 C.3     5  ILE5        0.0276
     31  CG1       20.3540   86.3630   24.3470 C.3     5  ILE5        0.0022
     32  CG2       21.6190   87.2980   26.2900 C.3     5  ILE5        0.0022
     33  CD1       21.1070   85.0720   24.0290 C.3     5  ILE5        0.0001
     34  N         19.3240   79.8370   23.8270 N.3    10  VAL10      -0.1245
     35  CA        18.9330   79.7100   25.2060 C.3    10  VAL10       0.1561
     36  C         18.4120   78.2960   25.3440 C.2    10  VAL10       0.2260
     37  O         17.4940   77.8890   24.6410 O.2    10  VAL10      -0.2867
     38  CB        17.8140   80.6770   25.6390 C.3    10  VAL10       0.0252
     39  CG1       17.5080   80.4050   27.1180 C.3    10  VAL10       0.0019
     40  CG2       18.2450   82.1340   25.5480 C.3    10  VAL10       0.0019
     41  N         16.7720   76.0810   27.8980 N.3    12  ASP12      -0.1239
     42  CA        16.0090   76.2030   29.1260 C.3    12  ASP12       0.1674
     43  C         15.4950   74.8020   29.4660 C.2    12  ASP12       0.2266
     44  O         15.3450   73.9180   28.6190 O.2    12  ASP12      -0.2867
     45  CB        14.8590   77.2380   28.8930 C.3    12  ASP12       0.1410
     46  CG        14.2460   77.9620   30.1040 C.2    12  ASP12       0.3668
     47  OD1       13.5600   78.9750   29.9150 O.co2  12  ASP12      -0.2456
     48  OD2       14.4580   77.5330   31.2390 O.co2  12  ASP12      -0.2456
     49  N         15.3110   74.2500   37.9370 N.3    49  LYS49      -0.1245
     50  CA        15.8940   74.0400   36.6130 C.3    49  LYS49       0.1561
     51  C         17.2430   74.7400   36.4660 C.2    49  LYS49       0.2260
     52  O         17.6560   75.5320   37.3230 O.2    49  LYS49      -0.2867
     53  CB        14.9580   74.5730   35.4880 C.3    49  LYS49       0.0271
     54  CG        14.6440   76.0620   35.6090 C.3    49  LYS49       0.0035
     55  CD        13.9000   76.6770   34.4490 C.3    49  LYS49       0.0206
     56  CE        13.7100   78.1510   34.8280 C.3    49  LYS49       0.1093
     57  NZ        13.3190   79.0080   33.7140 N.3    49  LYS49      -0.1314
     58  N         19.5970   76.7980   33.3520 N.3    51  LEU51      -0.1245
     59  CA        19.3610   77.4400   32.0770 C.3    51  LEU51       0.1561
     60  C         20.6990   77.9860   31.6370 C.2    51  LEU51       0.2260
     61  O         21.5080   78.4150   32.4560 O.2    51  LEU51      -0.2867
     62  CB        18.2940   78.5310   32.2900 C.3    51  LEU51       0.0270
     63  CG        18.0060   79.6400   31.2960 C.3    51  LEU51       0.0019
     64  CD1       16.6980   80.3130   31.6440 C.3    51  LEU51       0.0001
     65  CD2       19.0410   80.7280   31.4070 C.3    51  LEU51       0.0001
     66  N         22.5090   80.6260   28.6240 N.3    53  LYS53      -0.1245
     67  CA        22.3780   81.6140   27.5460 C.3    53  LYS53       0.1561
     68  C         23.7510   81.9170   26.9140 C.2    53  LYS53       0.2260
     69  O         24.6440   82.4710   27.5770 O.2    53  LYS53      -0.2867
     70  CB        21.7680   82.9270   28.0840 C.3    53  LYS53       0.0271
     71  CG        20.2980   82.7880   28.4530 C.3    53  LYS53       0.0035
     72  CD        19.6360   84.0510   28.9960 C.3    53  LYS53       0.0206
     73  CE        18.3030   83.5990   29.5550 C.3    53  LYS53       0.1093
     74  NZ        17.3970   84.7030   29.7360 N.3    53  LYS53      -0.1314
     75  N         16.0710   77.2790   22.3320 N.3    77  ASN77      -0.1240
     76  CA        15.4810   78.4440   21.7010 C.3    77  ASN77       0.1653
     77  C         16.5490   79.1870   20.9640 C.2    77  ASN77       0.2266
     78  O         17.6480   79.3790   21.4860 O.2    77  ASN77      -0.2867
     79  CB        14.8650   79.3740   22.7270 C.3    77  ASN77       0.1155
     80  CG        13.7680   78.6830   23.5090 C.2    77  ASN77       0.2627
     81  OD1       12.7520   78.2530   22.9770 O.2    77  ASN77      -0.2716
     82  ND2       13.9330   78.4660   24.7990 N.am   77  ASN77      -0.0877
     83  N         17.5600   82.6370   19.3120 N.3    79  ILE79      -0.1245
     84  CA        17.2160   84.0290   19.4490 C.3    79  ILE79       0.1561
     85  C         17.9290   84.8490   18.3960 C.2    79  ILE79       0.2260
     86  O         19.1320   84.7120   18.1340 O.2    79  ILE79      -0.2867
     87  CB        17.5880   84.4920   20.9000 C.3    79  ILE79       0.0252
     88  CG1       16.5780   83.9500   21.8500 C.3    79  ILE79       0.0019
     89  CG2       17.5800   85.9990   21.0770 C.3    79  ILE79       0.0019
     90  CD1       17.0630   82.5940   22.3360 C.3    79  ILE79       0.0001
     91  N         16.4550   89.8400   19.8140 N.3    82  TYR82      -0.1227
     92  CA        15.7320   89.6660   21.0940 C.3    82  TYR82       0.1736
     93  C         14.5390   88.7100   21.2000 C.2    82  TYR82       0.2595
     94  O         14.0310   88.4490   22.3070 O.2    82  TYR82      -0.2718
     95  CB        15.2160   91.0030   21.6450 C.3    82  TYR82       0.0548
     96  CG        16.2980   91.9370   22.1520 C.ar   82  TYR82      -0.0200
     97  CD1       17.4950   91.4490   22.6350 C.ar   82  TYR82      -0.0009
     98  CD2       16.0320   93.2870   22.2030 C.ar   82  TYR82      -0.0009
     99  CE1       18.4120   92.2990   23.2150 C.ar   82  TYR82       0.0417
    100  CE2       16.9350   94.1460   22.7970 C.ar   82  TYR82       0.0417
    101  CZ        18.1150   93.6430   23.3160 C.ar   82  TYR82       0.1957
    102  OH        18.9940   94.4910   23.9750 O.3    82  TYR82      -0.2866
    103  N         14.0770   88.1760   20.0640 N.am   83  GLU83      -0.1965
    104  CA        12.9530   87.2620   20.0630 C.3    83  GLU83       0.1733
    105  C         13.3300   85.8650   19.5740 C.2    83  GLU83       0.2616
    106  O         14.2820   85.6430   18.8150 O.2    83  GLU83      -0.2715
    107  CB        11.8050   87.8700   19.2080 C.3    83  GLU83       0.0429
    108  CG        11.1490   89.1470   19.8010 C.3    83  GLU83       0.1163
    109  CD        10.7170   89.0440   21.2710 C.2    83  GLU83       0.3649
    110  OE1       11.3180   89.7250   22.1140 O.co2  83  GLU83      -0.2457
    111  OE2        9.7930   88.2760   21.5700 O.co2  83  GLU83      -0.2457
    112  N         12.5640   84.9050   20.1120 N.am   84  VAL84      -0.1977
    113  CA        12.7290   83.4710   19.8800 C.3    84  VAL84       0.1596
    114  C         12.2400   83.1590   18.4590 C.2    84  VAL84       0.2287
    115  O         11.0420   82.9940   18.2170 O.2    84  VAL84      -0.2864
    116  CB        11.9180   82.6900   20.9900 C.3    84  VAL84       0.0276
    117  CG1       11.9480   81.1960   20.7560 C.3    84  VAL84       0.0022
    118  CG2       12.5560   82.9060   22.3450 C.3    84  VAL84       0.0022
    119  N         12.5900   77.0020   18.0590 N.3    87  LYS87      -0.1245
    120  CA        12.5650   76.2010   19.2640 C.3    87  LYS87       0.1561
    121  C         12.8390   74.7580   18.8610 C.2    87  LYS87       0.2260
    122  O         12.1710   74.2640   17.9460 O.2    87  LYS87      -0.2867
    123  CB        11.1950   76.2270   19.9480 C.3    87  LYS87       0.0271
    124  CG        10.7980   77.4520   20.7460 C.3    87  LYS87       0.0035
    125  CD         9.3830   77.2420   21.2760 C.3    87  LYS87       0.0206
    126  CE         9.1100   78.0070   22.5590 C.3    87  LYS87       0.1093
    127  NZ         9.9110   77.4810   23.6580 N.3    87  LYS87      -0.1314
@<TRIPOS>BOND
     1   122   121    2
     2   119   120    1
     3    86    85    2
     4   115   114    2
     5    85    84    1
     6   114   113    1
     7   106   105    2
     8   121   120    1
     9   107   108    1
    10   107   104    1
    11   120   123    1
    12    83    84    1
    13    84    87    1
    14   105   104    1
    15   105   112   am
    16   108   109    1
    17    91    92    1
    18   113   112    1
    19   113   116    1
    20   123   124    1
    21   104   103    1
    22   103    93   am
    23   124   125    1
    24   117   116    1
    25    87    89    1
    26    87    88    1
    27    77    78    2
    28    77    76    1
    29   116   118    1
    30    92    93    1
    31    92    95    1
    32    93    94    2
    33   109   111   ar
    34   109   110   ar
    35   125   126    1
    36    95    96    1
    37    76    75    1
    38    76    79    1
    39    88    90    1
    40    96    98   ar
    41    96    97   ar
    42    98   100   ar
    43   126   127    1
    44    97    99   ar
    45    79    80    1
    46   100   101   ar
    47    81    80    2
    48    29    28    2
    49    99   101   ar
    50   101   102    1
    51    28    27    1
    52    80    82   am
    53    34    35    1
    54    33    31    1
    55    31    30    1
    56    37    36    2
    57    27    30    1
    58    27    26    1
    59    30    32    1
    60    35    36    1
    61    35    38    1
    62    26    23   am
    63    40    38    1
    64    38    39    1
    65    25    22    1
    66    23    22    1
    67    23    24    2
    68    22    21    1
    69    68    67    1
    70    68    69    2
    71    67    70    1
    72    67    66    1
    73    41    42    1
    74    21    14   am
    75    70    71    1
    76    71    72    1
    77    44    43    2
    78    45    42    1
    79    45    46    1
    80    72    73    1
    81    14    15    2
    82    14    13    1
    83    42    43    1
    84    73    74    1
    85    47    46   ar
    86    13    16    1
    87    13    12    1
    88    46    48   ar
    89    16    17    1
    90    20    18   ar
    91     8     7    2
    92    12     7   am
    93    63    65    1
    94    63    64    1
    95    63    62    1
    96    60    59    1
    97    60    61    2
    98     7     6    1
    99    17    18    1
   100    18    19   ar
   101    59    62    1
   102    59    58    1
   103     6     9    1
   104     6     5    1
   105     9    11    1
   106     9    10    1
   107     5     3   am
   108    57    56    1
   109     3     4    2
   110     3     2    1
   111    55    56    1
   112    55    54    1
   113     2     1    1
   114    53    54    1
   115    53    50    1
   116    51    50    1
   117    51    52    2
   118    50    49    1
