@<TRIPOS>MOLECULE
tmp/4at2A00.pdb
 149 143 0 0 0
SMALL
GASTEIGER

@<TRIPOS>ATOM
      1  N         31.3660   21.5460   45.2550 N.3    58  GLY58      -0.1210
      2  CA        31.2990   20.4580   46.2530 C.3    58  GLY58       0.1956
      3  C         31.7010   20.9070   47.6500 C.2    58  GLY58       0.2612
      4  O         31.2440   20.3540   48.6650 O.2    58  GLY58      -0.2717
      5  N         32.5360   21.9340   47.7000 N.am   59  GLY59      -0.1942
      6  CA        32.9210   22.5530   48.9570 C.3    59  GLY59       0.2014
      7  C         34.2750   22.1390   49.4860 C.2    59  GLY59       0.2638
      8  O         34.6640   22.5820   50.5680 O.2    59  GLY59      -0.2714
      9  N         35.0110   21.3130   48.7360 N.am   60  PHE60      -0.1973
     10  CA        36.3750   20.9580   49.1510 C.3    60  PHE60       0.1639
     11  C         37.2250   22.2150   49.2300 C.2    60  PHE60       0.2290
     12  O         37.1700   23.0770   48.3450 O.2    60  PHE60      -0.2864
     13  CB        37.0500   20.0330   48.1390 C.3    60  PHE60       0.0560
     14  CG        36.6130   18.6070   48.2150 C.ar   60  PHE60      -0.0200
     15  CD1       37.2130   17.7260   49.1040 C.ar   60  PHE60      -0.0042
     16  CD2       35.6500   18.1270   47.3390 C.ar   60  PHE60      -0.0042
     17  CE1       36.8280   16.3890   49.1490 C.ar   60  PHE60      -0.0003
     18  CE2       35.2600   16.7920   47.3760 C.ar   60  PHE60      -0.0003
     19  CZ        35.8500   15.9260   48.2860 C.ar   60  PHE60      -0.0000
     20  N         33.6750   11.0760   44.9440 N.3   130  TRP130     -0.1227
     21  CA        33.9250   12.4340   44.4860 C.3   130  TRP130      0.1737
     22  C         33.7280   13.4460   45.5830 C.2   130  TRP130      0.2595
     23  O         34.3260   14.5230   45.5560 O.2   130  TRP130     -0.2718
     24  CB        32.9970   12.7540   43.3230 C.3   130  TRP130      0.0564
     25  CG        33.4200   12.1840   41.9940 C.ar  130  TRP130      0.0003
     26  CD1       32.7680   11.2070   41.2330 C.ar  130  TRP130      0.0946
     27  CD2       34.5840   12.5750   41.1870 C.ar  130  TRP130      0.0152
     28  NE1       33.4420   10.9780   40.0580 N.ar  130  TRP130     -0.2442
     29  CE2       34.5330   11.7650   39.9670 C.ar  130  TRP130      0.0810
     30  CE3       35.6230   13.4950   41.3440 C.ar  130  TRP130      0.0012
     31  CZ2       35.4880   11.8880   38.9550 C.ar  130  TRP130      0.0191
     32  CZ3       36.5840   13.6020   40.3240 C.ar  130  TRP130      0.0001
     33  CH2       36.5100   12.8210   39.1530 C.ar  130  TRP130      0.0015
     34  N         32.8790   13.1130   46.5520 N.am  131  GLU131     -0.1979
     35  CA        32.6910   13.9370   47.7500 C.3   131  GLU131      0.1602
     36  C         32.1290   13.0980   48.9040 C.2   131  GLU131      0.2287
     37  O         31.6910   11.9650   48.6930 O.2   131  GLU131     -0.2864
     38  CB        31.7970   15.1540   47.4630 C.3   131  GLU131      0.0415
     39  CG        30.5490   14.8870   46.6530 C.3   131  GLU131      0.1163
     40  CD        29.8440   16.1740   46.2360 C.2   131  GLU131      0.3649
     41  OE1       29.3390   16.8930   47.1270 O.co2 131  GLU131     -0.2457
     42  OE2       29.7920   16.4710   45.0210 O.co2 131  GLU131     -0.2457
     43  N         25.7020   19.4940   44.3960 N.3   169  THR169     -0.1218
     44  CA        26.7290   20.0570   43.5140 C.3   169  THR169      0.1862
     45  C         26.1060   20.4760   42.1760 C.2   169  THR169      0.2287
     46  O         25.3850   19.6980   41.5420 O.2   169  THR169     -0.2866
     47  CB        27.8970   19.0590   43.3090 C.3   169  THR169      0.1770
     48  OG1       28.4540   18.7070   44.5820 O.3   169  THR169     -0.2211
     49  CG2       29.0000   19.6600   42.4470 C.3   169  THR169      0.0375
     50  N         41.6790   21.2690   34.9850 N.3   284  GLU284     -0.1245
     51  CA        41.0340   20.2380   35.7840 C.3   284  GLU284      0.1567
     52  C         40.2590   19.3370   34.8220 C.2   284  GLU284      0.2260
     53  O         39.7000   19.8280   33.8300 O.2   284  GLU284     -0.2867
     54  CB        40.0770   20.8750   36.7960 C.3   284  GLU284      0.0388
     55  CG        39.3240   19.8710   37.6740 C.3   284  GLU284      0.1160
     56  CD        38.0340   19.2980   37.0740 C.2   284  GLU284      0.3649
     57  OE1       37.5010   19.8140   36.0650 O.co2 284  GLU284     -0.2457
     58  OE2       37.5160   18.3020   37.6310 O.co2 284  GLU284     -0.2457
     59  N         37.4260   16.0720   35.0420 N.3   286  ALA286     -0.1245
     60  CA        36.5990   15.1190   35.7760 C.3   286  ALA286      0.1562
     61  C         36.3270   13.9150   34.8820 C.2   286  ALA286      0.2260
     62  O         36.5100   13.9880   33.6760 O.2   286  ALA286     -0.2867
     63  CB        35.2970   15.7730   36.2030 C.3   286  ALA286      0.0290
     64  N         33.3010   11.0570   34.5130 N.3   288  VAL288     -0.1245
     65  CA        31.9390   10.9230   35.0460 C.3   288  VAL288      0.1561
     66  C         31.4760    9.4750   35.2240 C.2   288  VAL288      0.2260
     67  O         30.5100    9.0110   34.6220 O.2   288  VAL288     -0.2867
     68  CB        30.9000   11.7950   34.2990 C.3   288  VAL288      0.0252
     69  CG1       31.1210   13.2730   34.6250 C.3   288  VAL288      0.0019
     70  CG2       30.9320   11.5320   32.7990 C.3   288  VAL288      0.0019
     71  N         42.8820    9.4290   42.8490 N.3   313  TYR313     -0.1241
     72  CA        41.8560   10.4510   42.6940 C.3   313  TYR313      0.1605
     73  C         41.2230   10.3660   41.3020 C.2   313  TYR313      0.2264
     74  O         41.9240   10.2930   40.2920 O.2   313  TYR313     -0.2867
     75  CB        42.5290   11.8130   42.9100 C.3   313  TYR313      0.0534
     76  CG        41.7180   13.0490   42.5760 C.ar  313  TYR313     -0.0201
     77  CD1       40.4270   13.2160   43.0600 C.ar  313  TYR313     -0.0009
     78  CD2       42.2770   14.0720   41.8040 C.ar  313  TYR313     -0.0009
     79  CE1       39.6940   14.3610   42.7620 C.ar  313  TYR313      0.0417
     80  CE2       41.5630   15.2240   41.5120 C.ar  313  TYR313      0.0417
     81  CZ        40.2710   15.3530   41.9960 C.ar  313  TYR313      0.1957
     82  OH        39.5520   16.4960   41.7100 O.3   313  TYR313     -0.2866
     83  N         27.4640   10.1070   44.5370 N.3   348  THR348     -0.1218
     84  CA        27.1480   10.2310   43.1110 C.3   348  THR348      0.1862
     85  C         26.5520    8.9280   42.5400 C.2   348  THR348      0.2287
     86  O         27.1090    8.3580   41.6130 O.2   348  THR348     -0.2866
     87  CB        28.3860   10.6850   42.2770 C.3   348  THR348      0.1770
     88  OG1       29.4620    9.7500   42.4350 O.3   348  THR348     -0.2211
     89  CG2       28.8910   12.0580   42.7060 C.3   348  THR348      0.0375
     90  N         24.1810    8.5870   40.6430 N.3   350  PHE350     -0.1227
     91  CA        23.8160    8.8780   39.2530 C.3   350  PHE350      0.1736
     92  C         24.9770    8.6360   38.2770 C.2   350  PHE350      0.2595
     93  O         24.7840    8.6160   37.0580 O.2   350  PHE350     -0.2718
     94  CB        23.2700   10.3110   39.1290 C.3   350  PHE350      0.0547
     95  CG        24.1490   11.3590   39.7670 C.ar  350  PHE350     -0.0202
     96  CD1       25.1700   11.9680   39.0370 C.ar  350  PHE350     -0.0042
     97  CD2       23.9570   11.7400   41.1020 C.ar  350  PHE350     -0.0042
     98  CE1       25.9850   12.9350   39.6200 C.ar  350  PHE350     -0.0003
     99  CE2       24.7710   12.7090   41.6850 C.ar  350  PHE350     -0.0003
    100  CZ        25.7850   13.3020   40.9430 C.ar  350  PHE350     -0.0000
    101  N         26.1820    8.4530   38.8190 N.am  351  LEU351     -0.1980
    102  CA        27.3530    8.1040   38.0100 C.3   351  LEU351      0.1596
    103  C         27.6170    6.5970   37.9740 C.2   351  LEU351      0.2287
    104  O         28.6830    6.1560   37.5300 O.2   351  LEU351     -0.2864
    105  CB        28.6010    8.8650   38.4890 C.3   351  LEU351      0.0297
    106  CG        28.5230   10.3930   38.4070 C.3   351  LEU351      0.0022
    107  CD1       29.8520   10.9890   38.8400 C.3   351  LEU351      0.0001
    108  CD2       28.1300   10.8980   37.0180 C.3   351  LEU351      0.0001
    109  N         35.4060   15.8910   31.1380 N.3   419  LEU419     -0.1245
    110  CA        35.0650   17.2940   30.8960 C.3   419  LEU419      0.1561
    111  C         35.8400   18.0930   31.9170 C.2   419  LEU419      0.2260
    112  O         36.2490   17.5530   32.9400 O.2   419  LEU419     -0.2867
    113  CB        33.5560   17.5370   31.0320 C.3   419  LEU419      0.0270
    114  CG        32.8890   17.4030   32.4060 C.3   419  LEU419      0.0019
    115  CD1       31.4110   17.7430   32.2730 C.3   419  LEU419      0.0001
    116  CD2       33.0630   16.0060   32.9990 C.3   419  LEU419      0.0001
    117  N         37.6650   22.2150   33.4030 N.3   421  PHE421     -0.1241
    118  CA        37.7070   23.6690   33.5140 C.3   421  PHE421      0.1605
    119  C         39.1600   24.1440   33.5980 C.2   421  PHE421      0.2264
    120  O         40.0700   23.3400   33.8210 O.2   421  PHE421     -0.2867
    121  CB        36.7980   24.2010   34.6620 C.3   421  PHE421      0.0534
    122  CG        37.1720   23.7330   36.0530 C.ar  421  PHE421     -0.0203
    123  CD1       38.2290   24.3240   36.7520 C.ar  421  PHE421     -0.0042
    124  CD2       36.4090   22.7610   36.7010 C.ar  421  PHE421     -0.0042
    125  CE1       38.5540   23.9100   38.0490 C.ar  421  PHE421     -0.0003
    126  CE2       36.7230   22.3540   37.9930 C.ar  421  PHE421     -0.0003
    127  CZ        37.8010   22.9250   38.6660 C.ar  421  PHE421     -0.0000
    128  N         45.8250   18.5250   39.2280 N.3   460  TYR460     -0.1241
    129  CA        44.7690   19.1410   40.0170 C.3   460  TYR460      0.1605
    130  C         44.4230   18.2660   41.2200 C.2   460  TYR460      0.2264
    131  O         44.5120   17.0430   41.1540 O.2   460  TYR460     -0.2867
    132  CB        43.5130   19.3730   39.1470 C.3   460  TYR460      0.0534
    133  CG        42.3910   20.0740   39.8850 C.ar  460  TYR460     -0.0201
    134  CD1       42.3880   21.4660   40.0180 C.ar  460  TYR460     -0.0009
    135  CD2       41.3340   19.3560   40.4620 C.ar  460  TYR460     -0.0009
    136  CE1       41.3790   22.1160   40.7070 C.ar  460  TYR460      0.0417
    137  CE2       40.3280   20.0080   41.1660 C.ar  460  TYR460      0.0417
    138  CZ        40.3520   21.3950   41.2700 C.ar  460  TYR460      0.1957
    139  OH        39.3760   22.0750   41.9660 O.3   460  TYR460     -0.2866
    140  N         41.1440   18.1720   44.2420 N.3   462  SER462     -0.1202
    141  CA        39.8870   18.8000   44.6760 C.3   462  SER462      0.2020
    142  C         40.1120   19.6740   45.9040 C.2   462  SER462      0.2619
    143  O         40.7820   19.2650   46.8760 O.2   462  SER462     -0.2717
    144  CB        38.7970   17.7610   44.9840 C.3   462  SER462      0.2103
    145  OG        38.2620   17.2150   43.7910 O.3   462  SER462     -0.2182
    146  N         39.5820   20.8940   45.8410 N.am  463  GLY463     -0.1956
    147  CA        39.7460   21.8460   46.9380 C.3   463  GLY463      0.1869
    148  C         40.7880   22.9140   46.6780 C.2   463  GLY463      0.2309
    149  O         40.8570   23.8940   47.4060 O.2   463  GLY463     -0.2863
@<TRIPOS>BOND
     1   110   113    1
     2   110   109    1
     3   110   111    1
     4   113   114    1
     5   111   112    2
     6   115   114    1
     7   114   116    1
     8    70    68    1
     9   117   118    1
    10   118   119    1
    11   118   121    1
    12   119   120    2
    13    62    61    2
    14    53    52    2
    15    68    69    1
    16    68    65    1
    17    64    65    1
    18    67    66    2
    19   121   122    1
    20    52    51    1
    21    61    60    1
    22    50    51    1
    23    59    60    1
    24    65    66    1
    25    60    63    1
    26    51    54    1
    27   122   124   ar
    28   122   123   ar
    29    57    56   ar
    30   124   126   ar
    31   123   125   ar
    32    54    55    1
    33   108   106    1
    34    93    92    2
    35    56    58   ar
    36    56    55    1
    37   104   103    2
    38   103   102    1
    39   126   127   ar
    40   102   105    1
    41   102   101    1
    42   125   127   ar
    43    92   101   am
    44    92    91    1
    45   106   105    1
    46   106   107    1
    47    31    33   ar
    48    31    29   ar
    49    96    98   ar
    50    96    95   ar
    51    94    91    1
    52    94    95    1
    53   132   133    1
    54   132   129    1
    55    33    32   ar
    56   128   129    1
    57    91    90    1
    58    98   100   ar
    59    95    97   ar
    60   133   134   ar
    61   133   135   ar
    62    29    28   ar
    63    29    27   ar
    64   129   130    1
    65   134   136   ar
    66    28    26   ar
    67    74    73    2
    68    32    30   ar
    69   135   137   ar
    70   136   138   ar
    71   100    99   ar
    72    97    99   ar
    73   131   130    2
    74   137   138   ar
    75    27    30   ar
    76    27    25   ar
    77    26    25   ar
    78   138   139    1
    79    73    72    1
    80    80    78   ar
    81    80    81   ar
    82    46    45    2
    83    86    85    2
    84    82    81    1
    85    78    76   ar
    86    25    24    1
    87    81    79   ar
    88    45    44    1
    89    87    88    1
    90    87    89    1
    91    87    84    1
    92    49    47    1
    93    85    84    1
    94    76    75    1
    95    76    77   ar
    96    72    71    1
    97    72    75    1
    98    79    77   ar
    99    84    83    1
   100    47    44    1
   101    47    48    1
   102    24    21    1
   103    44    43    1
   104   145   144    1
   105   140   141    1
   106    21    20    1
   107    21    22    1
   108   141   144    1
   109   141   142    1
   110    42    40   ar
   111     1     2    1
   112    23    22    2
   113    22    34   am
   114   146   142   am
   115   146   147    1
   116   142   143    2
   117    40    39    1
   118    40    41   ar
   119     2     3    1
   120    34    35    1
   121    39    38    1
   122   148   147    1
   123   148   149    2
   124    16    18   ar
   125    16    14   ar
   126    18    19   ar
   127    38    35    1
   128     3     5   am
   129     3     4    2
   130     5     6    1
   131    35    36    1
   132    13    14    1
   133    13    10    1
   134    14    15   ar
   135    19    17   ar
   136    12    11    2
   137    37    36    2
   138     9    10    1
   139     9     7   am
   140     6     7    1
   141    15    17   ar
   142    10    11    1
   143     7     8    2
