@<TRIPOS>MOLECULE
tmp/4at3A00.pdb
 160 151 0 0 0
SMALL
GASTEIGER

@<TRIPOS>ATOM
      1  N          0.8140  -28.3620  -15.3470 N.3    21  LEU21      -0.1231
      2  CA         1.8430  -27.4920  -14.8260 C.3    21  LEU21       0.1693
      3  C          2.2550  -26.5530  -15.9580 C.2    21  LEU21       0.2592
      4  O          2.4450  -27.0010  -17.0740 O.2    21  LEU21      -0.2718
      5  CB         3.0280  -28.3420  -14.3460 C.3    21  LEU21       0.0284
      6  CG         3.8650  -28.0080  -13.1290 C.3    21  LEU21       0.0019
      7  CD1        3.0250  -27.6170  -11.9420 C.3    21  LEU21       0.0001
      8  CD2        4.8000  -29.1080  -12.8040 C.3    21  LEU21       0.0001
      9  N          2.3770  -25.2590  -15.6700 N.am   22  GLY22      -0.1957
     10  CA         2.7650  -24.2870  -16.6740 C.3    22  GLY22       0.1869
     11  C          1.6100  -23.9490  -17.5880 C.2    22  GLY22       0.2309
     12  O          0.4900  -24.3450  -17.2980 O.2    22  GLY22      -0.2863
     13  N          6.1280  -25.5810  -22.9520 N.3    26  PHE26      -0.1241
     14  CA         6.7780  -26.8480  -23.1560 C.3    26  PHE26       0.1605
     15  C          5.8050  -27.9590  -23.4920 C.2    26  PHE26       0.2264
     16  O          6.0590  -29.1260  -23.2480 O.2    26  PHE26      -0.2867
     17  CB         7.6660  -27.1860  -21.9670 C.3    26  PHE26       0.0534
     18  CG         8.4030  -26.0070  -21.4220 C.ar   26  PHE26      -0.0203
     19  CD1        7.8080  -25.1790  -20.5030 C.ar   26  PHE26      -0.0042
     20  CD2        9.6710  -25.7140  -21.8500 C.ar   26  PHE26      -0.0042
     21  CE1        8.4710  -24.0830  -20.0000 C.ar   26  PHE26      -0.0003
     22  CE2       10.3380  -24.6360  -21.3580 C.ar   26  PHE26      -0.0003
     23  CZ         9.7450  -23.8190  -20.4230 C.ar   26  PHE26      -0.0000
     24  N          2.6570  -30.4640  -19.8210 N.3    29  VAL29      -0.1245
     25  CA         3.4820  -30.7850  -18.6870 C.3    29  VAL29       0.1561
     26  C          2.5350  -30.9490  -17.5210 C.2    29  VAL29       0.2260
     27  O          1.6300  -30.1740  -17.3100 O.2    29  VAL29      -0.2867
     28  CB         4.5530  -29.7290  -18.3990 C.3    29  VAL29       0.0252
     29  CG1        5.3900  -30.1370  -17.2350 C.3    29  VAL29       0.0019
     30  CG2        5.4010  -29.4910  -19.5950 C.3    29  VAL29       0.0019
     31  N          7.7800  -33.5630  -12.3340 N.3    43  ALA43      -0.1245
     32  CA         7.1860  -32.8960  -13.4820 C.3    43  ALA43       0.1562
     33  C          7.2870  -33.8660  -14.6510 C.2    43  ALA43       0.2260
     34  O          8.3530  -34.4450  -14.8880 O.2    43  ALA43      -0.2867
     35  CB         7.9250  -31.6100  -13.7970 C.3    43  ALA43       0.0290
     36  N          6.7230  -34.5160  -18.7900 N.3    45  LYS45      -0.1245
     37  CA         6.6610  -33.9610  -20.1410 C.3    45  LYS45       0.1561
     38  C          6.2820  -35.1080  -21.0900 C.2    45  LYS45       0.2260
     39  O          6.9340  -36.1550  -21.0750 O.2    45  LYS45      -0.2867
     40  CB         8.0230  -33.3230  -20.5170 C.3    45  LYS45       0.0271
     41  CG         8.2880  -33.1130  -22.0140 C.3    45  LYS45       0.0035
     42  CD         7.4780  -31.9760  -22.6200 C.3    45  LYS45       0.0206
     43  CE         7.5750  -31.9300  -24.1280 C.3    45  LYS45       0.1093
     44  NZ         8.8750  -31.3780  -24.5900 N.3    45  LYS45      -0.1314
     45  N         18.3100  -28.7140  -13.9770 N.3    72  VAL72      -0.1245
     46  CA        17.0480  -29.3730  -13.6190 C.3    72  VAL72       0.1561
     47  C         17.2460  -30.8910  -13.7410 C.2    72  VAL72       0.2260
     48  O         17.6720  -31.3690  -14.7950 O.2    72  VAL72      -0.2867
     49  CB        15.8460  -28.8600  -14.4600 C.3    72  VAL72       0.0252
     50  CG1       14.5620  -29.6110  -14.1110 C.3    72  VAL72       0.0019
     51  CG2       15.6500  -27.3570  -14.2740 C.3    72  VAL72       0.0019
     52  N         11.0340  -35.2660  -14.8220 N.3    88  PHE88      -0.1227
     53  CA        11.9640  -34.2710  -14.2830 C.3    88  PHE88       0.1736
     54  C         11.6180  -33.9530  -12.8340 C.2    88  PHE88       0.2595
     55  O         10.4930  -34.2110  -12.4020 O.2    88  PHE88      -0.2718
     56  CB        11.8960  -32.9700  -15.1130 C.3    88  PHE88       0.0547
     57  CG        12.3780  -33.0900  -16.5380 C.ar   88  PHE88      -0.0202
     58  CD1       11.4960  -33.4170  -17.5630 C.ar   88  PHE88      -0.0042
     59  CD2       13.7080  -32.8500  -16.8620 C.ar   88  PHE88      -0.0042
     60  CE1       11.9420  -33.5230  -18.8830 C.ar   88  PHE88      -0.0003
     61  CE2       14.1510  -32.9480  -18.1840 C.ar   88  PHE88      -0.0003
     62  CZ        13.2670  -33.2950  -19.1830 C.ar   88  PHE88      -0.0000
     63  N         12.5620  -33.3440  -12.0910 N.am   89  GLU89      -0.1965
     64  CA        12.2840  -32.9380  -10.7190 C.3    89  GLU89       0.1733
     65  C         11.2740  -31.7870  -10.7160 C.2    89  GLU89       0.2616
     66  O         11.2140  -31.0000  -11.6720 O.2    89  GLU89      -0.2715
     67  CB        13.5640  -32.5700   -9.9440 C.3    89  GLU89       0.0429
     68  CG        14.1940  -31.2460  -10.3430 C.3    89  GLU89       0.1163
     69  CD        15.3740  -30.8130   -9.5000 C.2    89  GLU89       0.3649
     70  OE1       15.2380  -30.7410   -8.2570 O.co2  89  GLU89      -0.2457
     71  OE2       16.4310  -30.5140  -10.0950 O.co2  89  GLU89      -0.2457
     72  N         10.4690  -31.7160   -9.6560 N.am   90  TYR90      -0.1960
     73  CA         9.4670  -30.6770   -9.5000 C.3    90  TYR90       0.1771
     74  C         10.0750  -29.4480   -8.8440 C.2    90  TYR90       0.2619
     75  O         10.6440  -29.5320   -7.7500 O.2    90  TYR90      -0.2715
     76  CB         8.2400  -31.2040   -8.7320 C.3    90  TYR90       0.0574
     77  CG         7.2480  -30.1430   -8.2990 C.ar   90  TYR90      -0.0198
     78  CD1        6.5990  -29.3410   -9.2350 C.ar   90  TYR90      -0.0009
     79  CD2        6.9290  -29.9670   -6.9560 C.ar   90  TYR90      -0.0009
     80  CE1        5.6740  -28.3740   -8.8420 C.ar   90  TYR90       0.0417
     81  CE2        6.0030  -29.0050   -6.5510 C.ar   90  TYR90       0.0417
     82  CZ         5.3760  -28.2130   -7.4990 C.ar   90  TYR90       0.1957
     83  OH         4.4580  -27.2690   -7.1070 O.3    90  TYR90      -0.2866
     84  N          9.9660  -28.3110   -9.5390 N.am   91  MET91      -0.1963
     85  CA        10.4500  -27.0080   -9.0900 C.3    91  MET91       0.1736
     86  C          9.2130  -26.1850   -8.7500 C.2    91  MET91       0.2616
     87  O          8.5030  -25.7140   -9.6420 O.2    91  MET91      -0.2715
     88  CB        11.3220  -26.3420  -10.1700 C.3    91  MET91       0.0427
     89  CG        12.5540  -27.1620  -10.5520 C.3    91  MET91       0.0599
     90  SD        13.7770  -27.3480   -9.2310 S.3    91  MET91      -0.1393
     91  CE        14.6070  -25.7620   -9.3200 C.3    91  MET91       0.0692
     92  N          8.9230  -26.1030   -7.4430 N.am   92  LYS92      -0.1977
     93  CA         7.7480  -25.4720   -6.8460 C.3    92  LYS92       0.1596
     94  C          7.4150  -24.0710   -7.3500 C.2    92  LYS92       0.2287
     95  O          6.2500  -23.8040   -7.6390 O.2    92  LYS92      -0.2864
     96  CB         7.8610  -25.4940   -5.3110 C.3    92  LYS92       0.0298
     97  CG         6.5470  -25.2850   -4.5630 C.3    92  LYS92       0.0038
     98  CD         6.7340  -25.5180   -3.0740 C.3    92  LYS92       0.0206
     99  CE         6.3250  -24.3250   -2.2490 C.3    92  LYS92       0.1093
    100  NZ         6.5680  -24.5520   -0.8010 N.3    92  LYS92      -0.1314
    101  N          8.2570  -22.4870  -10.2020 N.3    94  GLY94      -0.1210
    102  CA         8.1460  -22.3460  -11.6490 C.3    94  GLY94       0.1956
    103  C          9.2520  -21.5950  -12.3550 C.2    94  GLY94       0.2611
    104  O         10.3550  -21.4490  -11.8190 O.2    94  GLY94      -0.2717
    105  N          8.9530  -21.1290  -13.5820 N.am   95  ASP95      -0.1973
    106  CA         9.9180  -20.4250  -14.4220 C.3    95  ASP95       0.1709
    107  C         10.3870  -19.1030  -13.8420 C.2    95  ASP95       0.2293
    108  O          9.5890  -18.3300  -13.2970 O.2    95  ASP95      -0.2864
    109  CB         9.4940  -20.3510  -15.9060 C.3    95  ASP95       0.1436
    110  CG         8.7020  -19.1250  -16.3110 C.2    95  ASP95       0.3671
    111  OD1        9.3170  -18.0510  -16.4810 O.co2  95  ASP95      -0.2456
    112  OD2        7.4880  -19.2580  -16.5470 O.co2  95  ASP95      -0.2456
    113  N          8.7000  -15.5350  -14.8530 N.3    98  LYS98      -0.1245
    114  CA         7.4600  -15.3190  -14.1070 C.3    98  LYS98       0.1561
    115  C          7.7830  -14.9120  -12.6650 C.2    98  LYS98       0.2260
    116  O          7.1870  -13.9620  -12.1580 O.2    98  LYS98      -0.2867
    117  CB         6.5980  -16.5920  -14.1240 C.3    98  LYS98       0.0271
    118  CG         5.4910  -16.5890  -15.1750 C.3    98  LYS98       0.0035
    119  CD         4.7540  -17.9390  -15.3030 C.3    98  LYS98       0.0206
    120  CE         3.8880  -18.3250  -14.1200 C.3    98  LYS98       0.1093
    121  NZ         4.6030  -19.2350  -13.1820 N.3    98  LYS98      -0.1314
    122  N         13.1190  -17.6060  -18.8780 N.3   149  ARG149     -0.1231
    123  CA        11.9540  -18.4550  -19.1640 C.3   149  ARG149      0.1694
    124  C         12.3280  -19.9620  -19.1710 C.2   149  ARG149      0.2592
    125  O         11.4510  -20.8040  -18.9750 O.2   149  ARG149     -0.2718
    126  CB        11.2810  -18.0430  -20.4920 C.3   149  ARG149      0.0321
    127  CG        12.1490  -18.3110  -21.7170 C.3   149  ARG149      0.0489
    128  CD        11.5140  -17.9340  -23.0380 C.3   149  ARG149      0.2205
    129  NE        12.5020  -18.0860  -24.1050 N.pl3 149  ARG149     -0.0865
    130  CZ        13.3720  -17.1450  -24.4540 C.cat 149  ARG149      0.5346
    131  NH1       13.3490  -15.9580  -23.8620 N.pl3 149  ARG149      0.1354
    132  NH2       14.2690  -17.3810  -25.3980 N.pl3 149  ARG149      0.1354
    133  N         13.6250  -20.2860  -19.4040 N.am  150  ASN150     -0.1974
    134  CA        14.1420  -21.6580  -19.4370 C.3   150  ASN150      0.1688
    135  C         14.8500  -22.0830  -18.1480 C.2   150  ASN150      0.2292
    136  O         15.4430  -23.1660  -18.0910 O.2   150  ASN150     -0.2864
    137  CB        15.0010  -21.9020  -20.6810 C.3   150  ASN150      0.1181
    138  CG        14.2160  -21.8180  -21.9610 C.2   150  ASN150      0.2629
    139  OD1       13.0340  -22.1790  -22.0250 O.2   150  ASN150     -0.2716
    140  ND2       14.8510  -21.3250  -23.0080 N.am  150  ASN150     -0.0877
    141  N         14.3170  -22.6240  -13.8260 N.3   152  LEU152     -0.1245
    142  CA        13.2740  -22.9220  -12.8460 C.3   152  LEU152      0.1561
    143  C         13.7190  -22.5720  -11.4330 C.2   152  LEU152      0.2260
    144  O         14.9120  -22.6430  -11.1160 O.2   152  LEU152     -0.2867
    145  CB        12.8200  -24.3930  -12.9310 C.3   152  LEU152      0.0270
    146  CG        12.1220  -24.8580  -14.2210 C.3   152  LEU152      0.0019
    147  CD1       12.0160  -26.3680  -14.2570 C.3   152  LEU152      0.0001
    148  CD2       10.7250  -24.2550  -14.3670 C.3   152  LEU152      0.0001
    149  N         17.4810  -25.3960  -17.4270 N.3   162  GLY162     -0.1210
    150  CA        16.8390  -26.5030  -18.0890 C.3   162  GLY162      0.1956
    151  C         16.5300  -26.2230  -19.5440 C.2   162  GLY162      0.2611
    152  O         16.9390  -25.2230  -20.0990 O.2   162  GLY162     -0.2717
    153  N         15.8150  -27.1620  -20.1450 N.am  163  ASP163     -0.1973
    154  CA        15.3450  -27.1200  -21.5260 C.3   163  ASP163      0.1709
    155  C         16.4030  -27.3250  -22.5940 C.2   163  ASP163      0.2293
    156  O         16.3430  -28.2900  -23.3410 O.2   163  ASP163     -0.2864
    157  CB        14.5910  -25.8060  -21.7770 C.3   163  ASP163      0.1436
    158  CG        13.9880  -25.7180  -23.1830 C.2   163  ASP163      0.3671
    159  OD1       13.0540  -26.4910  -23.4820 O.co2 163  ASP163     -0.2456
    160  OD2       14.4350  -24.8560  -23.9670 O.co2 163  ASP163     -0.2456
@<TRIPOS>BOND
     1   132   130    1
     2    44    43    1
     3   130   129    2
     4   130   131    1
     5    43    42    1
     6   129   128    1
     7   160   158   ar
     8    15    16    2
     9    15    14    1
    10   159   158   ar
    11   156   155    2
    12   158   157    1
    13    14    13    1
    14    14    17    1
    15   128   127    1
    16   140   138   am
    17    42    41    1
    18   155   154    1
    19   139   138    2
    20    41    40    1
    21    17    18    1
    22   138   137    1
    23    20    18   ar
    24    20    22   ar
    25   157   154    1
    26   127   126    1
    27   154   153    1
    28    18    19   ar
    29    22    23   ar
    30    38    39    2
    31    38    37    1
    32   137   134    1
    33    40    37    1
    34    19    21   ar
    35   126   123    1
    36    23    21   ar
    37   153   151   am
    38    37    36    1
    39   152   151    2
    40    24    25    1
    41    30    28    1
    42   151   150    1
    43   134   133    1
    44   134   135    1
    45   133   124   am
    46    62    60   ar
    47    62    61   ar
    48   124   123    1
    49   124   125    2
    50   123   122    1
    51    60    58   ar
    52    25    28    1
    53    25    26    1
    54    28    29    1
    55    61    59   ar
    56   135   136    2
    57   150   149    1
    58    11    12    2
    59    11    10    1
    60    58    57   ar
    61    26    27    2
    62     4     3    2
    63    59    57   ar
    64    10     9    1
    65   112   110   ar
    66    57    56    1
    67   111   110   ar
    68   110   109    1
    69     3     9   am
    70     3     2    1
    71   109   106    1
    72     1     2    1
    73   119   118    1
    74   119   120    1
    75   118   117    1
    76    56    53    1
    77    34    33    2
    78   113   114    1
    79     2     5    1
    80    52    53    1
    81    48    47    2
    82    33    32    1
    83    49    51    1
    84    49    50    1
    85    49    46    1
    86   106   107    1
    87   106   105    1
    88   148   146    1
    89     5     6    1
    90    53    54    1
    91   147   146    1
    92   146   145    1
    93   117   114    1
    94   120   121    1
    95   114   115    1
    96    45    46    1
    97   107   108    2
    98   141   142    1
    99    35    32    1
   100    47    46    1
   101   105   103   am
   102    32    31    1
   103     6     8    1
   104     6     7    1
   105   145   142    1
   106   142   143    1
   107    54    55    2
   108    54    63   am
   109   115   116    2
   110   103   104    2
   111   103   102    1
   112    63    64    1
   113    66    65    2
   114   102   101    1
   115   143   144    2
   116    64    65    1
   117    64    67    1
   118    65    72   am
   119    89    88    1
   120    89    90    1
   121    68    67    1
   122    68    69    1
   123    88    85    1
   124    71    69   ar
   125    72    73    1
   126    87    86    2
   127    84    85    1
   128    84    74   am
   129    69    70   ar
   130    73    74    1
   131    73    76    1
   132    91    90    1
   133    78    80   ar
   134    78    77   ar
   135    85    86    1
   136    74    75    2
   137    80    82   ar
   138    86    92   am
   139    76    77    1
   140    77    79   ar
   141    95    94    2
   142    82    83    1
   143    82    81   ar
   144    92    93    1
   145    94    93    1
   146    79    81   ar
   147    93    96    1
   148    96    97    1
   149    97    98    1
   150    98    99    1
   151    99   100    1
