@<TRIPOS>MOLECULE
tmp/4at4A00.pdb
 197 186 0 0 0
SMALL
GASTEIGER

@<TRIPOS>ATOM
      1  N         43.6680   30.1790   19.1010 N.3    21  LEU21      -0.1245
      2  CA        44.3530   28.8840   19.0140 C.3    21  LEU21       0.1561
      3  C         44.4440   28.1220   20.3360 C.2    21  LEU21       0.2260
      4  O         44.4830   26.8900   20.3260 O.2    21  LEU21      -0.2867
      5  CB        45.7390   29.0110   18.3470 C.3    21  LEU21       0.0270
      6  CG        45.7780   29.4900   16.8830 C.3    21  LEU21       0.0019
      7  CD1       47.1940   29.8370   16.4640 C.3    21  LEU21       0.0001
      8  CD2       45.1980   28.4490   15.9250 C.3    21  LEU21       0.0001
      9  N         46.5780   32.6510   22.9160 N.3    29  VAL29      -0.1245
     10  CA        47.3260   32.5180   21.6590 C.3    29  VAL29       0.1561
     11  C         46.3130   32.5960   20.5080 C.2    29  VAL29       0.2260
     12  O         45.2740   31.9340   20.5630 O.2    29  VAL29      -0.2867
     13  CB        48.2000   31.2290   21.5960 C.3    29  VAL29       0.0252
     14  CG1       49.0420   31.1810   20.3220 C.3    29  VAL29       0.0019
     15  CG2       49.0970   31.0940   22.8270 C.3    29  VAL29       0.0019
     16  N         51.2020   33.8970   14.1890 N.3    43  ALA43      -0.1245
     17  CA        50.7940   33.2580   15.4360 C.3    43  ALA43       0.1562
     18  C         51.1310   34.2720   16.5310 C.2    43  ALA43       0.2260
     19  O         52.3050   34.5880   16.7470 O.2    43  ALA43      -0.2867
     20  CB        51.5560   31.9580   15.6440 C.3    43  ALA43       0.0290
     21  N         50.7310   35.9450   20.5630 N.3    45  LYS45      -0.1245
     22  CA        50.5510   35.6830   21.9950 C.3    45  LYS45       0.1561
     23  C         50.1960   36.9910   22.7090 C.2    45  LYS45       0.2260
     24  O         50.8920   37.9960   22.5330 O.2    45  LYS45      -0.2867
     25  CB        51.8120   35.0470   22.6080 C.3    45  LYS45       0.0271
     26  CG        52.0810   33.6230   22.1340 C.3    45  LYS45       0.0035
     27  CD        53.3780   33.0730   22.7090 C.3    45  LYS45       0.0206
     28  CE        53.1360   31.9950   23.7370 C.3    45  LYS45       0.1093
     29  NZ        54.4110   31.4180   24.2390 N.3    45  LYS45      -0.1314
     30  N         61.5510   39.0770   27.3380 N.3    61  GLU61      -0.1245
     31  CA        61.3450   37.9210   26.4570 C.3    61  GLU61       0.1567
     32  C         61.4920   38.3710   24.9930 C.2    61  GLU61       0.2260
     33  O         62.1390   37.6790   24.2030 O.2    61  GLU61      -0.2867
     34  CB        59.9640   37.2810   26.7160 C.3    61  GLU61       0.0388
     35  CG        59.6140   36.1040   25.8130 C.3    61  GLU61       0.1160
     36  CD        60.0990   34.7250   26.2230 C.2    61  GLU61       0.3649
     37  OE1       61.2010   34.6120   26.8090 O.co2  61  GLU61      -0.2457
     38  OE2       59.3740   33.7460   25.9320 O.co2  61  GLU61      -0.2457
     39  N         65.0870   38.9400   24.0760 N.3    64  LEU64      -0.1231
     40  CA        65.7850   37.6660   23.9220 C.3    64  LEU64       0.1693
     41  C         65.5020   37.0690   22.5350 C.2    64  LEU64       0.2591
     42  O         66.4400   36.6870   21.8330 O.2    64  LEU64      -0.2718
     43  CB        65.3600   36.6860   25.0410 C.3    64  LEU64       0.0284
     44  CG        65.8870   35.2440   24.9590 C.3    64  LEU64       0.0019
     45  CD1       67.3170   35.1400   25.4820 C.3    64  LEU64       0.0001
     46  CD2       64.9850   34.3000   25.7250 C.3    64  LEU64       0.0001
     47  N         64.2130   36.9910   22.1550 N.am   65  LEU65      -0.1980
     48  CA        63.7480   36.4180   20.8910 C.3    65  LEU65       0.1596
     49  C         64.0740   37.2430   19.6460 C.2    65  LEU65       0.2287
     50  O         64.1960   36.6640   18.5630 O.2    65  LEU65      -0.2864
     51  CB        62.2520   36.0600   20.9540 C.3    65  LEU65       0.0297
     52  CG        61.8640   34.9560   21.9470 C.3    65  LEU65       0.0022
     53  CD1       60.3840   34.9750   22.2260 C.3    65  LEU65       0.0001
     54  CD2       62.2940   33.5760   21.4540 C.3    65  LEU65       0.0001
     55  N         67.4800   36.1420   18.5740 N.3    68  LEU68      -0.1245
     56  CA        67.4450   34.7160   18.2510 C.3    68  LEU68       0.1561
     57  C         66.8100   34.5430   16.8590 C.2    68  LEU68       0.2260
     58  O         65.6130   34.2560   16.7420 O.2    68  LEU68      -0.2867
     59  CB        66.6650   33.9560   19.3430 C.3    68  LEU68       0.0270
     60  CG        67.4370   32.9290   20.1780 C.3    68  LEU68       0.0019
     61  CD1       68.5690   33.5730   20.9690 C.3    68  LEU68       0.0001
     62  CD2       66.5050   32.2150   21.1360 C.3    68  LEU68       0.0001
     63  N         64.8200   28.2770   13.3150 N.3    73  ILE73      -0.1231
     64  CA        64.2690   28.7980   14.5640 C.3    73  ILE73       0.1692
     65  C         63.0270   29.5810   14.1470 C.2    73  ILE73       0.2591
     66  O         63.1160   30.4160   13.2420 O.2    73  ILE73      -0.2718
     67  CB        65.2980   29.6660   15.3640 C.3    73  ILE73       0.0266
     68  CG1       66.5400   28.8480   15.8340 C.3    73  ILE73       0.0019
     69  CG2       64.6430   30.4320   16.5320 C.3    73  ILE73       0.0020
     70  CD1       66.3020   27.6200   16.8220 C.3    73  ILE73       0.0001
     71  N         61.8690   29.2770   14.7650 N.am   74  VAL74      -0.1980
     72  CA        60.5930   29.9390   14.4720 C.3    74  VAL74       0.1595
     73  C         60.7530   31.4700   14.5150 C.2    74  VAL74       0.2287
     74  O         61.2620   32.0160   15.4970 O.2    74  VAL74      -0.2864
     75  CB        59.4050   29.3840   15.3150 C.3    74  VAL74       0.0276
     76  CG1       59.5690   29.6700   16.8070 C.3    74  VAL74       0.0022
     77  CG2       58.0600   29.8930   14.8010 C.3    74  VAL74       0.0022
     78  N         54.7940   36.1300   16.0730 N.3    90  PHE90      -0.1227
     79  CA        55.5800   35.0100   15.5400 C.3    90  PHE90       0.1736
     80  C         54.9670   34.5740   14.2110 C.2    90  PHE90       0.2595
     81  O         53.7910   34.8440   13.9760 O.2    90  PHE90      -0.2718
     82  CB        55.5530   33.8060   16.5010 C.3    90  PHE90       0.0547
     83  CG        56.1700   34.0210   17.8580 C.ar   90  PHE90      -0.0202
     84  CD1       57.5160   33.7540   18.0770 C.ar   90  PHE90      -0.0042
     85  CD2       55.3950   34.4390   18.9330 C.ar   90  PHE90      -0.0042
     86  CE1       58.0820   33.9310   19.3410 C.ar   90  PHE90      -0.0003
     87  CE2       55.9620   34.6180   20.1960 C.ar   90  PHE90      -0.0003
     88  CZ        57.3010   34.3630   20.3910 C.ar   90  PHE90      -0.0000
     89  N         55.7360   33.8710   13.3610 N.am   91  GLU91      -0.1965
     90  CA        55.2130   33.3680   12.0850 C.3    91  GLU91       0.1733
     91  C         54.2340   32.2080   12.3240 C.2    91  GLU91       0.2616
     92  O         54.3720   31.4780   13.3110 O.2    91  GLU91      -0.2715
     93  CB        56.3500   32.9470   11.1270 C.3    91  GLU91       0.0429
     94  CG        57.1080   31.6920   11.5400 C.3    91  GLU91       0.1163
     95  CD        58.1580   31.1940   10.5690 C.2    91  GLU91       0.3649
     96  OE1       57.8480   31.0420    9.3650 O.co2  91  GLU91      -0.2457
     97  OE2       59.2820   30.8970   11.0300 O.co2  91  GLU91      -0.2457
     98  N         53.2420   32.0590   11.4380 N.am   92  TYR92      -0.1960
     99  CA        52.2740   30.9730   11.5390 C.3    92  TYR92       0.1771
    100  C         52.7250   29.8340   10.6410 C.2    92  TYR92       0.2619
    101  O         52.8790   30.0190    9.4300 O.2    92  TYR92      -0.2715
    102  CB        50.8450   31.4430   11.1940 C.3    92  TYR92       0.0574
    103  CG        49.7980   30.3500   11.2580 C.ar   92  TYR92      -0.0198
    104  CD1       49.3050   29.8990   12.4800 C.ar   92  TYR92      -0.0009
    105  CD2       49.2750   29.7890   10.0960 C.ar   92  TYR92      -0.0009
    106  CE1       48.3390   28.8940   12.5450 C.ar   92  TYR92       0.0417
    107  CE2       48.3050   28.7880   10.1480 C.ar   92  TYR92       0.0417
    108  CZ        47.8390   28.3440   11.3750 C.ar   92  TYR92       0.1957
    109  OH        46.8810   27.3590   11.4310 O.3    92  TYR92      -0.2866
    110  N         52.9810   28.6700   11.2470 N.am   93  MET93      -0.1977
    111  CA        53.4050   27.4740   10.5240 C.3    93  MET93       0.1605
    112  C         52.1410   26.6720   10.2400 C.2    93  MET93       0.2287
    113  O         51.5450   26.1000   11.1550 O.2    93  MET93      -0.2864
    114  CB        54.4520   26.6730   11.3220 C.3    93  MET93       0.0413
    115  CG        55.6570   27.5030   11.7600 C.3    93  MET93       0.0598
    116  SD        56.8810   27.8110   10.4670 S.3    93  MET93      -0.1393
    117  CE        57.7890   26.2800   10.5010 C.3    93  MET93       0.0692
    118  N         51.5330   22.8640   11.2700 N.3    96  GLY96      -0.1225
    119  CA        51.5370   22.5820   12.7030 C.3    96  GLY96       0.1811
    120  C         52.8010   21.9510   13.2530 C.2    96  GLY96       0.2280
    121  O         53.8510   21.9780   12.6040 O.2    96  GLY96      -0.2866
    122  N         71.4980   27.8300   18.6280 N.3   137  LEU137     -0.1245
    123  CA        71.1400   28.1030   20.0260 C.3   137  LEU137      0.1561
    124  C         72.3380   27.9760   20.9670 C.2   137  LEU137      0.2260
    125  O         72.4840   28.8010   21.8680 O.2   137  LEU137     -0.2867
    126  CB        69.9660   27.2290   20.5040 C.3   137  LEU137      0.0270
    127  CG        68.5950   27.4600   19.8480 C.3   137  LEU137      0.0019
    128  CD1       67.5610   26.5140   20.4160 C.3   137  LEU137      0.0001
    129  CD2       68.1100   28.9000   20.0140 C.3   137  LEU137      0.0001
    130  N         72.0770   29.7350   24.5360 N.3   142  PHE142     -0.1241
    131  CA        70.6830   29.5290   24.9080 C.3   142  PHE142      0.1605
    132  C         70.4020   28.0550   25.1740 C.2   142  PHE142      0.2264
    133  O         70.7000   27.2020   24.3330 O.2   142  PHE142     -0.2867
    134  CB        69.7270   30.0950   23.8370 C.3   142  PHE142      0.0534
    135  CG        68.2580   29.9950   24.1900 C.ar  142  PHE142     -0.0203
    136  CD1       67.6570   30.9400   25.0140 C.ar  142  PHE142     -0.0042
    137  CD2       67.4760   28.9570   23.6960 C.ar  142  PHE142     -0.0042
    138  CE1       66.3030   30.8420   25.3460 C.ar  142  PHE142     -0.0003
    139  CE2       66.1220   28.8600   24.0300 C.ar  142  PHE142     -0.0003
    140  CZ        65.5450   29.8040   24.8510 C.ar  142  PHE142     -0.0000
    141  N         67.4950   25.5220   25.6490 N.3   144  HIS144     -0.1241
    142  CA        66.1050   25.3670   25.3270 C.3   144  HIS144      0.1621
    143  C         65.2680   24.7640   26.4450 C.2   144  HIS144      0.2264
    144  O         64.2630   25.3150   26.8060 O.2   144  HIS144     -0.2867
    145  CB        65.9930   24.5110   24.0790 C.3   144  HIS144      0.0745
    146  CG        64.6340   24.5060   23.4770 C.ar  144  HIS144      0.0817
    147  ND1       63.5880   23.8150   24.0290 N.ar  144  HIS144     -0.2268
    148  CD2       64.1460   25.1030   22.3760 C.ar  144  HIS144      0.1154
    149  CE1       62.5130   23.9960   23.3060 C.ar  144  HIS144      0.1986
    150  NE2       62.8260   24.7680   22.2930 N.ar  144  HIS144     -0.2212
    151  N         58.1800   22.8750   14.5720 N.3   153  LEU153     -0.1245
    152  CA        57.1200   23.2210   13.6270 C.3   153  LEU153      0.1561
    153  C         57.4890   22.9340   12.1770 C.2   153  LEU153      0.2260
    154  O         58.6380   23.1300   11.7760 O.2   153  LEU153     -0.2867
    155  CB        56.6820   24.6800   13.8130 C.3   153  LEU153      0.0270
    156  CG        56.0090   24.9970   15.1510 C.3   153  LEU153      0.0019
    157  CD1       56.9090   25.8380   16.0290 C.3   153  LEU153      0.0001
    158  CD2       54.6850   25.6730   14.9470 C.3   153  LEU153      0.0001
    159  N         62.6310   25.0430   15.1260 N.3   162  ILE162     -0.1231
    160  CA        62.5030   24.8030   16.5650 C.3   162  ILE162      0.1692
    161  C         61.7570   25.9680   17.2080 C.2   162  ILE162      0.2593
    162  O         62.0340   27.1340   16.9110 O.2   162  ILE162     -0.2718
    163  CB        63.8730   24.5480   17.2680 C.3   162  ILE162      0.0266
    164  CG1       64.6730   23.4320   16.5710 C.3   162  ILE162      0.0019
    165  CG2       63.6930   24.2390   18.7730 C.3   162  ILE162      0.0020
    166  CD1       66.1460   23.5060   16.8110 C.3   162  ILE162      0.0001
    167  N         60.8350   25.6270   18.0960 N.am  163  GLY163     -0.1942
    168  CA        60.0650   26.5830   18.8730 C.3   163  GLY163      0.2014
    169  C         59.9210   26.1310   20.3090 C.2   163  GLY163      0.2639
    170  O         60.5230   25.1360   20.7210 O.2   163  GLY163     -0.2714
    171  N         59.1240   26.8730   21.0760 N.am  164  ASP164     -0.1957
    172  CA        58.8050   26.5900   22.4690 C.3   164  ASP164      0.1840
    173  C         57.4170   27.1660   22.6750 C.2   164  ASP164      0.2622
    174  O         57.2680   28.3660   22.9260 O.2   164  ASP164     -0.2715
    175  CB        59.8450   27.2080   23.4290 C.3   164  ASP164      0.1450
    176  CG        59.7810   26.6960   24.8600 C.2   164  ASP164      0.3671
    177  OD1       59.0070   25.7460   25.1220 O.co2 164  ASP164     -0.2456
    178  OD2       60.5180   27.2320   25.7130 O.co2 164  ASP164     -0.2456
    179  N         56.4000   26.3140   22.4550 N.am  165  PHE165     -0.1974
    180  CA        54.9780   26.6520   22.5100 C.3   165  PHE165      0.1639
    181  C         54.5330   27.4650   23.7180 C.2   165  PHE165      0.2290
    182  O         53.9280   28.5220   23.5300 O.2   165  PHE165     -0.2864
    183  CB        54.0970   25.4100   22.2930 C.3   165  PHE165      0.0560
    184  CG        53.8840   25.0480   20.8420 C.ar  165  PHE165     -0.0200
    185  CD1       54.8670   24.3800   20.1220 C.ar  165  PHE165     -0.0042
    186  CD2       52.6890   25.3520   20.2010 C.ar  165  PHE165     -0.0042
    187  CE1       54.6660   24.0390   18.7810 C.ar  165  PHE165     -0.0003
    188  CE2       52.4870   25.0060   18.8610 C.ar  165  PHE165     -0.0003
    189  CZ        53.4750   24.3480   18.1630 C.ar  165  PHE165     -0.0000
    190  N         52.2180   26.8880   25.6420 N.3   167  MET167     -0.1245
    191  CA        50.7720   26.8390   25.4790 C.3   167  MET167      0.1570
    192  C         50.2700   25.4920   26.0090 C.2   167  MET167      0.2261
    193  O         50.8920   24.4610   25.7330 O.2   167  MET167     -0.2867
    194  CB        50.4670   26.9750   23.9760 C.3   167  MET167      0.0387
    195  CG        49.0080   27.0710   23.6290 C.3   167  MET167      0.0595
    196  SD        48.7510   26.3010   22.0170 S.3   167  MET167     -0.1393
    197  CE        47.8980   27.5640   21.1940 C.3   167  MET167      0.0692
@<TRIPOS>BOND
     1    96    95   ar
     2   101   100    2
     3   105   107   ar
     4   105   103   ar
     5   107   108   ar
     6   112   111    1
     7   112   113    2
     8   116   117    1
     9   116   115    1
    10   111   110    1
    11   111   114    1
    12    95    97   ar
    13    95    94    1
    14   100   110   am
    15   100    99    1
    16    93    94    1
    17    93    90    1
    18   102   103    1
    19   102    99    1
    20   103   104   ar
    21   118   119    1
    22   114   115    1
    23   108   109    1
    24   108   106   ar
    25    98    99    1
    26    98    91   am
    27   154   153    2
    28    90    91    1
    29    90    89    1
    30   153   152    1
    31    91    92    2
    32   104   106   ar
    33   121   120    2
    34   119   120    1
    35    66    65    2
    36    63    64    1
    37    89    80   am
    38   152   155    1
    39   152   151    1
    40   155   156    1
    41    81    80    2
    42    65    64    1
    43    65    71   am
    44    16    17    1
    45    80    79    1
    46    72    73    1
    47    72    71    1
    48    72    75    1
    49    73    74    2
    50    64    67    1
    51    77    75    1
    52   158   156    1
    53   159   160    1
    54   156   157    1
    55    75    76    1
    56    67    68    1
    57    67    69    1
    58    17    20    1
    59    17    18    1
    60    79    78    1
    61    79    82    1
    62    68    70    1
    63     8     6    1
    64     7     6    1
    65    82    83    1
    66    18    19    2
    67   160   161    1
    68   160   163    1
    69   164   166    1
    70   164   163    1
    71    58    57    2
    72    57    56    1
    73     6     5    1
    74   162   161    2
    75   161   167   am
    76   163   165    1
    77    83    84   ar
    78    83    85   ar
    79    84    86   ar
    80   167   168    1
    81   189   187   ar
    82   189   188   ar
    83    56    55    1
    84    56    59    1
    85     5     2    1
    86    50    49    2
    87   122   123    1
    88   187   185   ar
    89   188   186   ar
    90   168   169    1
    91    85    87   ar
    92     2     1    1
    93     2     3    1
    94    86    88   ar
    95    59    60    1
    96    49    48    1
    97   127   129    1
    98   127   128    1
    99   127   126    1
   100   123   126    1
   101   123   124    1
   102   185   184   ar
   103    60    61    1
   104    60    62    1
   105    87    88   ar
   106   186   184   ar
   107   169   170    2
   108   169   171   am
   109    14    13    1
   110     4     3    2
   111    11    12    2
   112    11    10    1
   113    21    22    1
   114   184   183    1
   115    48    51    1
   116    48    47    1
   117    51    52    1
   118   124   125    2
   119   171   172    1
   120   197   196    1
   121    54    52    1
   122    13    10    1
   123    13    15    1
   124    10     9    1
   125    42    41    2
   126    52    53    1
   127    22    25    1
   128    22    23    1
   129   196   195    1
   130    26    25    1
   131    26    27    1
   132    47    41   am
   133   183   180    1
   134   150   148   ar
   135   150   149   ar
   136   148   146   ar
   137   179   180    1
   138   179   173   am
   139   172   173    1
   140   172   175    1
   141   180   181    1
   142    24    23    2
   143    41    40    1
   144   173   174    2
   145    27    28    1
   146   149   147   ar
   147   175   176    1
   148   146   147   ar
   149   146   145    1
   150   182   181    2
   151   195   194    1
   152   137   139   ar
   153   137   135   ar
   154    28    29    1
   155   134   135    1
   156   134   131    1
   157    40    39    1
   158    40    43    1
   159   194   191    1
   160   139   140   ar
   161   145   142    1
   162   135   136   ar
   163    33    32    2
   164   133   132    2
   165   130   131    1
   166   140   138   ar
   167   176   177   ar
   168   176   178   ar
   169   131   132    1
   170    44    43    1
   171    44    45    1
   172    44    46    1
   173    32    31    1
   174   136   138   ar
   175   142   141    1
   176   142   143    1
   177   191   190    1
   178   191   192    1
   179   193   192    2
   180    35    36    1
   181    35    34    1
   182    38    36   ar
   183    36    37   ar
   184   143   144    2
   185    31    34    1
   186    31    30    1
