@<TRIPOS>MOLECULE
tmp/4at5A00.pdb
 210 200 0 0 0
SMALL
GASTEIGER

@<TRIPOS>ATOM
      1  N         -1.3560   28.4610  -19.5070 N.3    21  LEU21      -0.1245
      2  CA        -2.1080   27.2540  -19.1650 C.3    21  LEU21       0.1561
      3  C         -2.3140   26.3520  -20.3750 C.2    21  LEU21       0.2260
      4  O         -2.5300   25.1500  -20.2210 O.2    21  LEU21      -0.2867
      5  CB        -3.4740   27.6120  -18.5590 C.3    21  LEU21       0.0270
      6  CG        -3.4670   28.2380  -17.1570 C.3    21  LEU21       0.0019
      7  CD1       -4.8610   28.5800  -16.7240 C.3    21  LEU21       0.0001
      8  CD2       -2.8150   27.3010  -16.1090 C.3    21  LEU21       0.0001
      9  N         -4.0130   31.0790  -23.1530 N.3    29  VAL29      -0.1245
     10  CA        -4.7570   31.0970  -21.8850 C.3    29  VAL29       0.1561
     11  C         -3.6810   31.1450  -20.8040 C.2    29  VAL29       0.2260
     12  O         -2.7240   30.3610  -20.8630 O.2    29  VAL29      -0.2867
     13  CB        -5.7130   29.8890  -21.7110 C.3    29  VAL29       0.0252
     14  CG1       -6.5260   30.0120  -20.4120 C.3    29  VAL29       0.0019
     15  CG2       -6.6540   29.7780  -22.9130 C.3    29  VAL29       0.0019
     16  N         -7.9860   33.0090  -14.3500 N.3    42  ALA42      -0.1245
     17  CA        -7.5310   32.4720  -15.6250 C.3    42  ALA42       0.1562
     18  C         -7.9610   33.4930  -16.6670 C.2    42  ALA42       0.2260
     19  O         -9.1060   33.9600  -16.6400 O.2    42  ALA42      -0.2867
     20  CB        -8.1730   31.1280  -15.9210 C.3    42  ALA42       0.0290
     21  N         -8.1610   34.6110  -20.8500 N.3    44  LYS44      -0.1245
     22  CA        -8.0950   34.2350  -22.2540 C.3    44  LYS44       0.1561
     23  C         -7.6330   35.4920  -22.9920 C.2    44  LYS44       0.2260
     24  O         -8.1730   36.5810  -22.7610 O.2    44  LYS44      -0.2867
     25  CB        -9.4620   33.7740  -22.7820 C.3    44  LYS44       0.0271
     26  CG        -9.8510   32.4080  -22.2550 C.3    44  LYS44       0.0035
     27  CD       -11.0340   31.8670  -23.0350 C.3    44  LYS44       0.0206
     28  CE       -11.5870   30.5970  -22.4460 C.3    44  LYS44       0.1093
     29  NZ       -12.6280   30.0020  -23.3540 N.3    44  LYS44      -0.1314
     30  N        -21.2240   36.0470  -22.2260 N.3    64  LEU64      -0.1245
     31  CA       -20.7460   35.5310  -20.9260 C.3    64  LEU64       0.1561
     32  C        -21.1000   36.3740  -19.7270 C.2    64  LEU64       0.2260
     33  O        -21.3390   35.8340  -18.6430 O.2    64  LEU64      -0.2867
     34  CB       -19.2320   35.2860  -20.9660 C.3    64  LEU64       0.0270
     35  CG       -18.7500   34.2710  -22.0170 C.3    64  LEU64       0.0019
     36  CD1      -17.2190   34.3260  -22.1710 C.3    64  LEU64       0.0001
     37  CD2      -19.2340   32.8550  -21.6920 C.3    64  LEU64       0.0001
     38  N        -24.2710   35.1580  -18.1770 N.3    67  LEU67      -0.1245
     39  CA       -24.3500   33.7640  -17.7190 C.3    67  LEU67       0.1561
     40  C        -23.6670   33.6860  -16.3670 C.2    67  LEU67       0.2260
     41  O        -22.4420   33.5650  -16.2800 O.2    67  LEU67      -0.2867
     42  CB       -23.7040   32.8100  -18.7440 C.3    67  LEU67       0.0270
     43  CG       -24.3680   32.7440  -20.1190 C.3    67  LEU67       0.0019
     44  CD1      -23.5260   31.9180  -21.0930 C.3    67  LEU67       0.0001
     45  CD2      -25.8090   32.2070  -20.0320 C.3    67  LEU67       0.0001
     46  N        -21.7410   27.6750  -12.7810 N.3    72  ILE72      -0.1231
     47  CA       -21.1370   28.1440  -14.0170 C.3    72  ILE72       0.1692
     48  C        -19.8760   28.8890  -13.6190 C.2    72  ILE72       0.2591
     49  O        -19.9280   29.7380  -12.7320 O.2    72  ILE72      -0.2718
     50  CB       -22.1060   29.0260  -14.8630 C.3    72  ILE72       0.0266
     51  CG1      -23.3620   28.2170  -15.2950 C.3    72  ILE72       0.0019
     52  CG2      -21.3650   29.6200  -16.1100 C.3    72  ILE72       0.0020
     53  CD1      -23.0940   26.9400  -16.1680 C.3    72  ILE72       0.0001
     54  N        -18.7550   28.5710  -14.2720 N.am   73  VAL73      -0.1980
     55  CA       -17.4610   29.2170  -14.0160 C.3    73  VAL73       0.1595
     56  C        -17.5980   30.7280  -14.1630 C.2    73  VAL73       0.2287
     57  O        -18.1580   31.2060  -15.1420 O.2    73  VAL73      -0.2864
     58  CB       -16.4020   28.6430  -14.9720 C.3    73  VAL73       0.0276
     59  CG1      -15.1030   29.4570  -14.9110 C.3    73  VAL73       0.0022
     60  CG2      -16.1510   27.1710  -14.6470 C.3    73  VAL73       0.0022
     61  N        -17.3060   34.4690  -14.9230 N.3    75  PHE75      -0.1241
     62  CA       -16.7380   35.4210  -15.8920 C.3    75  PHE75       0.1605
     63  C        -16.7450   36.7650  -15.1470 C.2    75  PHE75       0.2264
     64  O        -17.8130   37.2370  -14.7280 O.2    75  PHE75      -0.2867
     65  CB       -17.5690   35.4780  -17.1730 C.3    75  PHE75       0.0534
     66  CG       -17.2120   36.6290  -18.0870 C.ar   75  PHE75      -0.0203
     67  CD1      -16.0080   36.6410  -18.7820 C.ar   75  PHE75      -0.0042
     68  CD2      -18.0420   37.7360  -18.1890 C.ar   75  PHE75      -0.0042
     69  CE1      -15.6600   37.7320  -19.5970 C.ar   75  PHE75      -0.0003
     70  CE2      -17.6990   38.8200  -19.0050 C.ar   75  PHE75      -0.0003
     71  CZ       -16.5210   38.7980  -19.7190 C.ar   75  PHE75      -0.0000
     72  N        -11.5590   35.1250  -15.9700 N.3    89  PHE89      -0.1227
     73  CA       -12.4100   34.0980  -15.3400 C.3    89  PHE89       0.1736
     74  C        -11.8560   33.6770  -13.9860 C.2    89  PHE89       0.2595
     75  O        -10.6640   33.8470  -13.7450 O.2    89  PHE89      -0.2718
     76  CB       -12.4560   32.8480  -16.2520 C.3    89  PHE89       0.0547
     77  CG       -13.0300   33.1070  -17.6210 C.ar   89  PHE89      -0.0202
     78  CD1      -14.4060   33.0910  -17.8300 C.ar   89  PHE89      -0.0042
     79  CD2      -12.1960   33.3680  -18.7040 C.ar   89  PHE89      -0.0042
     80  CE1      -14.9380   33.2920  -19.1230 C.ar   89  PHE89      -0.0003
     81  CE2      -12.7260   33.5920  -19.9820 C.ar   89  PHE89      -0.0003
     82  CZ       -14.0890   33.5470  -20.1870 C.ar   89  PHE89      -0.0000
     83  N        -12.6840   33.0530  -13.1190 N.am   90  GLU90      -0.1965
     84  CA       -12.1210   32.5680  -11.8510 C.3    90  GLU90       0.1733
     85  C        -11.1970   31.3840  -12.1190 C.2    90  GLU90       0.2616
     86  O        -11.4080   30.6540  -13.1000 O.2    90  GLU90      -0.2715
     87  CB       -13.2110   32.2070  -10.8300 C.3    90  GLU90       0.0429
     88  CG       -14.0210   30.9920  -11.2370 C.3    90  GLU90       0.1163
     89  CD       -15.0550   30.5670  -10.2180 C.2    90  GLU90       0.3649
     90  OE1      -14.7130   30.3760   -9.0260 O.co2  90  GLU90      -0.2457
     91  OE2      -16.2150   30.3830  -10.6400 O.co2  90  GLU90      -0.2457
     92  N        -10.1400   31.2490  -11.2920 N.am   91  TYR91      -0.1960
     93  CA        -9.2130   30.1130  -11.3640 C.3    91  TYR91       0.1771
     94  C         -9.6020   29.2020  -10.2060 C.2    91  TYR91       0.2619
     95  O         -9.4350   29.5840   -9.0360 O.2    91  TYR91      -0.2715
     96  CB        -7.7540   30.5750  -11.2570 C.3    91  TYR91       0.0574
     97  CG        -6.7640   29.4340  -11.3710 C.ar   91  TYR91      -0.0198
     98  CD1       -6.4660   28.8650  -12.6060 C.ar   91  TYR91      -0.0009
     99  CD2       -6.1420   28.9090  -10.2410 C.ar   91  TYR91      -0.0009
    100  CE1       -5.5410   27.8230  -12.7170 C.ar   91  TYR91       0.0417
    101  CE2       -5.2280   27.8620  -10.3410 C.ar   91  TYR91       0.0417
    102  CZ        -4.9220   27.3310  -11.5810 C.ar   91  TYR91       0.1957
    103  OH        -4.0120   26.2970  -11.6710 O.3    91  TYR91      -0.2866
    104  N        -10.2060   28.0240  -10.5190 N.am   92  MET92      -0.1977
    105  CA       -10.7100   27.1590   -9.4520 C.3    92  MET92       0.1605
    106  C         -9.6140   26.3890   -8.7620 C.2    92  MET92       0.2287
    107  O         -8.6650   25.9620   -9.4040 O.2    92  MET92      -0.2864
    108  CB       -11.9060   26.3120   -9.8870 C.3    92  MET92       0.0413
    109  CG       -13.0730   27.2120  -10.2960 C.3    92  MET92       0.0598
    110  SD       -14.6730   26.4460  -10.2450 S.3    92  MET92      -0.1393
    111  CE       -14.9440   26.3570   -8.4480 C.3    92  MET92       0.0692
    112  N         -8.7040   22.4880  -10.0010 N.3    95  GLY95      -0.1210
    113  CA        -8.5060   22.1970  -11.4120 C.3    95  GLY95       0.1956
    114  C         -9.6460   21.4980  -12.1160 C.2    95  GLY95       0.2611
    115  O        -10.7650   21.4230  -11.5990 O.2    95  GLY95      -0.2717
    116  N         -9.3580   20.9780  -13.3180 N.am   96  ASP96      -0.1973
    117  CA       -10.4200   20.3660  -14.0980 C.3    96  ASP96       0.1709
    118  C        -10.9160   19.0340  -13.5730 C.2    96  ASP96       0.2293
    119  O        -10.1490   18.2460  -12.9920 O.2    96  ASP96      -0.2864
    120  CB       -10.1420   20.3910  -15.5970 C.3    96  ASP96       0.1436
    121  CG        -9.2940   19.2440  -16.0820 C.2    96  ASP96       0.3671
    122  OD1       -9.7810   18.1000  -16.0540 O.co2  96  ASP96      -0.2456
    123  OD2       -8.2100   19.5040  -16.6180 O.co2  96  ASP96      -0.2456
    124  N        -28.1440   26.9210  -18.0520 N.3   139  LEU139     -0.1245
    125  CA       -27.7920   27.2560  -19.4380 C.3   139  LEU139      0.1561
    126  C        -28.9620   27.0590  -20.3800 C.2   139  LEU139      0.2260
    127  O        -29.2050   27.9440  -21.2000 O.2   139  LEU139     -0.2867
    128  CB       -26.5910   26.4220  -19.9090 C.3   139  LEU139      0.0270
    129  CG       -25.2740   26.7420  -19.1710 C.3   139  LEU139      0.0019
    130  CD1      -24.1330   25.8520  -19.7160 C.3   139  LEU139      0.0001
    131  CD2      -24.8750   28.2280  -19.3220 C.3   139  LEU139      0.0001
    132  N        -28.7670   28.8700  -24.0290 N.3   144  PHE144     -0.1241
    133  CA       -27.3510   28.7470  -24.3510 C.3   144  PHE144      0.1605
    134  C        -27.0540   27.2840  -24.6840 C.2   144  PHE144      0.2264
    135  O        -27.3310   26.3950  -23.8620 O.2   144  PHE144     -0.2867
    136  CB       -26.4650   29.2130  -23.1890 C.3   144  PHE144      0.0534
    137  CG       -24.9810   29.0470  -23.4630 C.ar  144  PHE144     -0.0203
    138  CD1      -24.2660   30.0340  -24.1370 C.ar  144  PHE144     -0.0042
    139  CD2      -24.3040   27.9040  -23.0460 C.ar  144  PHE144     -0.0042
    140  CE1      -22.9000   29.8790  -24.3870 C.ar  144  PHE144     -0.0003
    141  CE2      -22.9460   27.7460  -23.3100 C.ar  144  PHE144     -0.0003
    142  CZ       -22.2570   28.7250  -23.9920 C.ar  144  PHE144     -0.0000
    143  N        -24.0140   24.6850  -25.2750 N.3   146  HIS146     -0.1241
    144  CA       -22.5980   24.5780  -24.9150 C.3   146  HIS146      0.1621
    145  C        -21.7350   24.0460  -26.0630 C.2   146  HIS146      0.2264
    146  O        -20.7640   24.7090  -26.4700 O.2   146  HIS146     -0.2867
    147  CB       -22.4530   23.7300  -23.6370 C.3   146  HIS146      0.0745
    148  CG       -21.0780   23.7820  -23.0510 C.ar  146  HIS146      0.0817
    149  ND1      -19.9940   23.2990  -23.7420 N.ar  146  HIS146     -0.2268
    150  CD2      -20.6540   24.3110  -21.8750 C.ar  146  HIS146      0.1154
    151  CE1      -18.9450   23.4970  -22.9550 C.ar  146  HIS146      0.1986
    152  NE2      -19.2930   24.0930  -21.8170 N.ar  146  HIS146     -0.2212
    153  N        -13.5400   17.5070  -18.7140 N.3   152  ARG152     -0.1231
    154  CA       -12.3860   18.4130  -18.8310 C.3   152  ARG152      0.1694
    155  C        -12.8300   19.8900  -18.8580 C.2   152  ARG152      0.2592
    156  O        -12.0130   20.7860  -18.5790 O.2   152  ARG152     -0.2718
    157  CB       -11.5560   18.0700  -20.0600 C.3   152  ARG152      0.0321
    158  CG       -12.3290   18.1560  -21.3710 C.3   152  ARG152      0.0489
    159  CD       -11.4360   18.0370  -22.5830 C.3   152  ARG152      0.2205
    160  NE       -12.2340   17.5560  -23.7020 N.pl3 152  ARG152     -0.0865
    161  CZ       -13.1890   18.2430  -24.3040 C.cat 152  ARG152      0.5346
    162  NH1      -13.4120   19.5210  -23.9770 N.pl3 152  ARG152      0.1354
    163  NH2      -13.9310   17.6700  -25.2390 N.pl3 152  ARG152      0.1354
    164  N        -14.1260   20.1470  -19.2040 N.am  153  ASN153     -0.1974
    165  CA       -14.6830   21.4970  -19.2310 C.3   153  ASN153      0.1688
    166  C        -15.3940   21.8820  -17.9400 C.2   153  ASN153      0.2292
    167  O        -16.0290   22.9390  -17.8750 O.2   153  ASN153     -0.2864
    168  CB       -15.5450   21.7640  -20.4900 C.3   153  ASN153      0.1181
    169  CG       -14.7200   22.3190  -21.6210 C.2   153  ASN153      0.2629
    170  OD1      -13.6400   22.9030  -21.4260 O.2   153  ASN153     -0.2716
    171  ND2      -15.1670   22.0910  -22.8390 N.am  153  ASN153     -0.0877
    172  N        -14.8420   22.4170  -13.6350 N.3   155  LEU155     -0.1245
    173  CA       -13.7890   22.7230  -12.6710 C.3   155  LEU155      0.1561
    174  C        -14.2510   22.3740  -11.2640 C.2   155  LEU155      0.2260
    175  O        -15.4470   22.4100  -10.9760 O.2   155  LEU155     -0.2867
    176  CB       -13.3770   24.1990  -12.7600 C.3   155  LEU155      0.0270
    177  CG       -12.8360   24.6580  -14.1270 C.3   155  LEU155      0.0019
    178  CD1      -12.6220   26.1640  -14.1350 C.3   155  LEU155      0.0001
    179  CD2      -11.5110   23.9280  -14.4660 C.3   155  LEU155      0.0001
    180  N        -19.4020   24.4350  -14.4720 N.3   164  ILE164     -0.1231
    181  CA       -19.1990   24.2070  -15.8970 C.3   164  ILE164      0.1692
    182  C        -18.6070   25.4430  -16.5520 C.2   164  ILE164      0.2593
    183  O        -19.0970   26.5580  -16.3420 O.2   164  ILE164     -0.2718
    184  CB       -20.5330   23.8510  -16.5980 C.3   164  ILE164      0.0266
    185  CG1      -21.2970   22.6850  -15.8780 C.3   164  ILE164      0.0019
    186  CG2      -20.3110   23.5820  -18.1000 C.3   164  ILE164      0.0020
    187  CD1      -22.7640   22.5820  -16.4000 C.3   164  ILE164      0.0001
    188  N        -17.5650   25.2270  -17.3430 N.am  165  GLY165     -0.1942
    189  CA       -16.9690   26.2960  -18.1370 C.3   165  GLY165      0.2014
    190  C        -16.7010   25.8000  -19.5440 C.2   165  GLY165      0.2639
    191  O        -17.3140   24.8380  -20.0100 O.2   165  GLY165     -0.2714
    192  N        -15.7510   26.4460  -20.2160 N.am  166  ASP166     -0.1957
    193  CA       -15.2850   25.9850  -21.5270 C.3   166  ASP166      0.1840
    194  C        -13.9170   26.5730  -21.7070 C.2   166  ASP166      0.2622
    195  O        -13.7790   27.7770  -21.8950 O.2   166  ASP166     -0.2715
    196  CB       -16.2420   26.3700  -22.6930 C.3   166  ASP166      0.1450
    197  CG       -15.9030   25.7070  -24.0260 C.2   166  ASP166      0.3671
    198  OD1      -14.8460   25.0250  -24.1150 O.co2 166  ASP166     -0.2456
    199  OD2      -16.7100   25.8230  -24.9620 O.co2 166  ASP166     -0.2456
    200  N        -12.8920   25.7350  -21.5910 N.am  167  PHE167     -0.1974
    201  CA       -11.5150   26.2040  -21.7540 C.3   167  PHE167      0.1639
    202  C        -11.3630   26.7330  -23.1850 C.2   167  PHE167      0.2290
    203  O        -10.5770   27.6570  -23.4290 O.2   167  PHE167     -0.2864
    204  CB       -10.5470   25.0250  -21.5130 C.3   167  PHE167      0.0560
    205  CG        -9.0880   25.4170  -21.4570 C.ar  167  PHE167     -0.0200
    206  CD1       -8.3670   25.6660  -22.6260 C.ar  167  PHE167     -0.0042
    207  CD2       -8.4100   25.4590  -20.2430 C.ar  167  PHE167     -0.0042
    208  CE1       -7.0170   26.0320  -22.5750 C.ar  167  PHE167     -0.0003
    209  CE2       -7.0500   25.7910  -20.1970 C.ar  167  PHE167     -0.0003
    210  CZ        -6.3600   26.0580  -21.3680 C.ar  167  PHE167     -0.0000
@<TRIPOS>BOND
     1   146   145    2
     2   145   144    1
     3   143   144    1
     4   163   161    1
     5   199   197   ar
     6   144   147    1
     7   134   133    1
     8   134   135    2
     9   140   138   ar
    10   140   142   ar
    11   133   132    1
    12   133   136    1
    13   161   162    1
    14   161   160    2
    15   138   137   ar
    16   198   197   ar
    17   197   196    1
    18   142   141   ar
    19   149   148   ar
    20   149   151   ar
    21   160   159    1
    22   147   148    1
    23   137   136    1
    24   137   139   ar
    25   203   202    2
    26    29    28    1
    27   141   139   ar
    28   202   201    1
    29     9    10    1
    30   148   150   ar
    31    27    28    1
    32    27    26    1
    33    23    24    2
    34    23    22    1
    35   151   152   ar
    36    15    13    1
    37   171   169   am
    38    25    26    1
    39    25    22    1
    40   196   193    1
    41   206   208   ar
    42   206   205   ar
    43   159   158    1
    44   208   210   ar
    45    22    21    1
    46    30    31    1
    47    36    35    1
    48    35    37    1
    49    35    34    1
    50   195   194    2
    51    10    13    1
    52    10    11    1
    53   150   152   ar
    54   201   200    1
    55   201   204    1
    56    13    14    1
    57   194   200   am
    58   194   193    1
    59   169   170    2
    60   169   168    1
    61   193   192    1
    62   204   205    1
    63   205   207   ar
    64   158   157    1
    65   210   209   ar
    66   127   126    2
    67    44    43    1
    68    34    31    1
    69    31    32    1
    70    12    11    2
    71   168   165    1
    72   126   125    1
    73     3     4    2
    74     3     2    1
    75   207   209   ar
    76   192   190   am
    77    82    81   ar
    78    82    80   ar
    79    43    45    1
    80    43    42    1
    81   157   154    1
    82   191   190    2
    83    81    79   ar
    84   128   125    1
    85   128   129    1
    86    32    33    2
    87    71    69   ar
    88    71    70   ar
    89   130   129    1
    90    69    67   ar
    91   190   189    1
    92     1     2    1
    93   125   124    1
    94   131   129    1
    95   165   164    1
    96   165   166    1
    97   164   155   am
    98     2     5    1
    99    80    78   ar
   100    70    68   ar
   101   155   154    1
   102   155   156    2
   103   154   153    1
   104    67    66   ar
   105    42    39    1
   106    79    77   ar
   107     5     6    1
   108    68    66   ar
   109    38    39    1
   110   189   188    1
   111   186   184    1
   112    66    65    1
   113   166   167    2
   114    78    77   ar
   115    39    40    1
   116    77    76    1
   117   188   182   am
   118    65    62    1
   119     6     7    1
   120     6     8    1
   121    18    19    2
   122    18    17    1
   123   123   121   ar
   124   184   181    1
   125   184   185    1
   126   182   183    2
   127   182   181    1
   128   187   185    1
   129    40    41    2
   130    76    73    1
   131    53    51    1
   132    52    50    1
   133   121   122   ar
   134   121   120    1
   135    72    73    1
   136    20    17    1
   137   181   180    1
   138    62    63    1
   139    62    61    1
   140    17    16    1
   141   120   117    1
   142    73    74    1
   143    51    50    1
   144    63    64    2
   145    57    56    2
   146    58    59    1
   147    58    60    1
   148    58    55    1
   149    50    47    1
   150   179   177    1
   151    54    55    1
   152    54    48   am
   153    56    55    1
   154   178   177    1
   155   177   176    1
   156   117   118    1
   157   117   116    1
   158    47    48    1
   159    47    46    1
   160    74    75    2
   161    74    83   am
   162   172   173    1
   163    48    49    2
   164   118   119    2
   165   116   114   am
   166    83    84    1
   167    86    85    2
   168   176   173    1
   169   100    98   ar
   170   100   102   ar
   171   173   174    1
   172    98    97   ar
   173    85    84    1
   174    85    92   am
   175   114   115    2
   176   114   113    1
   177    84    87    1
   178   103   102    1
   179   102   101   ar
   180   113   112    1
   181    97    96    1
   182    97    99   ar
   183    93    92    1
   184    93    96    1
   185    93    94    1
   186   174   175    2
   187    88    87    1
   188    88    89    1
   189    91    89   ar
   190   104    94   am
   191   104   105    1
   192   101    99   ar
   193   109   110    1
   194   109   108    1
   195   110   111    1
   196    89    90   ar
   197    94    95    2
   198   108   105    1
   199   105   106    1
   200   107   106    2
