@<TRIPOS>MOLECULE
tmp/4at7A02.pdb
 89 88 0 0 0
SMALL
GASTEIGER

@<TRIPOS>ATOM
      1  N         23.7010   26.6900   16.4100 N.3   255  PRO255     -0.2102
      2  CA        23.3930   25.4320   15.7280 C.3   255  PRO255      0.1504
      3  C         23.5650   25.5700   14.2140 C.2   255  PRO255      0.2576
      4  O         23.2570   26.6190   13.6510 O.2   255  PRO255     -0.2718
      5  CB        21.9170   25.2150   16.0750 C.3   255  PRO255      0.0282
      6  CG        21.7800   25.8280   17.4360 C.3   255  PRO255      0.0208
      7  CD        22.6960   27.0330   17.4390 C.3   255  PRO255      0.0893
      8  N         24.0780   24.5230   13.5760 N.am  256  GLY256     -0.1957
      9  CA        24.3200   24.5330   12.1510 C.3   256  GLY256      0.1869
     10  C         25.7370   24.9520   11.7890 C.2   256  GLY256      0.2309
     11  O         26.2460   24.6230   10.7230 O.2   256  GLY256     -0.2863
     12  N         35.8980   18.1840   16.6950 N.3   269  PHE269     -0.1227
     13  CA        35.0180   18.6040   17.7680 C.3   269  PHE269      0.1736
     14  C         34.7710   20.1010   17.7240 C.2   269  PHE269      0.2595
     15  O         35.7090   20.8940   17.7630 O.2   269  PHE269     -0.2718
     16  CB        35.6060   18.2250   19.1360 C.3   269  PHE269      0.0547
     17  CG        34.7240   18.6040   20.2900 C.ar  269  PHE269     -0.0202
     18  CD1       33.5270   17.9500   20.5020 C.ar  269  PHE269     -0.0042
     19  CD2       35.0850   19.6290   21.1540 C.ar  269  PHE269     -0.0042
     20  CE1       32.6950   18.3010   21.5620 C.ar  269  PHE269     -0.0003
     21  CE2       34.2620   19.9870   22.2150 C.ar  269  PHE269     -0.0003
     22  CZ        33.0720   19.3200   22.4200 C.ar  269  PHE269     -0.0000
     23  N         33.4980   20.4860   17.6580 N.am  270  ARG270     -0.1980
     24  CA        33.1230   21.8920   17.6260 C.3   270  ARG270      0.1597
     25  C         33.1040   22.4070   19.0520 C.2   270  ARG270      0.2287
     26  O         32.2480   22.0090   19.8460 O.2   270  ARG270     -0.2864
     27  CB        31.7440   22.0580   16.9780 C.3   270  ARG270      0.0334
     28  CG        31.6890   21.6010   15.5140 C.3   270  ARG270      0.0492
     29  CD        30.3180   21.8920   14.9000 C.3   270  ARG270      0.2205
     30  NE        29.2550   21.1070   15.5140 N.pl3 270  ARG270     -0.0865
     31  CZ        28.0040   21.5310   15.6840 C.cat 270  ARG270      0.5346
     32  NH1       27.6410   22.7510   15.2950 N.pl3 270  ARG270      0.1354
     33  NH2       27.1100   20.7370   16.2530 N.pl3 270  ARG270      0.1354
     34  N         32.2220   24.9940   20.6320 N.3   272  HIS272     -0.1226
     35  CA        31.0970   25.7120   21.2250 C.3   272  HIS272      0.1752
     36  C         29.9860   24.7690   21.6740 C.2   272  HIS272      0.2597
     37  O         29.1000   25.1680   22.4150 O.2   272  HIS272     -0.2718
     38  CB        30.5450   26.7590   20.2560 C.3   272  HIS272      0.0759
     39  CG        29.7620   26.1730   19.1130 C.ar  272  HIS272      0.0818
     40  ND1       30.3430   25.8570   17.9170 N.ar  272  HIS272     -0.2268
     41  CD2       28.4430   25.8930   19.0040 C.ar  272  HIS272      0.1154
     42  CE1       29.4090   25.3790   17.0930 C.ar  272  HIS272      0.1986
     43  NE2       28.2610   25.3950   17.7250 N.ar  272  HIS272     -0.2212
     44  N         30.0430   23.5100   21.2430 N.am  273  THR273     -0.1939
     45  CA        28.9930   22.5720   21.6200 C.3   273  THR273      0.2028
     46  C         29.0340   22.1910   23.0910 C.2   273  THR273      0.2642
     47  O         28.1710   21.4480   23.5650 O.2   273  THR273     -0.2714
     48  CB        28.9860   21.2830   20.7670 C.3   273  THR273      0.1808
     49  OG1       30.2360   20.5980   20.9090 O.3   273  THR273     -0.2208
     50  CG2       28.7510   21.6130   19.3060 C.3   273  THR273      0.0379
     51  N         30.0120   22.6910   23.8340 N.am  274  VAL274     -0.1963
     52  CA        29.9510   22.4850   25.2770 C.3   274  VAL274      0.1727
     53  C         28.8640   23.3650   25.8740 C.2   274  VAL274      0.2616
     54  O         28.4150   23.1350   26.9880 O.2   274  VAL274     -0.2715
     55  CB        31.2840   22.7450   25.9610 C.3   274  VAL274      0.0290
     56  CG1       32.3540   21.8590   25.3410 C.3   274  VAL274      0.0023
     57  CG2       31.6620   24.2220   25.8740 C.3   274  VAL274      0.0023
     58  N         28.4380   24.3660   25.1120 N.am  275  MET275     -0.1963
     59  CA        27.3580   25.2430   25.5510 C.3   275  MET275      0.1736
     60  C         26.0060   24.6540   25.2090 C.2   275  MET275      0.2617
     61  O         25.8580   23.9920   24.1930 O.2   275  MET275     -0.2715
     62  CB        27.4890   26.6330   24.9140 C.3   275  MET275      0.0427
     63  CG        28.7430   27.3690   25.3480 C.3   275  MET275      0.0599
     64  SD        28.7760   29.0720   24.7590 S.3   275  MET275     -0.1393
     65  CE        28.8420   28.8100   22.9770 C.3   275  MET275      0.0692
     66  N         25.0200   24.8930   26.0590 N.am  276  THR276     -0.1937
     67  CA        23.6730   24.4600   25.7490 C.3   276  THR276      0.2028
     68  C         23.1570   25.3500   24.6110 C.2   276  THR276      0.2642
     69  O         23.7070   26.4210   24.3630 O.2   276  THR276     -0.2714
     70  CB        22.7680   24.5810   26.9770 C.3   276  THR276      0.1808
     71  OG1       22.5500   25.9640   27.2800 O.3   276  THR276     -0.2208
     72  CG2       23.4330   23.9140   28.1970 C.3   276  THR276      0.0379
     73  N         22.1080   24.9090   23.9270 N.am  277  LEU277     -0.1977
     74  CA        21.4470   25.7310   22.9170 C.3   277  LEU277      0.1596
     75  C         21.0430   27.0810   23.4880 C.2   277  LEU277      0.2287
     76  O         21.2640   28.1180   22.8800 O.2   277  LEU277     -0.2864
     77  CB        20.2120   25.0190   22.3630 C.3   277  LEU277      0.0297
     78  CG        20.4900   23.6880   21.6590 C.3   277  LEU277      0.0022
     79  CD1       19.1820   22.9880   21.2740 C.3   277  LEU277      0.0001
     80  CD2       21.3800   23.8980   20.4400 C.3   277  LEU277      0.0001
     81  N         23.9940   29.1260   23.7750 N.3   280  GLN280     -0.1245
     82  CA        24.4600   29.5740   22.4540 C.3   280  GLN280      0.1566
     83  C         23.6880   30.8080   22.0070 C.2   280  GLN280      0.2260
     84  O         24.2710   31.7760   21.5150 O.2   280  GLN280     -0.2867
     85  CB        24.3540   28.4400   21.4270 C.3   280  GLN280      0.0367
     86  CG        25.3390   27.3200   21.7320 C.3   280  GLN280      0.0905
     87  CD        25.1310   26.0970   20.8830 C.2   280  GLN280      0.2608
     88  OE1       24.6580   26.1810   19.7430 O.2   280  GLN280     -0.2717
     89  NE2       25.4740   24.9400   21.4350 N.am  280  GLN280     -0.0878
@<TRIPOS>BOND
     1    11    10    2
     2    10     9    1
     3     9     8    1
     4     8     3   am
     5     4     3    2
     6     3     2    1
     7    29    28    1
     8    29    30    1
     9    32    31    1
    10    28    27    1
    11    30    31    2
    12    31    33    1
    13     2     5    1
    14     2     1    1
    15     5     6    1
    16     1     7    1
    17    12    13    1
    18    27    24    1
    19    42    43   ar
    20    42    40   ar
    21     6     7    1
    22    24    23    1
    23    24    25    1
    24    23    14   am
    25    14    15    2
    26    14    13    1
    27    43    41   ar
    28    13    16    1
    29    40    39   ar
    30    41    39   ar
    31    25    26    2
    32    39    38    1
    33    16    17    1
    34    50    48    1
    35    88    87    2
    36    38    35    1
    37    17    18   ar
    38    17    19   ar
    39    80    78    1
    40    18    20   ar
    41    34    35    1
    42    48    49    1
    43    48    45    1
    44    87    89   am
    45    87    86    1
    46    19    21   ar
    47    35    36    1
    48    44    45    1
    49    44    36   am
    50    79    78    1
    51    85    86    1
    52    85    82    1
    53    84    83    2
    54    20    22   ar
    55    45    46    1
    56    78    77    1
    57    36    37    2
    58    83    82    1
    59    21    22   ar
    60    77    74    1
    61    82    81    1
    62    76    75    2
    63    74    75    1
    64    74    73    1
    65    65    64    1
    66    46    47    2
    67    46    51   am
    68    51    52    1
    69    73    68   am
    70    61    60    2
    71    69    68    2
    72    68    67    1
    73    64    63    1
    74    62    63    1
    75    62    59    1
    76    58    59    1
    77    58    53   am
    78    60    59    1
    79    60    66   am
    80    52    53    1
    81    52    55    1
    82    56    55    1
    83    67    66    1
    84    67    70    1
    85    57    55    1
    86    53    54    2
    87    70    71    1
    88    70    72    1
