@<TRIPOS>MOLECULE
tmp/4at7A03.pdb
 103 99 0 0 0
SMALL
GASTEIGER

@<TRIPOS>ATOM
      1  N         61.4680   21.8840   42.5980 N.3    57  VAL57      -0.1245
      2  CA        61.2530   20.7520   43.4950 C.3    57  VAL57       0.1561
      3  C         60.6970   19.5520   42.7390 C.2    57  VAL57       0.2260
      4  O         61.2020   18.4390   42.8720 O.2    57  VAL57      -0.2867
      5  CB        60.3080   21.1210   44.6560 C.3    57  VAL57       0.0252
      6  CG1       59.7840   19.8640   45.3280 C.3    57  VAL57       0.0019
      7  CG2       61.0360   22.0140   45.6520 C.3    57  VAL57       0.0019
      8  N         63.1730   17.8540   40.3980 N.3    60  ASN60      -0.1225
      9  CA        64.0640   17.0260   41.2080 C.3    60  ASN60       0.1785
     10  C         63.4240   15.6990   41.6020 C.2    60  ASN60       0.2597
     11  O         64.0720   14.6540   41.5730 O.2    60  ASN60      -0.2718
     12  CB        64.5060   17.7710   42.4740 C.3    60  ASN60       0.1169
     13  CG        65.5000   18.8820   42.1900 C.2    60  ASN60       0.2627
     14  OD1       66.0210   18.9940   41.0850 O.2    60  ASN60      -0.2716
     15  ND2       65.7770   19.7030   43.1990 N.am   60  ASN60      -0.0877
     16  N         62.1510   15.7450   41.9880 N.am   61  LEU61      -0.1980
     17  CA        61.4300   14.5290   42.3480 C.3    61  LEU61       0.1596
     18  C         61.3680   13.5890   41.1510 C.2    61  LEU61       0.2287
     19  O         61.3480   12.3680   41.3050 O.2    61  LEU61      -0.2864
     20  CB        60.0190   14.8410   42.8540 C.3    61  LEU61       0.0297
     21  CG        59.9250   15.5250   44.2200 C.3    61  LEU61       0.0022
     22  CD1       58.4830   15.8150   44.6160 C.3    61  LEU61       0.0001
     23  CD2       60.6150   14.6700   45.2760 C.3    61  LEU61       0.0001
     24  N         65.1690   12.2910   40.9000 N.3    64  ALA64      -0.1231
     25  CA        65.6530   11.6500   42.1230 C.3    64  ALA64       0.1679
     26  C         64.5810   11.5020   43.1900 C.2    64  ALA64       0.2434
     27  O         64.6560   12.1470   44.2380 O.2    64  ALA64      -0.2733
     28  CB        66.8220   12.4250   42.6780 C.3    64  ALA64       0.0304
     29  N         63.5840   10.6370   42.9340 N.am   65  PRO65      -0.2718
     30  CA        62.4920   10.3880   43.8870 C.3    65  PRO65       0.1535
     31  C         62.9940    9.6940   45.1450 C.2    65  PRO65       0.2599
     32  O         62.4510    9.9030   46.2340 O.2    65  PRO65      -0.2715
     33  CB        61.5580    9.4550   43.1160 C.3    65  PRO65       0.0310
     34  CG        62.4110    8.8260   42.0770 C.3    65  PRO65       0.0237
     35  CD        63.4340    9.8510   41.6970 C.3    65  PRO65       0.0939
     36  N         64.0270    8.8720   44.9900 N.am   66  GLY66      -0.1941
     37  CA        64.5440    8.0860   46.1000 C.3    66  GLY66       0.2014
     38  C         63.4390    7.2370   46.7180 C.2    66  GLY66       0.2640
     39  O         62.8140    6.4210   46.0420 O.2    66  GLY66      -0.2714
     40  N         63.1930    7.4480   48.0040 N.am   67  THR67      -0.1936
     41  CA        62.2250    6.6460   48.7510 C.3    67  THR67       0.2028
     42  C         60.7740    7.0270   48.4440 C.2    67  THR67       0.2642
     43  O         59.8670    6.2070   48.5860 O.2    67  THR67      -0.2714
     44  CB        62.4740    6.7790   50.2740 C.3    67  THR67       0.1808
     45  OG1       63.8250    6.4070   50.5730 O.3    67  THR67      -0.2208
     46  CG2       61.5230    5.8920   51.0580 C.3    67  THR67       0.0379
     47  N         60.5670    8.2680   48.0100 N.am   68  PHE68      -0.1959
     48  CA        59.2170    8.8040   47.8600 C.3    68  PHE68       0.1771
     49  C         58.3510    7.9610   46.9250 C.2    68  PHE68       0.2619
     50  O         58.7260    7.6910   45.7860 O.2    68  PHE68      -0.2715
     51  CB        59.2490   10.2750   47.4180 C.3    68  PHE68       0.0574
     52  CG        57.9180   10.9600   47.5290 C.ar   68  PHE68      -0.0200
     53  CD1       57.2190   10.9400   48.7270 C.ar   68  PHE68      -0.0042
     54  CD2       57.3600   11.6170   46.4430 C.ar   68  PHE68      -0.0042
     55  CE1       55.9830   11.5600   48.8400 C.ar   68  PHE68      -0.0003
     56  CE2       56.1210   12.2410   46.5470 C.ar   68  PHE68      -0.0003
     57  CZ        55.4330   12.2120   47.7500 C.ar   68  PHE68      -0.0000
     58  N         57.1910    7.5520   47.4270 N.am   69  GLU69      -0.1977
     59  CA        56.3130    6.6140   46.7250 C.3    69  GLU69       0.1602
     60  C         55.6090    7.2150   45.5070 C.2    69  GLU69       0.2287
     61  O         55.3870    6.5290   44.5100 O.2    69  GLU69      -0.2864
     62  CB        55.2650    6.0410   47.6900 C.3    69  GLU69       0.0415
     63  CG        55.8300    5.1270   48.7760 C.3    69  GLU69       0.1163
     64  CD        56.4730    5.7980   49.9580 C.2    69  GLU69       0.3649
     65  OE1       56.5110    7.0610   50.0690 O.co2  69  GLU69      -0.2457
     66  OE2       56.9610    5.0300   50.8110 O.co2  69  GLU69      -0.2457
     67  N         52.1120   17.5430   50.4300 N.3   113  ASN113     -0.1225
     68  CA        52.9230   17.6840   51.6250 C.3   113  ASN113      0.1785
     69  C         54.4130   17.6100   51.3310 C.2   113  ASN113      0.2597
     70  O         55.2120   18.4020   51.8350 O.2   113  ASN113     -0.2718
     71  CB        52.5380   16.6260   52.6560 C.3   113  ASN113      0.1169
     72  CG        53.3630   16.7340   53.9060 C.2   113  ASN113      0.2627
     73  OD1       53.1900   17.6590   54.6960 O.2   113  ASN113     -0.2716
     74  ND2       54.2920   15.8100   54.0810 N.am  113  ASN113     -0.0877
     75  N         54.7930   16.6550   50.4970 N.am  114  LYS114     -0.1980
     76  CA        56.1840   16.4890   50.1180 C.3   114  LYS114      0.1596
     77  C         56.7630   17.7320   49.4480 C.2   114  LYS114      0.2287
     78  O         57.8630   18.1700   49.7690 O.2   114  LYS114     -0.2864
     79  CB        56.3230   15.2700   49.2050 C.3   114  LYS114      0.0298
     80  CG        57.6180   15.2290   48.4030 C.3   114  LYS114      0.0038
     81  CD        58.8410   15.4530   49.2590 C.3   114  LYS114      0.0206
     82  CE        59.2270   14.2000   50.0000 C.3   114  LYS114      0.1093
     83  NZ        60.6670   14.2180   50.3600 N.3   114  LYS114     -0.1314
     84  N         56.9310   20.7790   51.9050 N.3   117  GLU117     -0.1231
     85  CA        57.9440   20.5830   52.9450 C.3   117  GLU117      0.1699
     86  C         59.3380   20.7560   52.3630 C.2   117  GLU117      0.2592
     87  O         60.2480   21.2530   53.0370 O.2   117  GLU117     -0.2718
     88  CB        57.7840   19.2360   53.6580 C.3   117  GLU117      0.0402
     89  CG        56.6050   19.1800   54.6210 C.3   117  GLU117      0.1161
     90  CD        56.6530   20.2860   55.6800 C.2   117  GLU117      0.3649
     91  OE1       57.7480   20.5440   56.2380 O.co2 117  GLU117     -0.2457
     92  OE2       55.5980   20.8970   55.9540 O.co2 117  GLU117     -0.2457
     93  N         59.5180   20.3860   51.0980 N.am  118  SER118     -0.1952
     94  CA        60.8080   20.6280   50.4640 C.3   118  SER118      0.1924
     95  C         61.0850   22.1230   50.4440 C.2   118  SER118      0.2314
     96  O         62.1990   22.5670   50.7280 O.2   118  SER118     -0.2863
     97  CB        60.8390   20.0700   49.0390 C.3   118  SER118      0.2116
     98  OG        60.5260   18.6890   49.0330 O.3   118  SER118     -0.2180
     99  N         61.8760   23.3760   53.9110 N.3   121  ALA121     -0.1245
    100  CA        63.2260   22.9670   54.3050 C.3   121  ALA121      0.1562
    101  C         64.2940   23.8920   53.7140 C.2   121  ALA121      0.2260
    102  O         65.2750   24.2380   54.3850 O.2   121  ALA121     -0.2867
    103  CB        63.4940   21.5130   53.9170 C.3   121  ALA121      0.0290
@<TRIPOS>BOND
     1     8     9    1
     2    24    25    1
     3    14    13    2
     4    18    19    2
     5    18    17    1
     6     9    10    1
     7     9    12    1
     8    11    10    2
     9    10    16   am
    10    35    34    1
    11    35    29    1
    12    16    17    1
    13    34    33    1
    14    25    28    1
    15    25    26    1
    16    13    12    1
    17    13    15   am
    18    17    20    1
    19     1     2    1
    20     3     4    2
    21     3     2    1
    22    20    21    1
    23    29    26   am
    24    29    30    1
    25    33    30    1
    26    26    27    2
    27     2     5    1
    28    30    31    1
    29    21    22    1
    30    21    23    1
    31    61    60    2
    32     5     6    1
    33     5     7    1
    34    36    31   am
    35    36    37    1
    36    31    32    2
    37    60    59    1
    38    50    49    2
    39    39    38    2
    40    37    38    1
    41    54    56   ar
    42    54    52   ar
    43    56    57   ar
    44    38    40   am
    45    59    58    1
    46    59    62    1
    47    49    58   am
    48    49    48    1
    49    51    52    1
    50    51    48    1
    51    52    53   ar
    52    62    63    1
    53    57    55   ar
    54    48    47    1
    55    40    41    1
    56    47    42   am
    57    80    79    1
    58    80    81    1
    59    42    43    2
    60    42    41    1
    61    53    55   ar
    62    41    44    1
    63    63    64    1
    64    98    97    1
    65    97    94    1
    66    79    76    1
    67    81    82    1
    68    77    78    2
    69    77    76    1
    70    64    65   ar
    71    64    66   ar
    72    82    83    1
    73    76    75    1
    74    44    45    1
    75    44    46    1
    76    67    68    1
    77    95    94    1
    78    95    96    2
    79    94    93    1
    80    75    69   am
    81    93    86   am
    82    69    68    1
    83    69    70    2
    84    68    71    1
    85    84    85    1
    86    86    85    1
    87    86    87    2
    88    71    72    1
    89    85    88    1
    90    88    89    1
    91   101   100    1
    92   101   102    2
    93    72    74   am
    94    72    73    2
    95    99   100    1
    96   103   100    1
    97    89    90    1
    98    90    92   ar
    99    90    91   ar
