@<TRIPOS>MOLECULE
tmp/4at7A01.pdb
 82 79 0 0 0
SMALL
GASTEIGER

@<TRIPOS>ATOM
      1  N         51.1830   25.3030   32.4490 N.3    78  VAL78      -0.1231
      2  CA        50.0400   25.4220   31.5510 C.3    78  VAL78       0.1692
      3  C         49.2380   26.6570   31.8950 C.2    78  VAL78       0.2592
      4  O         49.6270   27.4380   32.7640 O.2    78  VAL78      -0.2718
      5  CB        49.1190   24.1780   31.6200 C.3    78  VAL78       0.0266
      6  CG1       49.9030   22.9180   31.3370 C.3    78  VAL78       0.0020
      7  CG2       48.4170   24.0810   32.9910 C.3    78  VAL78       0.0020
      8  N         48.1250   26.8480   31.2030 N.am   79  GLY79      -0.1957
      9  CA        47.1790   27.8740   31.5820 C.3    79  GLY79       0.1869
     10  C         47.6700   29.2810   31.3190 C.2    79  GLY79       0.2309
     11  O         48.6080   29.4880   30.5560 O.2    79  GLY79      -0.2863
     12  N         50.6130   30.8370   28.9740 N.3    83  LYS83      -0.1245
     13  CA        50.1900   31.4940   27.7290 C.3    83  LYS83       0.1561
     14  C         50.4700   32.9990   27.7250 C.2    83  LYS83       0.2260
     15  O         50.4750   33.6390   26.6700 O.2    83  LYS83      -0.2867
     16  CB        48.7030   31.2510   27.4950 C.3    83  LYS83       0.0271
     17  CG        48.3370   29.7930   27.3240 C.3    83  LYS83       0.0035
     18  CD        46.8150   29.6170   27.4850 C.3    83  LYS83       0.0206
     19  CE        46.3680   28.1640   27.3530 C.3    83  LYS83       0.1093
     20  NZ        44.9400   28.0190   27.8160 N.3    83  LYS83      -0.1314
     21  N         49.1850   27.5660   36.9480 N.3    94  ASP94      -0.1239
     22  CA        48.8670   26.1440   36.9790 C.3    94  ASP94       0.1674
     23  C         50.0540   25.3280   36.5070 C.2    94  ASP94       0.2266
     24  O         50.6920   25.6780   35.5110 O.2    94  ASP94      -0.2867
     25  CB        47.7020   25.8130   36.0290 C.3    94  ASP94       0.1410
     26  CG        46.3690   26.3490   36.5000 C.2    94  ASP94       0.3668
     27  OD1       46.2500   26.7860   37.6620 O.co2  94  ASP94      -0.2456
     28  OD2       45.4110   26.3110   35.6920 O.co2  94  ASP94      -0.2456
     29  N         41.0360   16.8090   32.0670 N.3   173  SER173     -0.1217
     30  CA        41.1360   18.2460   31.8610 C.3   173  SER173      0.1889
     31  C         42.5830   18.7080   32.0570 C.2   173  SER173      0.2288
     32  O         43.0570   19.5890   31.3440 O.2   173  SER173     -0.2866
     33  CB        40.1760   19.0160   32.7670 C.3   173  SER173      0.2089
     34  OG        40.5440   18.8890   34.1240 O.3   173  SER173     -0.2183
     35  N         44.2370   17.9240   28.9590 N.3   176  ALA176     -0.1231
     36  CA        43.8510   18.8780   27.9230 C.3   176  ALA176      0.1694
     37  C         44.6000   20.1950   28.0840 C.2   176  ALA176      0.2591
     38  O         44.9940   20.8190   27.1000 O.2   176  ALA176     -0.2718
     39  CB        42.3580   19.1080   27.9260 C.3   176  ALA176      0.0304
     40  N         44.7990   20.6160   29.3300 N.am  177  ALA177     -0.1980
     41  CA        45.5500   21.8390   29.5850 C.3   177  ALA177      0.1597
     42  C         46.9750   21.7790   29.0250 C.2   177  ALA177      0.2287
     43  O         47.4650   22.7840   28.5430 O.2   177  ALA177     -0.2864
     44  CB        45.5710   22.1710   31.0550 C.3   177  ALA177      0.0319
     45  N         46.5110   22.2150   25.2770 N.3   180  HIS180     -0.1241
     46  CA        46.2010   23.6170   25.0060 C.3   180  HIS180      0.1621
     47  C         47.4250   24.4960   25.0840 C.2   180  HIS180      0.2264
     48  O         47.6200   25.3780   24.2490 O.2   180  HIS180     -0.2867
     49  CB        45.1310   24.1450   25.9690 C.3   180  HIS180      0.0745
     50  CG        43.8300   23.4040   25.8910 C.ar  180  HIS180      0.0817
     51  ND1       42.8120   23.6020   26.7910 N.ar  180  HIS180     -0.2268
     52  CD2       43.3920   22.4780   25.0120 C.ar  180  HIS180      0.1154
     53  CE1       41.7890   22.8210   26.4730 C.ar  180  HIS180      0.1986
     54  NE2       42.1180   22.1360   25.3970 N.ar  180  HIS180     -0.2212
     55  N         34.0690   29.4760   27.7190 N.3   214  THR214     -0.1204
     56  CA        35.1260   28.9630   28.5890 C.3   214  THR214      0.1979
     57  C         36.4950   29.5510   28.2370 C.2   214  THR214      0.2460
     58  O         36.6710   30.1390   27.1820 O.2   214  THR214     -0.2732
     59  CB        35.2250   27.4550   28.4500 C.3   214  THR214      0.1783
     60  OG1       35.5920   27.1330   27.1010 O.3   214  THR214     -0.2211
     61  CG2       33.8960   26.8120   28.7980 C.3   214  THR214      0.0376
     62  N         37.4770   29.3980   29.1350 N.am  215  PRO215     -0.2717
     63  CA        38.7970   29.9710   28.8280 C.3   215  PRO215      0.1535
     64  C         39.3920   29.4500   27.5180 C.2   215  PRO215      0.2598
     65  O         39.9930   30.2160   26.7660 O.2   215  PRO215     -0.2715
     66  CB        39.6560   29.5530   30.0400 C.3   215  PRO215      0.0310
     67  CG        38.6430   29.4300   31.1750 C.3   215  PRO215      0.0237
     68  CD        37.4140   28.8360   30.5050 C.3   215  PRO215      0.0939
     69  N         39.2100   28.1690   27.2370 N.am  216  TRP216     -0.1974
     70  CA        39.7460   27.5700   26.0080 C.3   216  TRP216      0.1640
     71  C         39.0110   28.1320   24.7850 C.2   216  TRP216      0.2290
     72  O         39.6160   28.4230   23.7520 O.2   216  TRP216     -0.2864
     73  CB        39.5790   26.0480   26.0860 C.3   216  TRP216      0.0576
     74  CG        40.0380   25.2500   24.8940 C.ar  216  TRP216      0.0006
     75  CD1       39.3430   24.2510   24.2710 C.ar  216  TRP216      0.0946
     76  CD2       41.2940   25.3480   24.2110 C.ar  216  TRP216      0.0152
     77  NE1       40.0840   23.7340   23.2380 N.ar  216  TRP216     -0.2442
     78  CE2       41.2830   24.3900   23.1770 C.ar  216  TRP216      0.0810
     79  CE3       42.4240   26.1540   24.3690 C.ar  216  TRP216      0.0012
     80  CZ2       42.3610   24.2180   22.2990 C.ar  216  TRP216      0.0191
     81  CZ3       43.4880   25.9850   23.4920 C.ar  216  TRP216      0.0001
     82  CH2       43.4460   25.0220   22.4710 C.ar  216  TRP216      0.0015
@<TRIPOS>BOND
     1    80    82   ar
     2    80    78   ar
     3    82    81   ar
     4    78    77   ar
     5    78    76   ar
     6    77    75   ar
     7    81    79   ar
     8    72    71    2
     9    76    79   ar
    10    76    74   ar
    11    48    47    2
    12    75    74   ar
    13    71    70    1
    14    74    73    1
    15    46    47    1
    16    46    45    1
    17    46    49    1
    18    52    54   ar
    19    52    50   ar
    20    54    53   ar
    21    50    49    1
    22    50    51   ar
    23    70    73    1
    24    70    69    1
    25    53    51   ar
    26    15    14    2
    27    65    64    2
    28    38    37    2
    29    60    59    1
    30    58    57    2
    31    69    64   am
    32    17    18    1
    33    17    16    1
    34    19    18    1
    35    19    20    1
    36    16    13    1
    37    64    63    1
    38    55    56    1
    39    14    13    1
    40    13    12    1
    41    36    39    1
    42    36    37    1
    43    36    35    1
    44    37    40   am
    45    57    56    1
    46    57    62   am
    47    59    56    1
    48    59    61    1
    49    43    42    2
    50    63    62    1
    51    63    66    1
    52    42    41    1
    53    62    68    1
    54    40    41    1
    55    41    44    1
    56    66    67    1
    57    68    67    1
    58    11    10    2
    59     8     9    1
    60     8     3   am
    61    10     9    1
    62     6     5    1
    63    32    31    2
    64     2     5    1
    65     2     3    1
    66     2     1    1
    67     5     7    1
    68    30    31    1
    69    30    29    1
    70    30    33    1
    71     3     4    2
    72    33    34    1
    73    24    23    2
    74    28    26   ar
    75    25    26    1
    76    25    22    1
    77    26    27   ar
    78    23    22    1
    79    21    22    1
