@<TRIPOS>MOLECULE
tmp/4at7A00.pdb
 76 74 0 0 0
SMALL
GASTEIGER

@<TRIPOS>ATOM
      1  N         53.3260   41.3690   41.0520 N.3    43  GLU43      -0.1245
      2  CA        52.6020   40.1370   40.8080 C.3    43  GLU43       0.1567
      3  C         53.4300   39.2430   39.9120 C.2    43  GLU43       0.2260
      4  O         53.5700   38.0440   40.1530 O.2    43  GLU43      -0.2867
      5  CB        51.2540   40.4180   40.1380 C.3    43  GLU43       0.0388
      6  CG        50.2000   41.0440   41.0430 C.3    43  GLU43       0.1160
      7  CD        48.9170   41.3610   40.2670 C.2    43  GLU43       0.3649
      8  OE1       48.9720   42.2260   39.3720 O.co2  43  GLU43      -0.2457
      9  OE2       47.8740   40.7300   40.5410 O.co2  43  GLU43      -0.2457
     10  N         45.3170   40.8460   39.8900 N.3    89  GLY89      -0.1210
     11  CA        44.3750   40.5070   40.9520 C.3    89  GLY89       0.1956
     12  C         44.0370   39.0270   41.0550 C.2    89  GLY89       0.2612
     13  O         43.3250   38.6010   41.9610 O.2    89  GLY89      -0.2717
     14  N         44.5310   38.2330   40.1160 N.am   90  HIS90      -0.1961
     15  CA        44.3260   36.7900   40.1600 C.3    90  HIS90       0.1787
     16  C         45.6680   36.1540   39.8760 C.2    90  HIS90       0.2620
     17  O         45.9220   35.6370   38.7820 O.2    90  HIS90      -0.2715
     18  CB        43.2860   36.3370   39.1360 C.3    90  HIS90       0.0785
     19  CG        42.9100   34.8980   39.2600 C.ar   90  HIS90       0.0821
     20  ND1       42.0950   34.4200   40.2740 N.ar   90  HIS90      -0.2267
     21  CD2       43.2300   33.8150   38.5130 C.ar   90  HIS90       0.1154
     22  CE1       41.9350   33.1250   40.1380 C.ar   90  HIS90       0.1986
     23  NE2       42.6220   32.7230   39.0730 N.ar   90  HIS90      -0.2212
     24  N         46.5380   36.2090   40.8730 N.am   91  ASN91      -0.1958
     25  CA        47.9140   35.8040   40.6810 C.3    91  ASN91       0.1819
     26  C         48.1140   34.3200   40.9330 C.2    91  ASN91       0.2621
     27  O         48.6900   33.9180   41.9500 O.2    91  ASN91      -0.2715
     28  CB        48.8250   36.6080   41.5990 C.3    91  ASN91       0.1195
     29  CG        50.2290   36.6370   41.0980 C.2    91  ASN91       0.2630
     30  OD1       50.4660   36.3900   39.9190 O.2    91  ASN91      -0.2716
     31  ND2       51.1830   36.9280   41.9800 N.am   91  ASN91      -0.0877
     32  N         47.6460   33.5230   39.9840 N.am   92  VAL92      -0.1977
     33  CA        47.6060   32.0770   40.1100 C.3    92  VAL92       0.1596
     34  C         48.1840   31.4520   38.8530 C.2    92  VAL92       0.2287
     35  O         47.7990   31.8210   37.7380 O.2    92  VAL92      -0.2864
     36  CB        46.1630   31.5850   40.2380 C.3    92  VAL92       0.0276
     37  CG1       46.1290   30.0610   40.4680 C.3    92  VAL92       0.0022
     38  CG2       45.4510   32.3050   41.3470 C.3    92  VAL92       0.0022
     39  N         50.2730   28.2660   48.2640 N.3   140  SER140     -0.1202
     40  CA        50.1590   29.7170   48.2640 C.3   140  SER140      0.2020
     41  C         51.1840   30.4100   49.1300 C.2   140  SER140      0.2619
     42  O         51.4450   29.9990   50.2670 O.2   140  SER140     -0.2717
     43  CB        48.7700   30.1420   48.7300 C.3   140  SER140      0.2103
     44  OG        47.8090   29.9030   47.7160 O.3   140  SER140     -0.2182
     45  N         51.7370   31.4920   48.5910 N.am  141  SER141     -0.1937
     46  CA        52.5260   32.4180   49.3900 C.3   141  SER141      0.2055
     47  C         51.5520   33.5200   49.7540 C.2   141  SER141      0.2644
     48  O         50.3690   33.4480   49.4160 O.2   141  SER141     -0.2714
     49  CB        53.6770   32.9830   48.5680 C.3   141  SER141      0.2130
     50  OG        53.1760   33.7850   47.5070 O.3   141  SER141     -0.2179
     51  N         52.0300   34.5570   50.4270 N.am  142  SER142     -0.1935
     52  CA        51.1440   35.6620   50.7560 C.3   142  SER142      0.2055
     53  C         50.6490   36.3660   49.4910 C.2   142  SER142      0.2643
     54  O         49.6560   37.0790   49.5350 O.2   142  SER142     -0.2714
     55  CB        51.8680   36.6660   51.6550 C.3   142  SER142      0.2130
     56  OG        53.0590   37.1210   51.0310 O.3   142  SER142     -0.2179
     57  N         51.3420   36.1490   48.3710 N.am  143  ASP143     -0.1957
     58  CA        51.2180   37.0090   47.1940 C.3   143  ASP143      0.1840
     59  C         50.7370   36.2730   45.9600 C.2   143  ASP143      0.2622
     60  O         50.2700   36.8890   45.0160 O.2   143  ASP143     -0.2715
     61  CB        52.5840   37.5970   46.8330 C.3   143  ASP143      0.1450
     62  CG        53.0200   38.7000   47.7730 C.2   143  ASP143      0.3671
     63  OD1       52.1500   39.4350   48.2860 O.co2 143  ASP143     -0.2456
     64  OD2       54.2450   38.8310   47.9870 O.co2 143  ASP143     -0.2456
     65  N         50.9000   34.9550   45.9560 N.am  144  ALA144     -0.1963
     66  CA        50.7230   34.1680   44.7430 C.3   144  ALA144      0.1728
     67  C         50.2840   32.7690   45.0770 C.2   144  ALA144      0.2616
     68  O         50.5380   32.2690   46.1620 O.2   144  ALA144     -0.2715
     69  CB        52.0360   34.1200   43.9740 C.3   144  ALA144      0.0334
     70  N         49.6440   32.1280   44.1080 N.am  145  THR145     -0.1951
     71  CA        49.2260   30.7480   44.2480 C.3   145  THR145      0.1897
     72  C         49.6260   29.9380   43.0230 C.2   145  THR145      0.2313
     73  O         49.4790   30.3990   41.8910 O.2   145  THR145     -0.2863
     74  CB        47.7100   30.6520   44.3480 C.3   145  THR145      0.1794
     75  OG1       47.2560   31.3050   45.5550 O.3   145  THR145     -0.2208
     76  CG2       47.2830   29.1960   44.3530 C.3   145  THR145      0.0378
@<TRIPOS>BOND
     1    35    34    2
     2    21    23   ar
     3    21    19   ar
     4    17    16    2
     5    34    33    1
     6    23    22   ar
     7    18    19    1
     8    18    15    1
     9    19    20   ar
    10     8     7   ar
    11    16    15    1
    12    16    24   am
    13    10    11    1
    14     3     4    2
    15     3     2    1
    16    30    29    2
    17    32    33    1
    18    32    26   am
    19    33    36    1
    20    14    15    1
    21    14    12   am
    22    22    20   ar
    23     5     2    1
    24     5     6    1
    25    36    37    1
    26    36    38    1
    27     7     9   ar
    28     7     6    1
    29    25    24    1
    30    25    26    1
    31    25    28    1
    32     2     1    1
    33    26    27    2
    34    11    12    1
    35    12    13    2
    36    29    28    1
    37    29    31   am
    38    73    72    2
    39    72    71    1
    40    69    66    1
    41    70    71    1
    42    70    67   am
    43    71    74    1
    44    74    76    1
    45    74    75    1
    46    66    67    1
    47    66    65    1
    48    60    59    2
    49    67    68    2
    50    65    59   am
    51    59    58    1
    52    61    58    1
    53    61    62    1
    54    58    57    1
    55    50    49    1
    56    44    43    1
    57    62    64   ar
    58    62    63   ar
    59    39    40    1
    60    40    43    1
    61    40    41    1
    62    57    53   am
    63    49    46    1
    64    45    41   am
    65    45    46    1
    66    41    42    2
    67    46    47    1
    68    48    47    2
    69    53    54    2
    70    53    52    1
    71    47    51   am
    72    51    52    1
    73    52    55    1
    74    56    55    1
