@<TRIPOS>MOLECULE
tmp/4at8A00.pdb
 156 147 0 0 0
SMALL
GASTEIGER

@<TRIPOS>ATOM
      1  N          7.0030   -9.0720  -65.7720 N.3    78  VAL78      -0.1231
      2  CA         6.3840   -7.9140  -65.1410 C.3    78  VAL78       0.1692
      3  C          5.4720   -7.1820  -66.1130 C.2    78  VAL78       0.2593
      4  O          5.4210   -7.4990  -67.3030 O.2    78  VAL78      -0.2718
      5  CB         7.4340   -6.9280  -64.6100 C.3    78  VAL78       0.0266
      6  CG1        8.3550   -7.6110  -63.6050 C.3    78  VAL78       0.0020
      7  CG2        8.2330   -6.3270  -65.7600 C.3    78  VAL78       0.0020
      8  N          4.7450   -6.1960  -65.6000 N.am   79  GLY79      -0.1942
      9  CA         3.8850   -5.3710  -66.4320 C.3    79  GLY79       0.2014
     10  C          2.4910   -5.9460  -66.6220 C.2    79  GLY79       0.2639
     11  O          2.1380   -6.9720  -66.0320 O.2    79  GLY79      -0.2714
     12  N          1.7050   -5.2830  -67.4590 N.am   80  SER80      -0.1949
     13  CA         0.3270   -5.6660  -67.7090 C.3    80  SER80       0.1924
     14  C          0.1900   -7.1100  -68.1600 C.2    80  SER80       0.2314
     15  O         -0.8690   -7.7190  -67.9930 O.2    80  SER80      -0.2863
     16  CB        -0.2790   -4.7570  -68.7770 C.3    80  SER80       0.2116
     17  OG         0.3770   -4.9450  -70.0170 O.3    80  SER80      -0.2180
     18  N          0.2170   -9.0470  -64.9350 N.3    83  LYS83      -0.1245
     19  CA        -0.9190   -8.5910  -64.1470 C.3    83  LYS83       0.1561
     20  C         -2.2450   -8.9310  -64.8200 C.2    83  LYS83       0.2260
     21  O         -3.2580   -9.1450  -64.1460 O.2    83  LYS83      -0.2867
     22  CB        -0.8440   -7.0850  -63.9210 C.3    83  LYS83       0.0271
     23  CG         0.4070   -6.6090  -63.2110 C.3    83  LYS83       0.0035
     24  CD         0.1960   -5.1980  -62.6730 C.3    83  LYS83       0.0206
     25  CE         1.4850   -4.5960  -62.1440 C.3    83  LYS83       0.1093
     26  NZ         2.3810   -4.1800  -63.2510 N.3    83  LYS83      -0.1314
     27  N         -3.4940   -6.8310  -67.4020 N.3    85  THR85      -0.1203
     28  CA        -4.1130   -5.5370  -67.6800 C.3    85  THR85       0.1994
     29  C         -3.7360   -5.0220  -69.0660 C.2    85  THR85       0.2618
     30  O         -3.7880   -3.8220  -69.3260 O.2    85  THR85      -0.2717
     31  CB        -3.7220   -4.4840  -66.6310 C.3    85  THR85       0.1784
     32  OG1       -2.3240   -4.5950  -66.3360 O.3    85  THR85      -0.2211
     33  CG2       -4.5150   -4.6860  -65.3460 C.3    85  THR85       0.0376
     34  N         -3.3620   -5.9370  -69.9580 N.am   86  MET86      -0.1965
     35  CA        -2.9710   -5.5580  -71.3110 C.3    86  MET86       0.1736
     36  C         -4.1370   -4.9560  -72.0840 C.2    86  MET86       0.2617
     37  O         -5.2950   -5.1210  -71.7070 O.2    86  MET86      -0.2715
     38  CB        -2.3990   -6.7590  -72.0690 C.3    86  MET86       0.0427
     39  CG        -1.1640   -7.3690  -71.4230 C.3    86  MET86       0.0599
     40  SD        -0.2820   -8.4830  -72.5270 S.3    86  MET86      -0.1393
     41  CE         0.2270   -7.3390  -73.8090 C.3    86  MET86       0.0692
     42  N         -3.8180   -4.2560  -73.1730 N.am   87  THR87      -0.1951
     43  CA        -4.8270   -3.5930  -73.9830 C.3    87  THR87       0.1897
     44  C         -4.6320   -3.9200  -75.4510 C.2    87  THR87       0.2313
     45  O         -3.5170   -3.8430  -75.9700 O.2    87  THR87      -0.2863
     46  CB        -4.7710   -2.0630  -73.7990 C.3    87  THR87       0.1794
     47  OG1       -4.9520   -1.7390  -72.4120 O.3    87  THR87      -0.2208
     48  CG2       -5.8500   -1.3850  -74.6280 C.3    87  THR87       0.0378
     49  N         -1.7370   -2.9080  -78.3000 N.3    90  HIS90      -0.1241
     50  CA        -0.4130   -2.7380  -77.7190 C.3    90  HIS90       0.1621
     51  C          0.0700   -4.0630  -77.1600 C.2    90  HIS90       0.2264
     52  O          0.1690   -4.2440  -75.9410 O.2    90  HIS90      -0.2867
     53  CB        -0.4400   -1.6740  -76.6150 C.3    90  HIS90       0.0745
     54  CG         0.9180   -1.2070  -76.1900 C.ar   90  HIS90       0.0817
     55  ND1        1.8140   -0.6240  -77.0670 N.ar   90  HIS90      -0.2268
     56  CD2        1.5360   -1.2360  -74.9830 C.ar   90  HIS90       0.1154
     57  CE1        2.9240   -0.3140  -76.4180 C.ar   90  HIS90       0.1986
     58  NE2        2.7810   -0.6770  -75.1510 N.ar   90  HIS90      -0.2212
     59  N          2.5560   -5.7490  -76.1560 N.3    92  VAL92      -0.1245
     60  CA         3.9240   -5.7170  -75.6520 C.3    92  VAL92       0.1561
     61  C          3.9920   -6.2330  -74.2230 C.2    92  VAL92       0.2260
     62  O          3.2330   -5.7990  -73.3640 O.2    92  VAL92      -0.2867
     63  CB         4.5080   -4.2940  -75.6960 C.3    92  VAL92       0.0252
     64  CG1        5.9800   -4.3130  -75.3280 C.3    92  VAL92       0.0019
     65  CG2        4.3020   -3.6720  -77.0660 C.3    92  VAL92       0.0019
     66  N          6.6920   -7.3590  -70.8130 N.3    94  ASP94      -0.1239
     67  CA         7.9930   -7.0170  -70.2500 C.3    94  ASP94       0.1674
     68  C          8.6010   -8.1010  -69.3950 C.2    94  ASP94       0.2266
     69  O          7.9230   -8.7690  -68.6230 O.2    94  ASP94      -0.2867
     70  CB         7.9210   -5.7290  -69.4280 C.3    94  ASP94       0.1410
     71  CG         7.1690   -4.6400  -70.1300 C.2    94  ASP94       0.3668
     72  OD1        5.9390   -4.6440  -70.0100 O.co2  94  ASP94      -0.2456
     73  OD2        7.7960   -3.7950  -70.7970 O.co2  94  ASP94      -0.2456
     74  N          9.6970   -6.7960  -74.4170 N.3   147  LYS147     -0.1245
     75  CA        10.7320   -5.8960  -73.9170 C.3   147  LYS147      0.1561
     76  C         11.5140   -6.5340  -72.7780 C.2   147  LYS147      0.2260
     77  O         10.9290   -7.0520  -71.8310 O.2   147  LYS147     -0.2867
     78  CB        10.1200   -4.5740  -73.4300 C.3   147  LYS147      0.0271
     79  CG         9.9320   -3.5240  -74.5070 C.3   147  LYS147      0.0035
     80  CD         9.2400   -2.2840  -73.9540 C.3   147  LYS147      0.0206
     81  CE        10.2410   -1.2890  -73.3740 C.3   147  LYS147      0.1093
     82  NZ         9.7500   -0.6720  -72.1100 N.3   147  LYS147     -0.1314
     83  N         13.8680   -5.6210  -69.7660 N.3   149  LEU149     -0.1245
     84  CA        14.3460   -4.5510  -68.9070 C.3   149  LEU149      0.1561
     85  C         15.5720   -5.0210  -68.1440 C.2   149  LEU149      0.2260
     86  O         15.4780   -5.8900  -67.2760 O.2   149  LEU149     -0.2867
     87  CB        13.2490   -4.1280  -67.9280 C.3   149  LEU149      0.0270
     88  CG        11.8950   -3.7760  -68.5490 C.3   149  LEU149      0.0019
     89  CD1       10.8440   -3.5730  -67.4680 C.3   149  LEU149      0.0001
     90  CD2       12.0130   -2.5480  -69.4360 C.3   149  LEU149      0.0001
     91  N         14.4230    1.2810  -61.7440 N.3   173  SER173     -0.1217
     92  CA        13.0690    1.1250  -62.2580 C.3   173  SER173      0.1889
     93  C         12.7660   -0.3460  -62.5170 C.2   173  SER173      0.2288
     94  O         11.7150   -0.8520  -62.1290 O.2   173  SER173     -0.2866
     95  CB        12.9000    1.9240  -63.5460 C.3   173  SER173      0.2089
     96  OG        13.5110    3.1910  -63.4360 O.3   173  SER173     -0.2183
     97  N          9.9720   -2.6250  -60.8880 N.3   177  ALA177     -0.1245
     98  CA         8.9630   -3.3180  -61.6830 C.3   177  ALA177      0.1562
     99  C          8.7060   -4.7140  -61.1270 C.2   177  ALA177      0.2260
    100  O          7.5750   -5.2060  -61.1450 O.2   177  ALA177     -0.2867
    101  CB         9.3930   -3.3950  -63.1390 C.3   177  ALA177      0.0290
    102  N          6.6550   -4.2460  -57.9270 N.3   180  HIS180     -0.1241
    103  CA         5.2720   -3.9610  -58.2860 C.3   180  HIS180      0.1621
    104  C          4.5560   -5.2240  -58.7470 C.2   180  HIS180      0.2264
    105  O          3.3760   -5.4250  -58.4490 O.2   180  HIS180     -0.2867
    106  CB         5.2100   -2.8940  -59.3770 C.3   180  HIS180      0.0745
    107  CG         5.8190   -1.5870  -58.9840 C.ar  180  HIS180      0.0817
    108  ND1        6.0470   -0.5690  -59.8840 N.ar  180  HIS180     -0.2268
    109  CD2        6.2450   -1.1290  -57.7790 C.ar  180  HIS180      0.1154
    110  CE1        6.5880    0.4590  -59.2510 C.ar  180  HIS180      0.1986
    111  NE2        6.7200    0.1500  -57.9760 N.ar  180  HIS180     -0.2212
    112  N         -6.7070    3.0600  -67.7020 N.3   201  LYS201     -0.1245
    113  CA        -5.6960    3.3630  -68.7030 C.3   201  LYS201      0.1561
    114  C         -6.3330    4.0710  -69.8890 C.2   201  LYS201      0.2260
    115  O         -5.7720    5.0300  -70.4270 O.2   201  LYS201     -0.2867
    116  CB        -4.9720    2.0860  -69.1600 C.3   201  LYS201      0.0271
    117  CG        -4.0440    1.4910  -68.1120 C.3   201  LYS201      0.0035
    118  CD        -2.9430    0.6530  -68.7520 C.3   201  LYS201      0.0206
    119  CE        -3.4310   -0.7390  -69.1050 C.3   201  LYS201      0.1093
    120  NZ        -2.6120   -1.3550  -70.1960 N.3   201  LYS201     -0.1314
    121  N          0.8270    8.0200  -63.6190 N.3   214  THR214     -0.1204
    122  CA         1.6890    6.9360  -64.0690 C.3   214  THR214      0.1979
    123  C          0.9580    5.5960  -63.9830 C.2   214  THR214      0.2460
    124  O         -0.0480    5.4770  -63.2860 O.2   214  THR214     -0.2732
    125  CB         2.9830    6.8670  -63.2390 C.3   214  THR214      0.1783
    126  OG1        2.6660    6.5210  -61.8760 O.3   214  THR214     -0.2211
    127  CG2        3.7130    8.1940  -63.2700 C.3   214  THR214      0.0376
    128  N          1.4620    4.5760  -64.7010 N.am  215  PRO215     -0.2717
    129  CA         0.8390    3.2490  -64.6900 C.3   215  PRO215      0.1535
    130  C          0.7550    2.6770  -63.2810 C.2   215  PRO215      0.2598
    131  O         -0.2950    2.1800  -62.8740 O.2   215  PRO215     -0.2715
    132  CB         1.8030    2.4030  -65.5450 C.3   215  PRO215      0.0310
    133  CG         2.4910    3.3840  -66.4180 C.3   215  PRO215      0.0237
    134  CD         2.6370    4.6380  -65.5940 C.3   215  PRO215      0.0939
    135  N          1.8620    2.7450  -62.5520 N.am  216  TRP216     -0.1974
    136  CA         1.9330    2.2410  -61.1860 C.3   216  TRP216      0.1640
    137  C          0.8770    2.9030  -60.3000 C.2   216  TRP216      0.2290
    138  O          0.2160    2.2290  -59.5070 O.2   216  TRP216     -0.2864
    139  CB         3.3340    2.4650  -60.6190 C.3   216  TRP216      0.0576
    140  CG         3.5210    2.0790  -59.1920 C.ar  216  TRP216      0.0006
    141  CD1        4.1120    2.8280  -58.2110 C.ar  216  TRP216      0.0946
    142  CD2        3.1220    0.8490  -58.5690 C.ar  216  TRP216      0.0152
    143  NE1        4.1060    2.1420  -57.0170 N.ar  216  TRP216     -0.2442
    144  CE2        3.5040    0.9230  -57.2110 C.ar  216  TRP216      0.0810
    145  CE3        2.4780   -0.3030  -59.0220 C.ar  216  TRP216      0.0012
    146  CZ2        3.2640   -0.1100  -56.3140 C.ar  216  TRP216      0.0191
    147  CZ3        2.2420   -1.3250  -58.1260 C.ar  216  TRP216      0.0001
    148  CH2        2.6340   -1.2220  -56.7900 C.ar  216  TRP216      0.0015
    149  N         -2.4020    1.3220  -60.9540 N.3   219  ASP219     -0.1239
    150  CA        -2.5560    0.0160  -60.3240 C.3   219  ASP219      0.1674
    151  C         -3.0380    0.1610  -58.8830 C.2   219  ASP219      0.2266
    152  O         -3.9890   -0.4970  -58.4690 O.2   219  ASP219     -0.2867
    153  CB        -1.2360   -0.7470  -60.3500 C.3   219  ASP219      0.1410
    154  CG        -0.8890   -1.2690  -61.7260 C.2   219  ASP219      0.3668
    155  OD1       -1.8160   -1.5730  -62.5020 O.co2 219  ASP219     -0.2456
    156  OD2        0.3190   -1.3790  -62.0360 O.co2 219  ASP219     -0.2456
@<TRIPOS>BOND
     1    49    50    1
     2    50    51    1
     3    50    53    1
     4    51    52    2
     5    55    57   ar
     6    55    54   ar
     7    65    63    1
     8    53    54    1
     9    57    58   ar
    10    54    56   ar
    11    59    60    1
    12    45    44    2
    13    63    60    1
    14    63    64    1
    15    60    61    1
    16    44    43    1
    17    58    56   ar
    18    48    46    1
    19    79    80    1
    20    79    78    1
    21    74    75    1
    22    61    62    2
    23    43    46    1
    24    43    42    1
    25    80    81    1
    26    75    78    1
    27    75    76    1
    28    41    40    1
    29    46    47    1
    30    81    82    1
    31    42    36   am
    32    76    77    2
    33    40    39    1
    34    36    37    2
    35    36    35    1
    36    38    39    1
    37    38    35    1
    38    35    34    1
    39    66    67    1
    40    73    71   ar
    41   115   114    2
    42    67    70    1
    43    67    68    1
    44   120   119    1
    45    71    72   ar
    46    71    70    1
    47    17    16    1
    48    34    29   am
    49   114   113    1
    50    83    84    1
    51    90    88    1
    52    68    69    2
    53    30    29    2
    54   116   113    1
    55   116   117    1
    56   119   118    1
    57    29    28    1
    58    84    85    1
    59    84    87    1
    60    16    13    1
    61   118   117    1
    62   113   112    1
    63    88    87    1
    64    88    89    1
    65    14    15    2
    66    14    13    1
    67    85    86    2
    68    13    12    1
    69    28    27    1
    70    28    31    1
    71    12    10   am
    72     4     3    2
    73    31    32    1
    74    31    33    1
    75    10     9    1
    76    10    11    2
    77     9     8    1
    78   133   134    1
    79   133   132    1
    80     3     8   am
    81     3     2    1
    82     1     2    1
    83     7     5    1
    84   134   128    1
    85   132   129    1
    86     2     5    1
    87    18    19    1
    88    20    19    1
    89    20    21    2
    90   128   129    1
    91   128   123   am
    92   129   130    1
    93     5     6    1
    94    19    22    1
    95   122   123    1
    96   122   121    1
    97   122   125    1
    98   123   124    2
    99    22    23    1
   100    95    96    1
   101    95    92    1
   102   130   131    2
   103   130   135   am
   104   127   125    1
   105    26    25    1
   106   125   126    1
   107    23    24    1
   108   101    98    1
   109    24    25    1
   110   135   136    1
   111    93    92    1
   112    93    94    2
   113   155   154   ar
   114    92    91    1
   115   156   154   ar
   116   154   153    1
   117    98    99    1
   118    98    97    1
   119   136   139    1
   120   136   137    1
   121   100    99    2
   122   149   150    1
   123   139   140    1
   124   153   150    1
   125   150   151    1
   126   137   138    2
   127   108   110   ar
   128   108   107   ar
   129   106   107    1
   130   106   103    1
   131   110   111   ar
   132   140   142   ar
   133   140   141   ar
   134   145   142   ar
   135   145   147   ar
   136   107   109   ar
   137   151   152    2
   138   104   105    2
   139   104   103    1
   140   142   144   ar
   141   103   102    1
   142   141   143   ar
   143   147   148   ar
   144   111   109   ar
   145   144   143   ar
   146   144   146   ar
   147   148   146   ar
