@<TRIPOS>MOLECULE
tmp/4atbA00.pdb
 163 153 0 0 0
SMALL
GASTEIGER

@<TRIPOS>ATOM
      1  N         -7.9020    9.8930  -73.5430 N.3    78  VAL78      -0.1231
      2  CA        -8.0420    8.7490  -72.6490 C.3    78  VAL78       0.1692
      3  C         -6.7030    8.0320  -72.5070 C.2    78  VAL78       0.2593
      4  O         -5.6820    8.4570  -73.0830 O.2    78  VAL78      -0.2718
      5  CB        -9.1100    7.7450  -73.1470 C.3    78  VAL78       0.0266
      6  CG1      -10.4220    8.4530  -73.4660 C.3    78  VAL78       0.0020
      7  CG2       -8.6130    7.0090  -74.3630 C.3    78  VAL78       0.0020
      8  N         -6.7010    6.9520  -71.7310 N.am   79  GLY79      -0.1942
      9  CA        -5.5120    6.1280  -71.6070 C.3    79  GLY79       0.2014
     10  C         -4.4810    6.6560  -70.6180 C.2    79  GLY79       0.2639
     11  O         -4.7020    7.6420  -69.9210 O.2    79  GLY79      -0.2714
     12  N         -3.3420    5.9810  -70.5490 N.am   80  SER80      -0.1949
     13  CA        -2.3050    6.3090  -69.5840 C.3    80  SER80       0.1924
     14  C         -1.8950    7.7550  -69.6770 C.2    80  SER80       0.2314
     15  O         -1.6210    8.3560  -68.6420 O.2    80  SER80      -0.2863
     16  CB        -1.0840    5.4110  -69.7850 C.3    80  SER80       0.2116
     17  OG        -0.8950    5.0750  -71.1630 O.3    80  SER80      -0.2180
     18  N         -4.5690    9.5850  -67.8110 N.3    83  LYS83      -0.1245
     19  CA        -4.6120    9.0550  -66.4550 C.3    83  LYS83       0.1561
     20  C         -3.3440    9.3950  -65.6630 C.2    83  LYS83       0.2260
     21  O         -3.3700    9.4680  -64.4170 O.2    83  LYS83      -0.2867
     22  CB        -4.8150    7.5390  -66.4740 C.3    83  LYS83       0.0271
     23  CG        -6.1530    7.0860  -67.0430 C.3    83  LYS83       0.0035
     24  CD        -6.1770    5.5610  -67.1980 C.3    83  LYS83       0.0206
     25  CE        -7.5720    5.0320  -67.5280 C.3    83  LYS83       0.1093
     26  NZ        -8.0300    5.2290  -68.9380 N.3    83  LYS83      -0.1314
     27  N         -0.3790    7.5620  -66.0420 N.3    85  THR85      -0.1203
     28  CA         0.2440    6.2760  -65.7030 C.3    85  THR85       0.1994
     29  C          1.1220    5.7510  -66.8360 C.2    85  THR85       0.2618
     30  O          1.3210    4.5320  -66.9750 O.2    85  THR85      -0.2717
     31  CB        -0.8120    5.1850  -65.3620 C.3    85  THR85       0.1784
     32  OG1       -1.8660    5.1870  -66.3400 O.3    85  THR85      -0.2211
     33  CG2       -1.3980    5.4170  -63.9670 C.3    85  THR85       0.0376
     34  N          1.6400    6.6640  -67.6580 N.am   86  MET86      -0.1965
     35  CA         2.4980    6.2690  -68.7790 C.3    86  MET86       0.1736
     36  C          3.8100    5.6460  -68.2830 C.2    86  MET86       0.2617
     37  O          4.1480    5.7240  -67.0820 O.2    86  MET86      -0.2715
     38  CB         2.7930    7.4610  -69.6940 C.3    86  MET86       0.0427
     39  CG         1.5750    7.9810  -70.4260 C.3    86  MET86       0.0599
     40  SD         2.0330    9.1070  -71.7420 S.3    86  MET86      -0.1393
     41  CE         2.8330    7.9830  -72.9100 C.3    86  MET86       0.0692
     42  N          4.5490    5.0420  -69.2180 N.am   87  THR87      -0.1951
     43  CA         5.8040    4.3500  -68.9070 C.3    87  THR87       0.1897
     44  C          6.9290    4.7060  -69.8850 C.2    87  THR87       0.2313
     45  O          6.7010    4.8150  -71.0970 O.2    87  THR87      -0.2863
     46  CB         5.6070    2.8200  -68.9190 C.3    87  THR87       0.1794
     47  OG1        4.3800    2.5010  -68.2560 O.3    87  THR87      -0.2208
     48  CG2        6.7620    2.1320  -68.2280 C.3    87  THR87       0.0378
     49  N          7.4170    3.5060  -73.7850 N.3    90  HIS90      -0.1241
     50  CA         6.1770    3.3890  -74.5350 C.3    90  HIS90       0.1621
     51  C          5.5010    4.7440  -74.6190 C.2    90  HIS90       0.2264
     52  O          4.5100    5.0060  -73.9230 O.2    90  HIS90      -0.2867
     53  CB         5.2410    2.3690  -73.8760 C.3    90  HIS90       0.0745
     54  CG         4.1530    1.8540  -74.7810 C.ar   90  HIS90       0.0817
     55  ND1        4.4130    1.0860  -75.8990 N.ar   90  HIS90      -0.2268
     56  CD2        2.8040    2.0030  -74.7330 C.ar   90  HIS90       0.1154
     57  CE1        3.2730    0.7840  -76.4990 C.ar   90  HIS90       0.1986
     58  NE2        2.2790    1.3150  -75.8050 N.ar   90  HIS90      -0.2212
     59  N          3.2540    6.4050  -76.1320 N.3    92  VAL92      -0.1245
     60  CA         2.0300    6.4090  -76.9160 C.3    92  VAL92       0.1561
     61  C          0.8540    6.9640  -76.1230 C.2    92  VAL92       0.2260
     62  O          0.6480    6.6340  -74.9610 O.2    92  VAL92      -0.2867
     63  CB         1.6690    4.9950  -77.4080 C.3    92  VAL92       0.0252
     64  CG1        0.3240    5.0000  -78.1380 C.3    92  VAL92       0.0019
     65  CG2        2.7600    4.4570  -78.3030 C.3    92  VAL92       0.0019
     66  N         -3.4850    8.1260  -76.2810 N.3    94  ASP94      -0.1239
     67  CA        -4.7320    7.6820  -76.8920 C.3    94  ASP94       0.1674
     68  C         -5.7350    8.8200  -76.9240 C.2    94  ASP94       0.2266
     69  O         -5.8070    9.6180  -75.9830 O.2    94  ASP94      -0.2867
     70  CB        -5.3440    6.5180  -76.1000 C.3    94  ASP94       0.1410
     71  CG        -4.3820    5.3340  -75.9270 C.2    94  ASP94       0.3668
     72  OD1       -4.3500    4.4350  -76.8240 O.co2  94  ASP94      -0.2456
     73  OD2       -3.6790    5.3090  -74.8740 O.co2  94  ASP94      -0.2456
     74  N         -2.5380    7.3440  -80.8590 N.3   147  LYS147     -0.1245
     75  CA        -3.5090    6.4380  -81.4430 C.3   147  LYS147      0.1561
     76  C         -4.9020    7.0320  -81.3600 C.2   147  LYS147      0.2260
     77  O         -5.3920    7.3090  -80.2530 O.2   147  LYS147     -0.2867
     78  CB        -3.4740    5.1250  -80.6880 C.3   147  LYS147      0.0271
     79  CG        -3.6160    3.9330  -81.5890 C.3   147  LYS147      0.0035
     80  CD        -2.9260    2.7240  -80.9500 C.3   147  LYS147      0.0206
     81  CE        -3.9440    1.7790  -80.2680 C.3   147  LYS147      0.1093
     82  NZ        -3.9370    0.4090  -80.8870 N.3   147  LYS147     -0.1314
     83  N         -8.5680    6.3080  -81.4510 N.3   149  LEU149     -0.1245
     84  CA        -9.5820    5.2670  -81.3910 C.3   149  LEU149      0.1561
     85  C        -10.9090    5.8450  -81.9140 C.2   149  LEU149      0.2260
     86  O        -11.5420    6.7080  -81.2540 O.2   149  LEU149     -0.2867
     87  CB        -9.7350    4.7910  -79.9480 C.3   149  LEU149      0.0270
     88  CG        -8.4270    4.5140  -79.2000 C.3   149  LEU149      0.0019
     89  CD1       -8.6680    4.4300  -77.6930 C.3   149  LEU149      0.0001
     90  CD2       -7.7460    3.2580  -79.7230 C.3   149  LEU149      0.0001
     91  N        -17.6890   -4.3470  -81.5220 N.3   169  LYS169     -0.1245
     92  CA       -16.7200   -4.5440  -80.4450 C.3   169  LYS169      0.1561
     93  C        -15.7800   -3.3230  -80.3220 C.2   169  LYS169      0.2260
     94  O        -15.6930   -2.6830  -79.2630 O.2   169  LYS169     -0.2867
     95  CB       -15.9070   -5.8270  -80.6760 C.3   169  LYS169      0.0271
     96  CG       -14.7380   -6.0950  -79.7450 C.3   169  LYS169      0.0035
     97  CD       -15.2360   -6.6180  -78.4170 C.3   169  LYS169      0.0206
     98  CE       -14.0650   -7.2140  -77.6530 C.3   169  LYS169      0.1093
     99  NZ       -13.2620   -6.1870  -77.0220 N.3   169  LYS169     -0.1314
    100  N        -15.7390   -0.5820  -77.2640 N.3   173  SER173     -0.1217
    101  CA       -14.5460   -0.5640  -76.4240 C.3   173  SER173      0.1889
    102  C        -13.9590    0.8520  -76.3820 C.2   173  SER173      0.2288
    103  O        -13.3670    1.2740  -75.3710 O.2   173  SER173     -0.2866
    104  CB       -13.5120   -1.5530  -76.9350 C.3   173  SER173      0.2089
    105  OG       -13.5060   -1.5790  -78.3500 O.3   173  SER173     -0.2183
    106  N        -16.1440    2.8080  -74.0560 N.3   176  ALA176     -0.1231
    107  CA       -15.8000    2.4220  -72.6850 C.3   176  ALA176      0.1694
    108  C        -14.5140    3.1020  -72.2160 C.2   176  ALA176      0.2591
    109  O        -14.3770    3.4920  -71.0520 O.2   176  ALA176     -0.2718
    110  CB       -15.6800    0.9330  -72.5730 C.3   176  ALA176      0.0304
    111  N        -13.5760    3.2460  -73.1410 N.am  177  ALA177     -0.1980
    112  CA       -12.3360    3.9370  -72.8570 C.3   177  ALA177      0.1597
    113  C        -12.6260    5.3410  -72.3370 C.2   177  ALA177      0.2287
    114  O        -11.8880    5.8700  -71.4910 O.2   177  ALA177     -0.2864
    115  CB       -11.4720    3.9950  -74.1120 C.3   177  ALA177      0.0319
    116  N        -13.9690    4.9300  -68.6380 N.3   180  HIS180     -0.1241
    117  CA       -12.8160    4.6230  -67.8100 C.3   180  HIS180      0.1621
    118  C        -11.9870    5.8700  -67.5330 C.2   180  HIS180      0.2264
    119  O        -11.5520    6.1010  -66.3870 O.2   180  HIS180     -0.2867
    120  CB       -11.9720    3.5160  -68.4470 C.3   180  HIS180      0.0745
    121  CG       -12.7230    2.2190  -68.6180 C.ar  180  HIS180      0.0817
    122  ND1      -12.3220    1.2470  -69.5080 N.ar  180  HIS180     -0.2268
    123  CD2      -13.8340    1.7510  -68.0200 C.ar  180  HIS180      0.1154
    124  CE1      -13.1650    0.2290  -69.4480 C.ar  180  HIS180      0.1986
    125  NE2      -14.0910    0.5010  -68.5540 N.ar  180  HIS180     -0.2212
    126  N          1.8720   -2.4460  -63.6510 N.3   201  LYS201     -0.1245
    127  CA         2.0920   -2.7720  -65.0540 C.3   201  LYS201      0.1561
    128  C          3.3900   -3.5470  -65.1770 C.2   201  LYS201      0.2260
    129  O          3.4390   -4.5820  -65.8350 O.2   201  LYS201     -0.2867
    130  CB         2.1850   -1.4990  -65.8910 C.3   201  LYS201      0.0271
    131  CG         1.0610   -0.5190  -65.7060 C.3   201  LYS201      0.0035
    132  CD         0.0930   -0.5350  -66.8690 C.3   201  LYS201      0.0206
    133  CE        -0.4790    0.8740  -67.1280 C.3   201  LYS201      0.1093
    134  NZ         0.5970    1.8740  -67.4690 N.3   201  LYS201     -0.1314
    135  N         -5.5130   -3.8900  -68.4800 N.3   215  PRO215     -0.2102
    136  CA        -5.1620   -2.5650  -67.9550 C.3   215  PRO215      0.1504
    137  C         -6.2540   -1.9590  -67.0660 C.2   215  PRO215      0.2575
    138  O         -5.9500   -1.3970  -66.0050 O.2   215  PRO215     -0.2718
    139  CB        -4.9960   -1.7270  -69.2310 C.3   215  PRO215      0.0282
    140  CG        -4.6920   -2.7140  -70.2750 C.3   215  PRO215      0.0208
    141  CD        -5.4890   -3.9120  -69.9490 C.3   215  PRO215      0.0893
    142  N         -7.5060   -2.0590  -67.5120 N.am  216  TRP216     -0.1977
    143  CA        -8.6540   -1.5650  -66.7500 C.3   216  TRP216      0.1640
    144  C         -8.6680   -2.2050  -65.3760 C.2   216  TRP216      0.2290
    145  O         -8.7710   -1.5210  -64.3790 O.2   216  TRP216     -0.2864
    146  CB        -9.9560   -1.8590  -67.4950 C.3   216  TRP216      0.0576
    147  CG       -11.1830   -1.3530  -66.8260 C.ar  216  TRP216      0.0006
    148  CD1      -12.3860   -1.9950  -66.7390 C.ar  216  TRP216      0.0946
    149  CD2      -11.3540   -0.0900  -66.1470 C.ar  216  TRP216      0.0152
    150  NE1      -13.2960   -1.2130  -66.0470 N.ar  216  TRP216     -0.2442
    151  CE2      -12.6850   -0.0420  -65.6780 C.ar  216  TRP216      0.0810
    152  CE3      -10.5130    1.0010  -65.8890 C.ar  216  TRP216      0.0012
    153  CZ2      -13.1860    1.0480  -64.9790 C.ar  216  TRP216      0.0191
    154  CZ3      -11.0140    2.0670  -65.2010 C.ar  216  TRP216      0.0001
    155  CH2      -12.3350    2.0890  -64.7510 C.ar  216  TRP216      0.0015
    156  N         -6.1550   -0.8000  -63.1600 N.3   219  ASP219     -0.1239
    157  CA        -6.5350    0.5090  -62.6240 C.3   219  ASP219      0.1674
    158  C         -7.3970    0.3140  -61.3930 C.2   219  ASP219      0.2266
    159  O         -7.0630    0.8030  -60.2970 O.2   219  ASP219     -0.2867
    160  CB        -7.2970    1.3380  -63.6610 C.3   219  ASP219      0.1410
    161  CG        -6.3910    1.9060  -64.7320 C.2   219  ASP219      0.3668
    162  OD1       -5.1410    1.8450  -64.5750 O.co2 219  ASP219     -0.2456
    163  OD2       -6.9380    2.4190  -65.7310 O.co2 219  ASP219     -0.2456
@<TRIPOS>BOND
     1    85    84    1
     2    85    86    2
     3    79    80    1
     4    79    78    1
     5    91    92    1
     6    83    84    1
     7    75    76    1
     8    75    74    1
     9    75    78    1
    10    84    87    1
    11    76    77    2
    12    80    81    1
    13    82    81    1
    14    95    92    1
    15    95    96    1
    16    92    93    1
    17    93    94    2
    18    87    88    1
    19    96    97    1
    20    90    88    1
    21    88    89    1
    22    97    98    1
    23   105   104    1
    24    65    63    1
    25    64    63    1
    26    98    99    1
    27    63    60    1
    28   100   101    1
    29   104   101    1
    30    68    67    1
    31    68    69    2
    32    60    59    1
    33    60    61    1
    34    67    66    1
    35    67    70    1
    36    72    71   ar
    37    57    55   ar
    38    57    58   ar
    39   101   102    1
    40   102   103    2
    41    61    62    2
    42    70    71    1
    43    71    73   ar
    44    55    54   ar
    45    58    56   ar
    46    54    56   ar
    47    54    53    1
    48    51    50    1
    49    51    52    2
    50    50    53    1
    51    50    49    1
    52     7     5    1
    53   115   112    1
    54   106   107    1
    55     1     2    1
    56     6     5    1
    57     5     2    1
    58   111   112    1
    59   111   108   am
    60     4     3    2
    61    41    40    1
    62   112   113    1
    63   107   110    1
    64   107   108    1
    65     2     3    1
    66     3     8   am
    67   113   114    2
    68   108   109    2
    69    40    39    1
    70     8     9    1
    71     9    10    1
    72    17    16    1
    73    45    44    2
    74    10    12   am
    75    10    11    2
    76    12    13    1
    77    39    38    1
    78   140   141    1
    79   140   139    1
    80   141   135    1
    81    44    43    1
    82    16    13    1
    83    38    35    1
    84    14    13    1
    85    14    15    2
    86   122   124   ar
    87   122   121   ar
    88   124   125   ar
    89   139   136    1
    90    42    43    1
    91    42    36   am
    92    26    25    1
    93    46    43    1
    94    46    47    1
    95    46    48    1
    96    35    36    1
    97    35    34    1
    98   116   117    1
    99   121   120    1
   100   121   123   ar
   101   125   123   ar
   102   135   136    1
   103   120   117    1
   104    36    37    2
   105   136   137    1
   106    18    19    1
   107   117   118    1
   108    34    29   am
   109   118   119    2
   110    25    24    1
   111   142   137   am
   112   142   143    1
   113   146   147    1
   114   146   143    1
   115   134   133    1
   116    24    23    1
   117   133   132    1
   118   137   138    2
   119    23    22    1
   120    30    29    2
   121   132   131    1
   122    29    28    1
   123   147   148   ar
   124   147   149   ar
   125   143   144    1
   126   148   150   ar
   127    22    19    1
   128    19    20    1
   129    32    31    1
   130   149   152   ar
   131   149   151   ar
   132   150   151   ar
   133    27    28    1
   134   130   131    1
   135   130   127    1
   136   152   154   ar
   137   129   128    2
   138   163   161   ar
   139    28    31    1
   140   151   153   ar
   141    20    21    2
   142   144   145    2
   143    31    33    1
   144   154   155   ar
   145   128   127    1
   146   127   126    1
   147   153   155   ar
   148   161   162   ar
   149   161   160    1
   150   160   157    1
   151   156   157    1
   152   157   158    1
   153   158   159    2
