@<TRIPOS>MOLECULE
tmp/4atgA01.pdb
 99 92 0 0 0
SMALL
GASTEIGER

@<TRIPOS>ATOM
      1  N         18.8000   47.8160   12.7500 N.3    86  HIS86      -0.1241
      2  CA        18.4040   48.0840   14.1380 C.3    86  HIS86       0.1621
      3  C         17.9170   46.8330   14.8800 C.2    86  HIS86       0.2264
      4  O         17.9660   46.7960   16.1100 O.2    86  HIS86      -0.2867
      5  CB        17.3880   49.2310   14.2190 C.3    86  HIS86       0.0745
      6  CG        15.9780   48.8240   13.9260 C.ar   86  HIS86       0.0817
      7  ND1       15.5660   48.5090   12.6370 N.ar   86  HIS86      -0.2268
      8  CD2       14.9260   48.6990   14.7640 C.ar   86  HIS86       0.1154
      9  CE1       14.2770   48.2170   12.7320 C.ar   86  HIS86       0.1986
     10  NE2       13.8480   48.3040   13.9940 N.ar   86  HIS86      -0.2212
     11  N         21.5720   44.1190   14.7340 N.3    89  LEU89      -0.1231
     12  CA        22.6640   44.4880   15.6460 C.3    89  LEU89       0.1678
     13  C         22.4680   44.0120   17.0950 C.2    89  LEU89       0.2434
     14  O         23.3720   43.3250   17.5860 O.2    89  LEU89      -0.2733
     15  CB        22.9550   45.9940   15.5690 C.3    89  LEU89       0.0284
     16  CG        24.0080   46.4280   14.5710 C.3    89  LEU89       0.0019
     17  CD1       23.9850   47.9450   14.4250 C.3    89  LEU89       0.0001
     18  CD2       25.4180   46.0120   15.0460 C.3    89  LEU89       0.0001
     19  N         21.3120   44.2430   17.7670 N.am   90  PRO90      -0.2729
     20  CA        21.1690   43.7380   19.1450 C.3    90  PRO90       0.1401
     21  C         21.1810   42.2080   19.2310 C.2    90  PRO90       0.2269
     22  O         21.7060   41.6810   20.1980 O.2    90  PRO90      -0.2865
     23  CB        19.8680   44.3750   19.6500 C.3    90  PRO90       0.0296
     24  CG        19.1220   44.7430   18.4630 C.3    90  PRO90       0.0237
     25  CD        20.1220   45.0290   17.3710 C.3    90  PRO90       0.0939
     26  N         24.7680   41.3310   19.0110 N.3    93  LEU93      -0.1231
     27  CA        25.3790   41.7000   20.2960 C.3    93  LEU93       0.1693
     28  C         25.0500   40.7210   21.4120 C.2    93  LEU93       0.2592
     29  O         25.9040   40.4860   22.2700 O.2    93  LEU93      -0.2718
     30  CB        25.0350   43.1400   20.6960 C.3    93  LEU93       0.0284
     31  CG        25.6800   44.2250   19.8290 C.3    93  LEU93       0.0019
     32  CD1       25.0630   45.5530   20.1240 C.3    93  LEU93       0.0001
     33  CD2       27.2030   44.3080   20.0630 C.3    93  LEU93       0.0001
     34  N         23.8460   40.0900   21.3740 N.am   94  THR94      -0.1953
     35  CA        23.4730   39.0420   22.3520 C.3    94  THR94       0.1897
     36  C         24.4680   37.8610   22.2180 C.2    94  THR94       0.2313
     37  O         24.8560   37.2730   23.2200 O.2    94  THR94      -0.2863
     38  CB        22.0400   38.5980   22.1100 C.3    94  THR94       0.1794
     39  OG1       21.1760   39.7050   22.3850 O.3    94  THR94      -0.2208
     40  CG2       21.6330   37.4010   22.9640 C.3    94  THR94       0.0378
     41  N         27.9320   39.1580   23.8890 N.3    97  ILE97      -0.1245
     42  CA        27.8740   39.3700   25.3350 C.3    97  ILE97       0.1561
     43  C         27.0190   38.3950   26.1740 C.2    97  ILE97       0.2260
     44  O         27.1020   38.4370   27.3940 O.2    97  ILE97      -0.2867
     45  CB        27.5360   40.8660   25.6280 C.3    97  ILE97       0.0252
     46  CG1       26.0950   41.2210   25.2210 C.3    97  ILE97       0.0019
     47  CG2       28.5450   41.8280   24.9920 C.3    97  ILE97       0.0019
     48  CD1       25.2340   41.5340   26.2840 C.3    97  ILE97       0.0001
     49  N         23.9730   54.5090   15.0810 N.3   128  LEU128     -0.1245
     50  CA        24.5810   53.1740   15.0660 C.3   128  LEU128      0.1561
     51  C         25.8230   53.0110   15.9730 C.2   128  LEU128      0.2260
     52  O         25.8090   52.1400   16.8480 O.2   128  LEU128     -0.2867
     53  CB        24.8740   52.7690   13.6110 C.3   128  LEU128      0.0270
     54  CG        25.0850   51.2960   13.3150 C.3   128  LEU128      0.0019
     55  CD1       24.6130   50.9660   11.9020 C.3   128  LEU128      0.0001
     56  CD2       26.5510   50.8870   13.5130 C.3   128  LEU128      0.0001
     57  N         25.3960   53.6250   19.9830 N.3   131  ARG131     -0.1231
     58  CA        24.6330   52.5290   20.5830 C.3   131  ARG131      0.1694
     59  C         25.4980   51.2720   20.7740 C.2   131  ARG131      0.2591
     60  O         25.4800   50.6760   21.8580 O.2   131  ARG131     -0.2718
     61  CB        23.3630   52.2200   19.7660 C.3   131  ARG131      0.0321
     62  CG        22.2560   53.2500   20.0070 C.3   131  ARG131      0.0489
     63  CD        21.0660   53.0670   19.0800 C.3   131  ARG131      0.2205
     64  NE        20.1050   54.1590   19.2420 N.pl3 131  ARG131     -0.0865
     65  CZ        19.0610   54.3720   18.4460 C.cat 131  ARG131      0.5346
     66  NH1       18.8300   53.5700   17.4130 N.pl3 131  ARG131      0.1354
     67  NH2       18.2490   55.3970   18.6680 N.pl3 131  ARG131      0.1354
     68  N         26.2620   50.8920   19.7370 N.am  132  VAL132     -0.1980
     69  CA        27.1790   49.7440   19.7750 C.3   132  VAL132      0.1595
     70  C         28.2520   49.9870   20.8510 C.2   132  VAL132      0.2287
     71  O         28.4400   49.1270   21.7110 O.2   132  VAL132     -0.2864
     72  CB        27.7980   49.4370   18.3690 C.3   132  VAL132      0.0276
     73  CG1       28.9670   48.4480   18.4640 C.3   132  VAL132      0.0022
     74  CG2       26.7370   48.9010   17.4020 C.3   132  VAL132      0.0022
     75  N         26.7440   49.8210   24.5590 N.3   135  THR135     -0.1218
     76  CA        26.4300   48.4530   24.9670 C.3   135  THR135      0.1862
     77  C         27.7210   47.7160   25.3600 C.2   135  THR135      0.2287
     78  O         27.7960   47.1540   26.4490 O.2   135  THR135     -0.2866
     79  CB        25.6720   47.7310   23.8430 C.3   135  THR135      0.1770
     80  OG1       24.4400   48.4140   23.6240 O.3   135  THR135     -0.2211
     81  CG2       25.4090   46.2580   24.1530 C.3   135  THR135      0.0375
     82  N         29.0430   46.4200   29.2300 N.3   139  VAL139     -0.1245
     83  CA        29.2250   45.0050   29.5630 C.3   139  VAL139      0.1561
     84  C         30.6460   44.7580   30.0520 C.2   139  VAL139      0.2260
     85  O         30.8260   44.1380   31.1030 O.2   139  VAL139     -0.2867
     86  CB        28.8190   44.0780   28.3850 C.3   139  VAL139      0.0252
     87  CG1       29.1760   42.6100   28.6700 C.3   139  VAL139      0.0019
     88  CG2       27.3250   44.2170   28.0640 C.3   139  VAL139      0.0019
     89  N         28.8590   41.3350   35.4200 N.3   145  ARG145     -0.1245
     90  CA        28.9400   40.5260   34.2110 C.3   145  ARG145      0.1563
     91  C         29.9890   39.4440   34.3960 C.2   145  ARG145      0.2260
     92  O         30.9540   39.6550   35.1370 O.2   145  ARG145     -0.2867
     93  CB        29.3020   41.3990   32.9940 C.3   145  ARG145      0.0307
     94  CG        28.1160   42.1280   32.4000 C.3   145  ARG145      0.0489
     95  CD        27.2430   41.1620   31.6450 C.3   145  ARG145      0.2205
     96  NE        26.0020   41.7800   31.2020 N.pl3 145  ARG145     -0.0865
     97  CZ        25.1660   41.2140   30.3440 C.cat 145  ARG145      0.5346
     98  NH1       25.4310   40.0120   29.8430 N.pl3 145  ARG145      0.1354
     99  NH2       24.0590   41.8390   29.9820 N.pl3 145  ARG145      0.1354
@<TRIPOS>BOND
     1    55    54    1
     2     7     9   ar
     3     7     6   ar
     4     9    10   ar
     5     1     2    1
     6    54    56    1
     7    54    53    1
     8    53    50    1
     9     6     5    1
    10     6     8   ar
    11    10     8   ar
    12     2     5    1
    13     2     3    1
    14    17    16    1
    15    16    18    1
    16    16    15    1
    17    11    12    1
    18     3     4    2
    19    50    49    1
    20    50    51    1
    21    15    12    1
    22    12    13    1
    23    51    52    2
    24    13    14    2
    25    13    19   am
    26    25    19    1
    27    25    24    1
    28    74    72    1
    29    66    65    1
    30    19    20    1
    31    72    73    1
    32    72    69    1
    33    65    67    1
    34    65    64    2
    35    24    23    1
    36    26    27    1
    37    63    64    1
    38    63    62    1
    39    20    21    1
    40    20    23    1
    41    21    22    2
    42    68    69    1
    43    68    59   am
    44    61    62    1
    45    61    58    1
    46    69    70    1
    47    31    33    1
    48    31    32    1
    49    31    30    1
    50    57    58    1
    51    27    30    1
    52    27    28    1
    53    58    59    1
    54    59    60    2
    55    70    71    2
    56    34    28   am
    57    34    35    1
    58    28    29    2
    59    38    35    1
    60    38    39    1
    61    38    40    1
    62    36    35    1
    63    36    37    2
    64    80    79    1
    65    79    81    1
    66    79    76    1
    67    41    42    1
    68    75    76    1
    69    76    77    1
    70    47    45    1
    71    46    45    1
    72    46    48    1
    73    42    45    1
    74    42    43    1
    75    77    78    2
    76    43    44    2
    77    88    86    1
    78    86    87    1
    79    86    83    1
    80    82    83    1
    81    83    84    1
    82    98    97    1
    83    99    97    1
    84    84    85    2
    85    97    96    2
    86    96    95    1
    87    95    94    1
    88    94    93    1
    89    93    90    1
    90    90    91    1
    91    90    89    1
    92    91    92    2
