@<TRIPOS>MOLECULE
tmp/4atlB00.pdb
 152 153 0 0 0
SMALL
GASTEIGER

@<TRIPOS>ATOM
      1  N        113.6830   35.2940   13.8200 N.3    25  GLN25      -0.1245
      2  CA       113.6430   35.6560   15.2240 C.3    25  GLN25       0.1566
      3  C        113.4030   37.1240   15.4570 C.2    25  GLN25       0.2260
      4  O        112.9520   37.4710   16.5170 O.2    25  GLN25      -0.2867
      5  CB       114.9380   35.2390   15.9160 C.3    25  GLN25       0.0367
      6  CG       115.0460   33.7330   16.0930 C.3    25  GLN25       0.0905
      7  CD       116.3940   33.3040   16.6220 C.2    25  GLN25       0.2608
      8  OE1      117.3800   33.2090   15.8780 O.2    25  GLN25      -0.2717
      9  NE2      116.4450   33.0320   17.9070 N.am   25  GLN25      -0.0878
     10  N        119.0110   30.2320    7.9590 N.3   129  HIS129     -0.1226
     11  CA       118.9100   30.0740    9.4160 C.3   129  HIS129      0.1752
     12  C        117.5420   29.4530    9.7850 C.2   129  HIS129      0.2596
     13  O        116.7530   30.0270   10.5470 O.2   129  HIS129     -0.2718
     14  CB       119.1850   31.4220   10.0890 C.3   129  HIS129      0.0759
     15  CG       119.4880   31.3360   11.5580 C.ar  129  HIS129      0.0818
     16  ND1      120.5370   32.0200   12.1430 N.ar  129  HIS129     -0.2268
     17  CD2      118.8650   30.6720   12.5660 C.ar  129  HIS129      0.1154
     18  CE1      120.5390   31.7860   13.4460 C.ar  129  HIS129      0.1986
     19  NE2      119.5460   30.9550   13.7230 N.ar  129  HIS129     -0.2212
     20  N        117.2560   28.3130    9.1450 N.am  130  TRP130     -0.1976
     21  CA       116.1830   27.3580    9.4960 C.3   130  TRP130      0.1640
     22  C        114.8150   27.6390    8.8980 C.2   130  TRP130      0.2290
     23  O        113.9070   26.7960    8.9610 O.2   130  TRP130     -0.2864
     24  CB       116.0030   27.2310   11.0050 C.3   130  TRP130      0.0576
     25  CG       117.2270   27.0060   11.8100 C.ar  130  TRP130      0.0006
     26  CD1      118.5050   26.6750   11.3650 C.ar  130  TRP130      0.0946
     27  CD2      117.2820   27.0300   13.2280 C.ar  130  TRP130      0.0152
     28  NE1      119.3400   26.5310   12.4470 N.ar  130  TRP130     -0.2442
     29  CE2      118.6150   26.7330   13.6010 C.ar  130  TRP130      0.0810
     30  CE3      116.3270   27.2670   14.2300 C.ar  130  TRP130      0.0012
     31  CZ2      119.0220   26.7150   14.9370 C.ar  130  TRP130      0.0191
     32  CZ3      116.7240   27.2400   15.5430 C.ar  130  TRP130      0.0001
     33  CH2      118.0720   26.9720   15.8920 C.ar  130  TRP130      0.0015
     34  N        123.5090   28.3330    9.1330 N.3   174  ASN174     -0.1225
     35  CA       123.7530   28.4150   10.5610 C.3   174  ASN174      0.1785
     36  C        123.1810   27.2260   11.3470 C.2   174  ASN174      0.2597
     37  O        121.9810   26.8910   11.2350 O.2   174  ASN174     -0.2718
     38  CB       123.2340   29.7100   11.1380 C.3   174  ASN174      0.1169
     39  CG       123.1610   29.6700   12.6500 C.2   174  ASN174      0.2627
     40  OD1      122.0940   29.3920   13.2380 O.2   174  ASN174     -0.2716
     41  ND2      124.2970   29.9060   13.2900 N.am  174  ASN174     -0.0877
     42  N        124.0450   26.6160   12.1690 N.am  175  GLU175     -0.1979
     43  CA       123.6500   25.4640   12.9820 C.3   175  GLU175      0.1602
     44  C        122.8050   24.4230   12.2440 C.2   175  GLU175      0.2287
     45  O        121.6800   24.1090   12.6450 O.2   175  GLU175     -0.2864
     46  CB       122.9530   25.9210   14.2430 C.3   175  GLU175      0.0415
     47  CG       123.9210   26.5910   15.1890 C.3   175  GLU175      0.1163
     48  CD       123.3420   26.7820   16.5680 C.2   175  GLU175      0.3649
     49  OE1      122.2920   26.1610   16.8780 O.co2 175  GLU175     -0.2457
     50  OE2      123.9170   27.5730   17.3300 O.co2 175  GLU175     -0.2457
     51  N        121.5210   21.7980   14.7980 N.3   178  THR178     -0.1218
     52  CA       120.3200   22.0350   15.5590 C.3   178  THR178      0.1862
     53  C        119.1100   21.8370   14.6730 C.2   178  THR178      0.2287
     54  O        118.1230   21.2250   15.0950 O.2   178  THR178     -0.2866
     55  CB       120.3030   23.4460   16.1300 C.3   178  THR178      0.1770
     56  OG1      121.5740   23.7270   16.7240 O.3   178  THR178     -0.2211
     57  CG2      119.1870   23.6140   17.1790 C.3   178  THR178      0.0375
     58  N        111.6030   21.2700   16.9820 N.3   189  TYR189     -0.1241
     59  CA       111.6710   22.4430   16.1350 C.3   189  TYR189      0.1605
     60  C        111.0110   22.1130   14.8200 C.2   189  TYR189      0.2264
     61  O        110.8070   20.9320   14.5080 O.2   189  TYR189     -0.2867
     62  CB       113.1170   22.9000   15.9110 C.3   189  TYR189      0.0534
     63  CG       113.7540   23.6850   17.0450 C.ar  189  TYR189     -0.0201
     64  CD1      113.0950   23.8780   18.2720 C.ar  189  TYR189     -0.0009
     65  CD2      115.0390   24.1880   16.9060 C.ar  189  TYR189     -0.0009
     66  CE1      113.7000   24.5700   19.3090 C.ar  189  TYR189      0.0417
     67  CE2      115.6520   24.8830   17.9210 C.ar  189  TYR189      0.0417
     68  CZ       114.9820   25.0780   19.1190 C.ar  189  TYR189      0.1957
     69  OH       115.6230   25.7750   20.1290 O.3   189  TYR189     -0.2866
     70  N        127.6810   27.9470   23.7490 N.3   312  TYR312     -0.1241
     71  CA       126.9250   28.3910   24.9000 C.3   312  TYR312      0.1605
     72  C        127.2990   27.6970   26.1840 C.2   312  TYR312      0.2264
     73  O        127.3570   28.3290   27.2380 O.2   312  TYR312     -0.2867
     74  CB       125.4210   28.1940   24.6440 C.3   312  TYR312      0.0534
     75  CG       124.9730   29.0940   23.5710 C.ar  312  TYR312     -0.0201
     76  CD1      125.0790   28.7140   22.2150 C.ar  312  TYR312     -0.0009
     77  CD2      124.4830   30.3670   23.8910 C.ar  312  TYR312     -0.0009
     78  CE1      124.6890   29.5830   21.2230 C.ar  312  TYR312      0.0417
     79  CE2      124.0730   31.2420   22.8980 C.ar  312  TYR312      0.0417
     80  CZ       124.1830   30.8560   21.5760 C.ar  312  TYR312      0.1957
     81  OH       123.7760   31.7480   20.6210 O.3   312  TYR312     -0.2866
     82  N        119.1900   24.3130   30.8260 N.3   350  TRP350     -0.1241
     83  CA       120.1980   23.6580   29.9810 C.3   350  TRP350      0.1605
     84  C        121.4730   24.4910   29.7810 C.2   350  TRP350      0.2264
     85  O        122.4590   23.9790   29.2720 O.2   350  TRP350     -0.2867
     86  CB       119.6330   23.3400   28.5890 C.3   350  TRP350      0.0550
     87  CG       119.1290   24.5700   27.8070 C.ar  350  TRP350      0.0003
     88  CD1      117.8410   25.0700   27.7890 C.ar  350  TRP350      0.0946
     89  CD2      119.9000   25.4270   26.9260 C.ar  350  TRP350      0.0152
     90  NE1      117.7770   26.1770   26.9570 N.ar  350  TRP350     -0.2442
     91  CE2      119.0200   26.4070   26.4160 C.ar  350  TRP350      0.0810
     92  CE3      121.2530   25.4470   26.5140 C.ar  350  TRP350      0.0012
     93  CZ2      119.4510   27.4120   25.5200 C.ar  350  TRP350      0.0191
     94  CZ3      121.6730   26.4180   25.6150 C.ar  350  TRP350      0.0001
     95  CH2      120.7730   27.4040   25.1360 C.ar  350  TRP350      0.0015
     96  N        128.4540   32.9560   17.3540 N.3   378  GLU378     -0.1245
     97  CA       127.4810   33.1410   18.4290 C.3   378  GLU378      0.1567
     98  C        128.0750   32.7760   19.7700 C.2   378  GLU378      0.2260
     99  O        128.7720   31.7560   19.9050 O.2   378  GLU378     -0.2867
    100  CB       126.2630   32.2710   18.2340 C.3   378  GLU378      0.0388
    101  CG       125.3390   32.7140   17.1320 C.3   378  GLU378      0.1160
    102  CD       124.1170   31.8330   17.0530 C.2   378  GLU378      0.3649
    103  OE1      123.8400   31.1000   18.0260 O.co2 378  GLU378     -0.2457
    104  OE2      123.4470   31.8540   16.0150 O.co2 378  GLU378     -0.2457
    105  N        125.6300   36.7460   20.8620 N.3   427  TRP427     -0.1241
    106  CA       124.2320   36.4810   20.5430 C.3   427  TRP427      0.1605
    107  C        123.4230   36.8850   21.7590 C.2   427  TRP427      0.2264
    108  O        123.7480   36.4400   22.8400 O.2   427  TRP427     -0.2867
    109  CB       124.0090   35.0150   20.2150 C.3   427  TRP427      0.0550
    110  CG       122.5850   34.7540   20.0020 C.ar  427  TRP427      0.0003
    111  CD1      121.6670   34.4100   20.9480 C.ar  427  TRP427      0.0946
    112  CD2      121.8660   34.8850   18.7650 C.ar  427  TRP427      0.0152
    113  NE1      120.4180   34.3040   20.3700 N.ar  427  TRP427     -0.2442
    114  CE2      120.5160   34.5750   19.0330 C.ar  427  TRP427      0.0810
    115  CE3      122.2440   35.2110   17.4530 C.ar  427  TRP427      0.0012
    116  CZ2      119.5260   34.5840   18.0380 C.ar  427  TRP427      0.0191
    117  CZ3      121.2890   35.2010   16.4760 C.ar  427  TRP427      0.0001
    118  CH2      119.9290   34.8950   16.7720 C.ar  427  TRP427      0.0015
    119  N        112.7770   33.1780   20.8030 N.3   434  GLU434     -0.1231
    120  CA       113.6870   32.0880   21.0910 C.3   434  GLU434      0.1699
    121  C        113.1230   30.7310   20.6770 C.2   434  GLU434      0.2592
    122  O        113.1250   29.7810   21.4560 O.2   434  GLU434     -0.2718
    123  CB       114.0630   32.0990   22.5730 C.3   434  GLU434      0.0402
    124  CG       115.0940   31.0050   23.0130 C.3   434  GLU434      0.1161
    125  CD       116.3090   30.8910   22.0790 C.2   434  GLU434      0.3649
    126  OE1      116.6050   31.8950   21.3810 O.co2 434  GLU434     -0.2457
    127  OE2      116.9480   29.8000   22.0480 O.co2 434  GLU434     -0.2457
    128  N        112.6060   30.6310   19.4620 N.am  435  TRP435     -0.1976
    129  CA       112.2080   29.3250   18.9250 C.3   435  TRP435      0.1640
    130  C        111.2010   28.6130   19.8240 C.2   435  TRP435      0.2290
    131  O        110.1490   29.1960   20.1370 O.2   435  TRP435     -0.2864
    132  CB       113.4410   28.4700   18.6600 C.3   435  TRP435      0.0576
    133  CG       114.4240   29.1410   17.7580 C.ar  435  TRP435      0.0006
    134  CD1      115.6860   29.4630   18.0650 C.ar  435  TRP435      0.0946
    135  CD2      114.2170   29.5730   16.3980 C.ar  435  TRP435      0.0152
    136  NE1      116.3110   30.0560   16.9880 N.ar  435  TRP435     -0.2442
    137  CE2      115.4280   30.1270   15.9480 C.ar  435  TRP435      0.0810
    138  CE3      113.1410   29.5080   15.5130 C.ar  435  TRP435      0.0012
    139  CZ2      115.5970   30.6360   14.6550 C.ar  435  TRP435      0.0191
    140  CZ3      113.3080   30.0030   14.2190 C.ar  435  TRP435      0.0001
    141  CH2      114.5310   30.5680   13.8090 C.ar  435  TRP435      0.0015
    142  N        117.9570   36.7460   25.1750 N.3   443  PHE443     -0.1241
    143  CA       119.4120   36.7140   24.9340 C.3   443  PHE443      0.1605
    144  C        120.0730   38.0520   24.6200 C.2   443  PHE443      0.2264
    145  O        121.2840   38.1000   24.3710 O.2   443  PHE443     -0.2867
    146  CB       119.7500   35.7660   23.7780 C.3   443  PHE443      0.0534
    147  CG       119.8900   34.3370   24.1890 C.ar  443  PHE443     -0.0203
    148  CD1      121.0980   33.8590   24.6780 C.ar  443  PHE443     -0.0042
    149  CD2      118.7930   33.4730   24.1120 C.ar  443  PHE443     -0.0042
    150  CE1      121.2360   32.5010   25.0690 C.ar  443  PHE443     -0.0003
    151  CE2      118.8870   32.1400   24.4960 C.ar  443  PHE443     -0.0003
    152  CZ       120.1380   31.6420   24.9830 C.ar  443  PHE443     -0.0000
@<TRIPOS>BOND
     1    10    11    1
     2    22    23    2
     3    22    21    1
     4    34    35    1
     5    20    21    1
     6    20    12   am
     7    11    12    1
     8    11    14    1
     9    21    24    1
    10    12    13    2
    11    14    15    1
    12    35    38    1
    13    35    36    1
    14    24    25    1
    15    38    39    1
    16    37    36    2
    17    36    42   am
    18    26    25   ar
    19    26    28   ar
    20    15    16   ar
    21    15    17   ar
    22    25    27   ar
    23    16    18   ar
    24    42    43    1
    25    44    45    2
    26    44    43    1
    27    28    29   ar
    28    17    19   ar
    29    39    40    2
    30    39    41   am
    31    43    46    1
    32    27    29   ar
    33    27    30   ar
    34    18    19   ar
    35    29    31   ar
    36   141   140   ar
    37   141   139   ar
    38     1     2    1
    39   140   138   ar
    40    30    32   ar
    41    46    47    1
    42    61    60    2
    43   139   137   ar
    44    53    54    2
    45    53    52    1
    46    51    52    1
    47    60    59    1
    48    31    33   ar
    49    47    48    1
    50     2     3    1
    51     2     5    1
    52     3     4    2
    53   138   135   ar
    54    32    33   ar
    55    52    55    1
    56     8     7    2
    57    62    59    1
    58    62    63    1
    59     5     6    1
    60   137   135   ar
    61   137   136   ar
    62   104   102   ar
    63     6     7    1
    64    55    56    1
    65    55    57    1
    66    59    58    1
    67   135   133   ar
    68   117   118   ar
    69   117   115   ar
    70    48    49   ar
    71    48    50   ar
    72     7     9   am
    73   118   116   ar
    74    65    63   ar
    75    65    67   ar
    76   136   134   ar
    77    63    64   ar
    78   102   101    1
    79   102   103   ar
    80   101   100    1
    81    96    97    1
    82   115   112   ar
    83   133   134   ar
    84   133   132    1
    85    67    68   ar
    86   116   114   ar
    87   100    97    1
    88    64    66   ar
    89    97    98    1
    90   132   129    1
    91   112   114   ar
    92   112   110   ar
    93   129   128    1
    94   129   130    1
    95   114   113   ar
    96    68    66   ar
    97    68    69    1
    98   128   121   am
    99    98    99    2
   100   130   131    2
   101   110   109    1
   102   110   111   ar
   103   109   106    1
   104   113   111   ar
   105   106   105    1
   106   106   107    1
   107    81    80    1
   108   121   120    1
   109   121   122    2
   110   119   120    1
   111   120   123    1
   112    78    80   ar
   113    78    76   ar
   114   126   125   ar
   115    80    79   ar
   116   107   108    2
   117   127   125   ar
   118   125   124    1
   119    76    75   ar
   120   123   124    1
   121    79    77   ar
   122    75    77   ar
   123    75    74    1
   124    70    71    1
   125   146   147    1
   126   146   143    1
   127   149   147   ar
   128   149   151   ar
   129   147   148   ar
   130   145   144    2
   131   151   152   ar
   132   144   143    1
   133    74    71    1
   134   148   150   ar
   135    71    72    1
   136   143   142    1
   137   152   150   ar
   138    95    93   ar
   139    95    94   ar
   140    93    91   ar
   141    94    92   ar
   142    72    73    2
   143    91    89   ar
   144    91    90   ar
   145    92    89   ar
   146    89    87   ar
   147    90    88   ar
   148    88    87   ar
   149    87    86    1
   150    86    83    1
   151    85    84    2
   152    84    83    1
   153    83    82    1
