@<TRIPOS>MOLECULE
tmp/4atqF02.pdb
 115 109 0 0 0
SMALL
GASTEIGER

@<TRIPOS>ATOM
      1  N         34.4020   20.5080   87.0570 N.3   126  SER126     -0.1202
      2  CA        33.2600   19.7820   86.4780 C.3   126  SER126      0.2020
      3  C         32.1660   20.6870   85.9110 C.2   126  SER126      0.2619
      4  O         32.0560   21.8510   86.2710 O.2   126  SER126     -0.2717
      5  CB        32.6290   18.9010   87.5250 C.3   126  SER126      0.2103
      6  OG        32.0640   19.6860   88.5720 O.3   126  SER126     -0.2182
      7  N         31.3070   20.1300   85.0690 N.am  127  GLY127     -0.1942
      8  CA        30.1290   20.8410   84.6130 C.3   127  GLY127      0.2014
      9  C         29.2410   21.2640   85.7720 C.2   127  GLY127      0.2638
     10  O         28.7550   22.3950   85.8190 O.2   127  GLY127     -0.2714
     11  N         29.0230   20.3570   86.7130 N.am  128  ALA128     -0.1977
     12  CA        28.2490   20.6940   87.8540 C.3   128  ALA128      0.1597
     13  C         28.8360   21.9360   88.5310 C.2   128  ALA128      0.2287
     14  O         28.0800   22.8300   88.9840 O.2   128  ALA128     -0.2864
     15  CB        28.1920   19.5080   88.8060 C.3   128  ALA128      0.0319
     16  N         27.8130   25.0840   86.6710 N.3   131  VAL131     -0.1245
     17  CA        26.4200   25.4960   86.8580 C.3   131  VAL131      0.1561
     18  C         26.2650   26.0750   88.2500 C.2   131  VAL131      0.2260
     19  O         25.6130   27.0900   88.4400 O.2   131  VAL131     -0.2867
     20  CB        25.4460   24.3020   86.6170 C.3   131  VAL131      0.0252
     21  CG1       24.0100   24.5790   87.0190 C.3   131  VAL131      0.0019
     22  CG2       25.4880   23.9340   85.1340 C.3   131  VAL131      0.0019
     23  N         18.7660   18.4860   82.6710 N.3   154  TYR154     -0.1227
     24  CA        19.8330   17.8380   83.4330 C.3   154  TYR154      0.1736
     25  C         21.0020   18.8320   83.6030 C.2   154  TYR154      0.2595
     26  O         21.4460   19.4050   82.6180 O.2   154  TYR154     -0.2718
     27  CB        20.3420   16.5700   82.7480 C.3   154  TYR154      0.0548
     28  CG        21.4080   15.9260   83.5870 C.ar  154  TYR154     -0.0200
     29  CD1       22.7270   16.3380   83.4850 C.ar  154  TYR154     -0.0009
     30  CD2       21.0930   14.9780   84.5240 C.ar  154  TYR154     -0.0009
     31  CE1       23.7070   15.7860   84.2640 C.ar  154  TYR154      0.0417
     32  CE2       22.0610   14.4260   85.3070 C.ar  154  TYR154      0.0417
     33  CZ        23.3660   14.8290   85.1710 C.ar  154  TYR154      0.1957
     34  OH        24.3450   14.2880   85.9810 O.3   154  TYR154     -0.2866
     35  N         21.4550   19.0210   84.8420 N.am  155  HIS155     -0.1961
     36  CA        22.5060   19.9970   85.1360 C.3   155  HIS155      0.1787
     37  C         23.5450   19.5280   86.1450 C.2   155  HIS155      0.2621
     38  O         24.4930   20.2420   86.3930 O.2   155  HIS155     -0.2715
     39  CB        21.9080   21.2960   85.6560 C.3   155  HIS155      0.0785
     40  CG        20.9840   21.9560   84.7080 C.ar  155  HIS155      0.0821
     41  ND1       21.4110   22.5880   83.6330 N.ar  155  HIS155     -0.2267
     42  CD2       19.5890   22.0300   84.6920 C.ar  155  HIS155      0.1154
     43  CE1       20.3430   23.0510   82.9350 C.ar  155  HIS155      0.1986
     44  NE2       19.2320   22.7050   83.5970 N.ar  155  HIS155     -0.2212
     45  N         23.4310   18.3080   86.6750 N.am  156  GLY156     -0.1940
     46  CA        24.4830   17.7470   87.4890 C.3   156  GLY156      0.2014
     47  C         24.0500   16.9490   88.7020 C.2   156  GLY156      0.2638
     48  O         22.8520   16.8360   89.0060 O.2   156  GLY156     -0.2714
     49  N         25.0600   16.5040   89.4600 N.am  157  ARG157     -0.1977
     50  CA        24.8750   15.5880   90.5610 C.3   157  ARG157      0.1597
     51  C         25.2330   16.1290   91.9370 C.2   157  ARG157      0.2287
     52  O         25.2140   15.3810   92.9240 O.2   157  ARG157     -0.2864
     53  CB        25.6740   14.3410   90.2790 C.3   157  ARG157      0.0334
     54  CG        25.1580   13.5270   89.0880 C.3   157  ARG157      0.0492
     55  CD        26.0220   12.3000   88.9200 C.3   157  ARG157      0.2205
     56  NE        25.6100   11.4740   87.7950 N.pl3 157  ARG157     -0.0865
     57  CZ        24.9290   10.3420   87.8820 C.cat 157  ARG157      0.5346
     58  NH1       24.5350    9.8510   89.0660 N.pl3 157  ARG157      0.1354
     59  NH2       24.6040    9.7110   86.7740 N.pl3 157  ARG157      0.1354
     60  N         19.2730   24.3150   78.8430 N.3   226  GLU226     -0.1245
     61  CA        20.1190   23.7470   77.8310 C.3   226  GLU226      0.1567
     62  C         19.4870   24.0660   76.4850 C.2   226  GLU226      0.2260
     63  O         18.3420   23.7040   76.2550 O.2   226  GLU226     -0.2867
     64  CB        20.1760   22.2280   77.9910 C.3   226  GLU226      0.0388
     65  CG        20.6500   21.7390   79.3290 C.3   226  GLU226      0.1160
     66  CD        20.2720   20.2980   79.5450 C.2   226  GLU226      0.3649
     67  OE1       20.9690   19.4130   78.9780 O.co2 226  GLU226     -0.2457
     68  OE2       19.2930   20.0560   80.2800 O.co2 226  GLU226     -0.2457
     69  N         20.6540   14.8230   78.3980 N.3   231  GLU231     -0.1245
     70  CA        20.1060   13.6520   79.0620 C.3   231  GLU231      0.1567
     71  C         18.5900   13.5810   78.9890 C.2   231  GLU231      0.2260
     72  O         18.0340   12.5100   78.9800 O.2   231  GLU231     -0.2867
     73  CB        20.5310   13.5800   80.5140 C.3   231  GLU231      0.0388
     74  CG        22.0240   13.7280   80.7360 C.3   231  GLU231      0.1160
     75  CD        22.8490   12.7370   79.9530 C.2   231  GLU231      0.3649
     76  OE1       22.5700   11.5160   80.0510 O.co2 231  GLU231     -0.2457
     77  OE2       23.8030   13.1780   79.2590 O.co2 231  GLU231     -0.2457
     78  N         23.1520   26.4930   79.4720 N.3   259  ASP259     -0.1239
     79  CA        24.0140   25.4000   79.8920 C.3   259  ASP259      0.1674
     80  C         24.4950   24.6840   78.6820 C.2   259  ASP259      0.2266
     81  O         23.7850   23.8480   78.1050 O.2   259  ASP259     -0.2867
     82  CB        23.2770   24.4430   80.8030 C.3   259  ASP259      0.1410
     83  CG        24.1940   23.4180   81.4060 C.2   259  ASP259      0.3668
     84  OD1       25.3720   23.3810   80.9910 O.co2 259  ASP259     -0.2456
     85  OD2       23.7150   22.6110   82.2380 O.co2 259  ASP259     -0.2456
     86  N         27.1990   22.7660   78.4550 N.3   261  VAL261     -0.1231
     87  CA        28.1930   21.7910   78.8780 C.3   261  VAL261      0.1692
     88  C         28.2920   20.6390   77.8750 C.2   261  VAL261      0.2591
     89  O         29.3730   20.2550   77.4860 O.2   261  VAL261     -0.2718
     90  CB        27.8930   21.2780   80.2690 C.3   261  VAL261      0.0266
     91  CG1       28.6240   19.9770   80.4910 C.3   261  VAL261      0.0020
     92  CG2       28.3440   22.3170   81.2450 C.3   261  VAL261      0.0020
     93  N         27.1550   20.1470   77.4150 N.am  262  GLN262     -0.1979
     94  CA        27.1310   19.0750   76.4420 C.3   262  GLN262      0.1601
     95  C         27.1430   19.6190   75.0000 C.2   262  GLN262      0.2287
     96  O         27.7560   19.0100   74.1340 O.2   262  GLN262     -0.2864
     97  CB        25.9210   18.1370   76.6900 C.3   262  GLN262      0.0394
     98  CG        26.0330   16.7940   75.9660 C.3   262  GLN262      0.0908
     99  CD        25.0300   15.7430   76.4080 C.2   262  GLN262      0.2608
    100  OE1       24.5810   15.7090   77.5620 O.2   262  GLN262     -0.2717
    101  NE2       24.7130   14.8350   75.4850 N.am  262  GLN262     -0.0878
    102  N         31.8290   22.7340   79.9150 N.3   287  ALA287     -0.1231
    103  CA        32.7840   21.6670   80.3590 C.3   287  ALA287      0.1694
    104  C         33.0590   20.6930   79.1720 C.2   287  ALA287      0.2591
    105  O         33.1660   21.1420   78.0230 O.2   287  ALA287     -0.2718
    106  CB        32.2450   20.9550   81.5860 C.3   287  ALA287      0.0304
    107  N         33.1440   19.4050   79.4620 N.am  288  LYS288     -0.1980
    108  CA        33.2280   18.3660   78.4640 C.3   288  LYS288      0.1596
    109  C         34.2510   18.6510   77.3300 C.2   288  LYS288      0.2287
    110  O         35.4660   18.4580   77.5120 O.2   288  LYS288     -0.2864
    111  CB        31.8290   18.0450   77.9080 C.3   288  LYS288      0.0298
    112  CG        30.9680   17.1580   78.8060 C.3   288  LYS288      0.0038
    113  CD        29.5110   17.1730   78.3700 C.3   288  LYS288      0.0206
    114  CE        28.6110   15.9870   78.7990 C.3   288  LYS288      0.1093
    115  NZ        29.0040   15.2090   79.9880 N.3   288  LYS288     -0.1314
@<TRIPOS>BOND
     1    96    95    2
     2    95    94    1
     3   101    99   am
     4    98    99    1
     5    98    97    1
     6    63    62    2
     7    99   100    2
     8    94    97    1
     9    94    93    1
    10    62    61    1
    11   109   110    2
    12   109   108    1
    13    93    88   am
    14    89    88    2
    15    61    64    1
    16    61    60    1
    17    88    87    1
    18   111   108    1
    19   111   112    1
    20    64    65    1
    21   105   104    2
    22    81    80    2
    23   113   114    1
    24   113   112    1
    25    69    70    1
    26    86    87    1
    27   108   107    1
    28    80    79    1
    29   114   115    1
    30    87    90    1
    31    67    66   ar
    32    72    71    2
    33    71    70    1
    34    70    73    1
    35   104   107   am
    36   104   103    1
    37    77    75   ar
    38    65    66    1
    39    78    79    1
    40    66    68   ar
    41    79    82    1
    42   102   103    1
    43    75    76   ar
    44    75    74    1
    45    90    91    1
    46    90    92    1
    47   103   106    1
    48    73    74    1
    49    82    83    1
    50    84    83   ar
    51    83    85   ar
    52    26    25    2
    53    23    24    1
    54    27    24    1
    55    27    28    1
    56    43    44   ar
    57    43    41   ar
    58    24    25    1
    59    29    28   ar
    60    29    31   ar
    61    28    30   ar
    62    44    42   ar
    63    25    35   am
    64    41    40   ar
    65    31    33   ar
    66    30    32   ar
    67     8     7    1
    68     8     9    1
    69    42    40   ar
    70    40    39    1
    71    35    36    1
    72     7     3   am
    73    22    20    1
    74    36    39    1
    75    36    37    1
    76    33    32   ar
    77    33    34    1
    78     9    10    2
    79     9    11   am
    80     3     4    2
    81     3     2    1
    82    37    38    2
    83    37    45   am
    84     2     1    1
    85     2     5    1
    86    20    17    1
    87    20    21    1
    88    16    17    1
    89    45    46    1
    90    11    12    1
    91    59    57    1
    92    17    18    1
    93    46    47    1
    94     5     6    1
    95    56    57    2
    96    56    55    1
    97    12    13    1
    98    12    15    1
    99    57    58    1
   100    18    19    2
   101    13    14    2
   102    47    48    2
   103    47    49   am
   104    55    54    1
   105    54    53    1
   106    49    50    1
   107    53    50    1
   108    50    51    1
   109    51    52    2
