@<TRIPOS>MOLECULE
tmp/4attA00.pdb
 123 117 0 0 0
SMALL
GASTEIGER

@<TRIPOS>ATOM
      1  N        -11.8640    1.5470   -8.6700 N.3     1  PHE1       -0.1241
      2  CA       -11.9930    1.5730   -7.2210 C.3     1  PHE1        0.1605
      3  C        -10.9590    0.6570   -6.5950 C.2     1  PHE1        0.2264
      4  O        -10.8760   -0.5290   -6.9380 O.2     1  PHE1       -0.2867
      5  CB       -13.3900    1.1250   -6.7830 C.3     1  PHE1        0.0534
      6  CG       -13.6020    1.2010   -5.2980 C.ar    1  PHE1       -0.0203
      7  CD1      -14.0570    2.3690   -4.7060 C.ar    1  PHE1       -0.0042
      8  CD2      -13.3170    0.1140   -4.4820 C.ar    1  PHE1       -0.0042
      9  CE1      -14.2320    2.4480   -3.3400 C.ar    1  PHE1       -0.0003
     10  CE2      -13.4960    0.1910   -3.1120 C.ar    1  PHE1       -0.0003
     11  CZ       -13.9560    1.3580   -2.5450 C.ar    1  PHE1       -0.0000
     12  N         -8.1260   -2.9790   -7.6170 N.3    13  ILE13      -0.1231
     13  CA        -9.3580   -3.2090   -8.3640 C.3    13  ILE13       0.1692
     14  C         -9.7190   -4.6830   -8.3240 C.2    13  ILE13       0.2592
     15  O         -8.8560   -5.5410   -8.5480 O.2    13  ILE13      -0.2718
     16  CB        -9.1880   -2.7600   -9.8290 C.3    13  ILE13       0.0266
     17  CG1       -9.1650   -1.2310   -9.9220 C.3    13  ILE13       0.0019
     18  CG2      -10.2680   -3.3660  -10.7450 C.3    13  ILE13       0.0020
     19  CD1       -8.6490   -0.7220  -11.2450 C.3    13  ILE13       0.0001
     20  N        -10.9810   -4.9750   -8.0150 N.am   14  GLY14      -0.1957
     21  CA       -11.4510   -6.3460   -7.9690 C.3    14  GLY14       0.1869
     22  C        -11.5200   -6.9450   -6.5760 C.2    14  GLY14       0.2309
     23  O        -12.0460   -8.0460   -6.4040 O.2    14  GLY14      -0.2863
     24  N        -12.1990    6.3270   -6.1780 N.3    46  ASN46      -0.1225
     25  CA       -12.8880    5.9990   -7.4230 C.3    46  ASN46       0.1785
     26  C        -11.9520    6.2790   -8.6100 C.2    46  ASN46       0.2597
     27  O        -11.3780    7.3600   -8.6980 O.2    46  ASN46      -0.2718
     28  CB       -14.1510    6.8710   -7.4640 C.3    46  ASN46       0.1169
     29  CG       -15.0080    6.6830   -8.7130 C.2    46  ASN46       0.2627
     30  OD1      -14.5320    6.3640   -9.8010 O.2    46  ASN46      -0.2716
     31  ND2      -16.2950    6.9460   -8.5550 N.am   46  ASN46      -0.0877
     32  N        -11.7800    5.2960   -9.4940 N.am   47  ASP47      -0.1960
     33  CA       -10.8570    5.4350  -10.6150 C.3    47  ASP47       0.1840
     34  C        -11.4560    6.0750  -11.8670 C.2    47  ASP47       0.2622
     35  O        -10.7310    6.3110  -12.8340 O.2    47  ASP47      -0.2715
     36  CB       -10.2740    4.0690  -10.9830 C.3    47  ASP47       0.1450
     37  CG        -9.1970    3.6100  -10.0210 C.2    47  ASP47       0.3671
     38  OD1       -8.1580    4.2980   -9.9410 O.co2  47  ASP47      -0.2456
     39  OD2       -9.3670    2.5480   -9.3810 O.co2  47  ASP47      -0.2456
     40  N        -12.7600    6.3420  -11.8700 N.am   48  TYR48      -0.1974
     41  CA       -13.4050    6.8650  -13.0740 C.3    48  TYR48       0.1639
     42  C        -14.6650    7.6610  -12.7210 C.2    48  TYR48       0.2290
     43  O        -15.7630    7.3530  -13.2030 O.2    48  TYR48      -0.2864
     44  CB       -13.7370    5.6740  -13.9730 C.3    48  TYR48       0.0560
     45  CG       -14.1960    5.9510  -15.3820 C.ar   48  TYR48      -0.0198
     46  CD1      -13.9640    7.1670  -16.0070 C.ar   48  TYR48      -0.0009
     47  CD2      -14.8550    4.9610  -16.0940 C.ar   48  TYR48      -0.0009
     48  CE1      -14.3910    7.3890  -17.3140 C.ar   48  TYR48       0.0417
     49  CE2      -15.2880    5.1730  -17.3860 C.ar   48  TYR48       0.0417
     50  CZ       -15.0580    6.3920  -17.9910 C.ar   48  TYR48       0.1957
     51  OH       -15.4970    6.5910  -19.2880 O.3    48  TYR48      -0.2866
     52  N        -18.5700    7.0040  -13.4950 N.3    52  ILE52      -0.1245
     53  CA       -19.0150    5.9920  -12.5420 C.3    52  ILE52       0.1561
     54  C        -19.0620    6.5300  -11.1210 C.2    52  ILE52       0.2260
     55  O        -18.1570    7.2470  -10.6810 O.2    52  ILE52      -0.2867
     56  CB       -18.0720    4.7700  -12.5580 C.3    52  ILE52       0.0252
     57  CG1      -17.9080    4.2390  -13.9910 C.3    52  ILE52       0.0019
     58  CG2      -18.5580    3.6900  -11.5820 C.3    52  ILE52       0.0019
     59  CD1      -17.0780    2.9700  -14.0860 C.3    52  ILE52       0.0001
     60  N        -19.1350    4.9150   -7.3480 N.3    54  ASP54      -0.1239
     61  CA       -18.9540    3.6980   -6.5640 C.3    54  ASP54       0.1674
     62  C        -19.8290    3.7430   -5.3160 C.2    54  ASP54       0.2266
     63  O        -19.9500    4.7910   -4.6660 O.2    54  ASP54      -0.2867
     64  CB       -17.4850    3.5330   -6.1780 C.3    54  ASP54       0.1410
     65  CG       -16.6110    3.2020   -7.3640 C.2    54  ASP54       0.3668
     66  OD1      -17.0320    2.3240   -8.1440 O.co2  54  ASP54      -0.2456
     67  OD2      -15.5260    3.8100   -7.5150 O.co2  54  ASP54      -0.2456
     68  N        -18.0250   -3.1570   -2.5300 N.3   133  GLN133     -0.1245
     69  CA       -18.0520   -2.1120   -3.5470 C.3   133  GLN133      0.1566
     70  C        -18.8380   -2.5610   -4.7820 C.2   133  GLN133      0.2260
     71  O        -18.5420   -3.6070   -5.3830 O.2   133  GLN133     -0.2867
     72  CB       -16.6300   -1.7380   -3.9610 C.3   133  GLN133      0.0367
     73  CG       -16.5890   -0.7240   -5.0990 C.3   133  GLN133      0.0905
     74  CD       -16.0080   -1.2790   -6.3790 C.2   133  GLN133      0.2608
     75  OE1      -15.1320   -2.1520   -6.3570 O.2   133  GLN133     -0.2717
     76  NE2      -16.4790   -0.7650   -7.5080 N.am  133  GLN133     -0.0878
     77  N        -21.2800   -0.3780   -8.1450 N.3   135  ASN135     -0.1240
     78  CA       -21.3100    0.9290   -8.7940 C.3   135  ASN135      0.1653
     79  C        -22.5940    1.1350   -9.5830 C.2   135  ASN135      0.2266
     80  O        -23.4550    0.2460   -9.6070 O.2   135  ASN135     -0.2867
     81  CB       -20.0590    1.1280   -9.6580 C.3   135  ASN135      0.1155
     82  CG       -20.0030    0.1860  -10.8390 C.2   135  ASN135      0.2627
     83  OD1      -21.0220   -0.0980  -11.4720 O.2   135  ASN135     -0.2716
     84  ND2      -18.8140   -0.3230  -11.1350 N.am  135  ASN135     -0.0877
     85  N        -22.7630    1.6850  -12.8720 N.3   137  TYR137     -0.1227
     86  CA       -22.3760    1.6310  -14.2670 C.3   137  TYR137      0.1736
     87  C        -22.3610    0.2170  -14.8510 C.2   137  TYR137      0.2595
     88  O        -22.8410    0.0030  -15.9680 O.2   137  TYR137     -0.2718
     89  CB       -21.0000    2.2800  -14.4530 C.3   137  TYR137      0.0548
     90  CG       -20.5300    2.2370  -15.8800 C.ar  137  TYR137     -0.0200
     91  CD1      -21.0770    3.0920  -16.8310 C.ar  137  TYR137     -0.0009
     92  CD2      -19.5660    1.3240  -16.2860 C.ar  137  TYR137     -0.0009
     93  CE1      -20.6610    3.0490  -18.1490 C.ar  137  TYR137      0.0417
     94  CE2      -19.1440    1.2720  -17.6040 C.ar  137  TYR137      0.0417
     95  CZ       -19.6970    2.1360  -18.5260 C.ar  137  TYR137      0.1957
     96  OH       -19.2860    2.0920  -19.8400 O.3   137  TYR137     -0.2866
     97  N        -21.7810   -0.7350  -14.1240 N.am  138  ASN138     -0.1974
     98  CA       -21.6840   -2.1100  -14.6150 C.3   138  ASN138      0.1688
     99  C        -21.9500   -3.0800  -13.4740 C.2   138  ASN138      0.2292
    100  O        -22.4680   -2.6770  -12.4260 O.2   138  ASN138     -0.2864
    101  CB       -20.3380   -2.3750  -15.3160 C.3   138  ASN138      0.1181
    102  CG       -19.1450   -2.2190  -14.3970 C.2   138  ASN138      0.2629
    103  OD1      -19.2610   -2.3160  -13.1820 O.2   138  ASN138     -0.2716
    104  ND2      -17.9750   -1.9760  -14.9870 N.am  138  ASN138     -0.0877
    105  N        -19.8740   -4.8590  -11.5560 N.3   140  ASP140     -0.1239
    106  CA       -18.8180   -5.1180  -10.5770 C.3   140  ASP140      0.1674
    107  C        -19.3530   -5.1880   -9.1480 C.2   140  ASP140      0.2266
    108  O        -20.1070   -4.3120   -8.7110 O.2   140  ASP140     -0.2867
    109  CB       -17.7430   -4.0370  -10.6530 C.3   140  ASP140      0.1410
    110  CG       -16.8710   -4.1550  -11.8960 C.2   140  ASP140      0.3668
    111  OD1      -17.0990   -5.0630  -12.7290 O.co2 140  ASP140     -0.2456
    112  OD2      -15.9360   -3.3410  -12.0410 O.co2 140  ASP140     -0.2456
    113  N        -17.5410   -6.3790   -5.5540 N.3   142  PHE142     -0.1241
    114  CA       -16.2790   -6.8630   -5.0120 C.3   142  PHE142      0.1605
    115  C        -16.1980   -6.6320   -3.5150 C.2   142  PHE142      0.2264
    116  O        -16.6500   -5.6040   -3.0140 O.2   142  PHE142     -0.2867
    117  CB       -15.0990   -6.1310   -5.6590 C.3   142  PHE142      0.0534
    118  CG       -15.0050   -6.2960   -7.1470 C.ar  142  PHE142     -0.0203
    119  CD1      -15.0470   -7.5510   -7.7270 C.ar  142  PHE142     -0.0042
    120  CD2      -14.8340   -5.1920   -7.9600 C.ar  142  PHE142     -0.0042
    121  CE1      -14.9530   -7.6950   -9.1150 C.ar  142  PHE142     -0.0003
    122  CE2      -14.7200   -5.3320   -9.3410 C.ar  142  PHE142     -0.0003
    123  CZ       -14.7860   -6.5810   -9.9170 C.ar  142  PHE142     -0.0000
@<TRIPOS>BOND
     1    96    95    1
     2    51    50    1
     3    95    93   ar
     4    95    94   ar
     5    93    91   ar
     6    50    49   ar
     7    50    48   ar
     8    94    92   ar
     9    49    47   ar
    10    48    46   ar
    11    91    90   ar
    12    92    90   ar
    13    47    45   ar
    14    46    45   ar
    15    88    87    2
    16    90    89    1
    17    45    44    1
    18   101    98    1
    19   101   102    1
    20   104   102   am
    21    87    86    1
    22    87    97   am
    23    98    97    1
    24    98    99    1
    25    89    86    1
    26   102   103    2
    27    86    85    1
    28    59    57    1
    29    57    56    1
    30    44    41    1
    31    52    53    1
    32    99   100    2
    33    43    42    2
    34    41    42    1
    35    41    40    1
    36    35    34    2
    37   111   110   ar
    38    56    53    1
    39    56    58    1
    40    53    54    1
    41   112   110   ar
    42   110   109    1
    43    40    34   am
    44    34    33    1
    45   105   106    1
    46    83    82    2
    47    19    17    1
    48    84    82   am
    49    54    55    2
    50    36    33    1
    51    36    37    1
    52    82    81    1
    53    18    16    1
    54   109   106    1
    55    33    32    1
    56   106   107    1
    57    37    38   ar
    58    37    39   ar
    59    17    16    1
    60   123   122   ar
    61   123   121   ar
    62    16    13    1
    63    30    29    2
    64    81    78    1
    65    80    79    2
    66    79    78    1
    67    32    26   am
    68   122   120   ar
    69   107   108    2
    70   121   119   ar
    71    78    77    1
    72    29    31   am
    73    29    28    1
    74    27    26    2
    75     1     2    1
    76    26    25    1
    77    15    14    2
    78    13    14    1
    79    13    12    1
    80    14    20   am
    81    66    65   ar
    82    20    21    1
    83    21    22    1
    84   120   118   ar
    85   119   118   ar
    86    67    65   ar
    87    76    74   am
    88    28    25    1
    89    25    24    1
    90    65    64    1
    91    60    61    1
    92     2     5    1
    93     2     3    1
    94   118   117    1
    95     4     3    2
    96     5     6    1
    97    22    23    2
    98    61    64    1
    99    61    62    1
   100    74    75    2
   101    74    73    1
   102   117   114    1
   103   113   114    1
   104    71    70    2
   105    62    63    2
   106     6     7   ar
   107     6     8   ar
   108    73    72    1
   109   114   115    1
   110    70    69    1
   111     7     9   ar
   112     8    10   ar
   113    72    69    1
   114    69    68    1
   115   115   116    2
   116     9    11   ar
   117    10    11   ar
