@<TRIPOS>MOLECULE
tmp/4au0B06.pdb
 96 97 0 0 0
SMALL
GASTEIGER

@<TRIPOS>ATOM
      1  N        -35.5960  -11.1050  -22.9590 N.3   144  THR144     -0.1218
      2  CA       -37.0190  -10.7480  -22.9220 C.3   144  THR144      0.1862
      3  C        -37.7020  -10.9820  -21.5770 C.2   144  THR144      0.2287
      4  O        -38.8240  -10.5080  -21.3720 O.2   144  THR144     -0.2866
      5  CB       -37.8210  -11.5210  -23.9880 C.3   144  THR144      0.1770
      6  OG1      -37.7960  -12.9170  -23.6630 O.3   144  THR144     -0.2211
      7  CG2      -37.2420  -11.3000  -25.3920 C.3   144  THR144      0.0375
      8  N        -35.6700  -18.1140  -31.2330 N.3   182  HIS182     -0.1241
      9  CA       -36.2430  -18.2770  -32.5780 C.3   182  HIS182      0.1621
     10  C        -36.8680  -16.9950  -33.0820 C.2   182  HIS182      0.2264
     11  O        -36.8950  -15.9950  -32.3590 O.2   182  HIS182     -0.2867
     12  CB       -37.2590  -19.4270  -32.5890 C.3   182  HIS182      0.0745
     13  CG       -38.4250  -19.2240  -31.6480 C.ar  182  HIS182      0.0817
     14  ND1      -39.5640  -18.6200  -32.0310 N.ar  182  HIS182     -0.2268
     15  CD2      -38.5990  -19.5780  -30.3100 C.ar  182  HIS182      0.1154
     16  CE1      -40.4230  -18.5850  -30.9980 C.ar  182  HIS182      0.1986
     17  NE2      -39.8310  -19.1670  -29.9430 N.ar  182  HIS182     -0.2212
     18  N        -39.8600  -15.9630  -33.5100 N.3   184  GLY184     -0.1210
     19  CA       -40.9760  -15.4880  -32.6990 C.3   184  GLY184      0.1956
     20  C        -40.6230  -15.1510  -31.2730 C.2   184  GLY184      0.2611
     21  O        -41.5100  -14.9350  -30.4480 O.2   184  GLY184     -0.2717
     22  N        -39.3220  -15.1310  -30.9830 N.am  185  TRP185     -0.1976
     23  CA       -38.8210  -14.7670  -29.6670 C.3   185  TRP185      0.1640
     24  C        -37.9140  -13.5710  -29.7800 C.2   185  TRP185      0.2290
     25  O        -38.2510  -12.4730  -29.3010 O.2   185  TRP185     -0.2864
     26  CB       -38.0900  -15.9530  -29.0470 C.3   185  TRP185      0.0576
     27  CG       -37.8350  -15.8350  -27.5540 C.ar  185  TRP185      0.0006
     28  CD1      -37.9410  -14.6980  -26.7460 C.ar  185  TRP185      0.0946
     29  CD2      -37.3970  -16.9050  -26.6510 C.ar  185  TRP185      0.0152
     30  NE1      -37.6160  -14.9890  -25.4410 N.ar  185  TRP185     -0.2442
     31  CE2      -37.2780  -16.2990  -25.3170 C.ar  185  TRP185      0.0810
     32  CE3      -37.1070  -18.2670  -26.8070 C.ar  185  TRP185      0.0012
     33  CZ2      -36.8850  -17.0390  -24.2060 C.ar  185  TRP185      0.0191
     34  CZ3      -36.7120  -18.9980  -25.6740 C.ar  185  TRP185      0.0001
     35  CH2      -36.5990  -18.3970  -24.4140 C.ar  185  TRP185      0.0015
     36  N        -38.3480  -10.4740  -33.2360 N.3   188  TRP188     -0.1241
     37  CA       -39.0640   -9.2100  -33.0740 C.3   188  TRP188      0.1605
     38  C        -38.1280   -8.0330  -33.1340 C.2   188  TRP188      0.2264
     39  O        -37.0030   -8.1110  -32.6260 O.2   188  TRP188     -0.2867
     40  CB       -39.8140   -9.2160  -31.7550 C.3   188  TRP188      0.0550
     41  CG       -40.9790  -10.1650  -31.7570 C.ar  188  TRP188      0.0003
     42  CD1      -41.0240  -11.4590  -31.2490 C.ar  188  TRP188      0.0946
     43  CD2      -42.3130   -9.9260  -32.3160 C.ar  188  TRP188      0.0152
     44  NE1      -42.2670  -12.0160  -31.4390 N.ar  188  TRP188     -0.2442
     45  CE2      -43.0850  -11.1520  -32.0740 C.ar  188  TRP188      0.0810
     46  CE3      -42.9280   -8.8550  -32.9610 C.ar  188  TRP188      0.0012
     47  CZ2      -44.4100  -11.2730  -32.4670 C.ar  188  TRP188      0.0191
     48  CZ3      -44.2640   -8.9920  -33.3520 C.ar  188  TRP188      0.0001
     49  CH2      -44.9850  -10.1710  -33.1070 C.ar  188  TRP188      0.0015
     50  N        -36.1740   -6.7870  -30.1450 N.3   191  ASN191     -0.1240
     51  CA       -35.3470   -7.8030  -29.4860 C.3   191  ASN191      0.1653
     52  C        -34.0340   -8.1300  -30.1890 C.2   191  ASN191      0.2266
     53  O        -33.1310   -8.6830  -29.5690 O.2   191  ASN191     -0.2867
     54  CB       -36.1440   -9.0970  -29.3030 C.3   191  ASN191      0.1155
     55  CG       -37.3130   -8.9360  -28.3610 C.2   191  ASN191      0.2627
     56  OD1      -37.3400   -8.0250  -27.5220 O.2   191  ASN191     -0.2716
     57  ND2      -38.2890   -9.8290  -28.4820 N.am  191  ASN191     -0.0877
     58  N        -50.3980  -16.2480  -36.8750 N.3   233  TYR233     -0.1241
     59  CA       -49.8650  -15.9860  -35.5370 C.3   233  TYR233      0.1605
     60  C        -48.5640  -15.1810  -35.5600 C.2   233  TYR233      0.2264
     61  O        -48.1120  -14.7170  -34.5110 O.2   233  TYR233     -0.2867
     62  CB       -49.7120  -17.2920  -34.7240 C.3   233  TYR233      0.0534
     63  CG       -49.0440  -18.4350  -35.4650 C.ar  233  TYR233     -0.0201
     64  CD1      -47.6500  -18.5130  -35.5600 C.ar  233  TYR233     -0.0009
     65  CD2      -49.8030  -19.4400  -36.0680 C.ar  233  TYR233     -0.0009
     66  CE1      -47.0360  -19.5580  -36.2400 C.ar  233  TYR233      0.0417
     67  CE2      -49.1970  -20.4930  -36.7490 C.ar  233  TYR233      0.0417
     68  CZ       -47.8180  -20.5450  -36.8370 C.ar  233  TYR233      0.1957
     69  OH       -47.2150  -21.5800  -37.5130 O.3   233  TYR233     -0.2866
     70  N        -51.4620  -18.6420  -30.5400 N.3   279  GLN279     -0.1231
     71  CA       -50.6120  -17.4770  -30.3350 C.3   279  GLN279      0.1698
     72  C        -49.1650  -17.9420  -30.4880 C.2   279  GLN279      0.2592
     73  O        -48.8340  -19.0760  -30.1380 O.2   279  GLN279     -0.2718
     74  CB       -50.8490  -16.8420  -28.9640 C.3   279  GLN279      0.0381
     75  CG       -52.2730  -16.3290  -28.7560 C.3   279  GLN279      0.0905
     76  CD       -52.3850  -15.2760  -27.6690 C.2   279  GLN279      0.2608
     77  OE1      -51.4670  -14.4810  -27.4530 O.2   279  GLN279     -0.2717
     78  NE2      -53.5270  -15.2510  -26.9890 N.am  279  GLN279     -0.0878
     79  N        -48.3160  -17.0700  -31.0210 N.am  280  TRP280     -0.1962
     80  CA       -46.9450  -17.4500  -31.3660 C.3   280  TRP280      0.1771
     81  C        -46.1470  -17.8780  -30.1650 C.2   280  TRP280      0.2620
     82  O        -45.2850  -18.7590  -30.2650 O.2   280  TRP280     -0.2715
     83  CB       -46.2370  -16.3010  -32.0640 C.3   280  TRP280      0.0590
     84  CG       -45.1530  -16.7450  -33.0170 C.ar  280  TRP280      0.0006
     85  CD1      -44.6630  -18.0330  -33.2120 C.ar  280  TRP280      0.0946
     86  CD2      -44.3600  -15.8960  -33.9150 C.ar  280  TRP280      0.0152
     87  NE1      -43.6690  -18.0440  -34.1530 N.ar  280  TRP280     -0.2442
     88  CE2      -43.4330  -16.7960  -34.6140 C.ar  280  TRP280      0.0810
     89  CE3      -44.3270  -14.5330  -34.2010 C.ar  280  TRP280      0.0012
     90  CZ2      -42.5260  -16.3310  -35.5590 C.ar  280  TRP280      0.0191
     91  CZ3      -43.4040  -14.0740  -35.1480 C.ar  280  TRP280      0.0001
     92  CH2      -42.5270  -14.9540  -35.8140 C.ar  280  TRP280      0.0015
     93  N        -46.4240  -17.2460  -29.0230 N.am  281  GLY281     -0.1954
     94  CA       -45.7740  -17.5770  -27.7670 C.3   281  GLY281      0.1869
     95  C        -46.1550  -18.9070  -27.1310 C.2   281  GLY281      0.2309
     96  O        -45.6040  -19.2630  -26.0880 O.2   281  GLY281     -0.2863
@<TRIPOS>BOND
     1    69    68    1
     2    58    59    1
     3    68    67   ar
     4    68    66   ar
     5    67    65   ar
     6    66    64   ar
     7    65    63   ar
     8    92    90   ar
     9    92    91   ar
    10    60    59    1
    11    60    61    2
    12    64    63   ar
    13    90    88   ar
    14    59    62    1
    15    63    62    1
    16    91    89   ar
    17    88    87   ar
    18    88    86   ar
    19    89    86   ar
    20    87    85   ar
    21    86    84   ar
    22    18    19    1
    23    48    49   ar
    24    48    46   ar
    25    36    37    1
    26    85    84   ar
    27    38    37    1
    28    38    39    2
    29    49    47   ar
    30    10     9    1
    31    10    11    2
    32    37    40    1
    33    84    83    1
    34    46    43   ar
    35    19    20    1
    36    12     9    1
    37    12    13    1
    38     9     8    1
    39    47    45   ar
    40    43    45   ar
    41    43    41   ar
    42    45    44   ar
    43    83    80    1
    44    14    13   ar
    45    14    16   ar
    46    41    40    1
    47    41    42   ar
    48    13    15   ar
    49    44    42   ar
    50    80    79    1
    51    80    81    1
    52    20    22   am
    53    20    21    2
    54    79    72   am
    55    16    17   ar
    56    22    23    1
    57    70    71    1
    58    72    71    1
    59    72    73    2
    60    71    74    1
    61    15    17   ar
    62    82    81    2
    63    52    53    2
    64    52    51    1
    65    81    93   am
    66    50    51    1
    67    24    23    1
    68    24    25    2
    69    23    26    1
    70    51    54    1
    71    54    55    1
    72    26    27    1
    73    93    94    1
    74    74    75    1
    75    75    76    1
    76    57    55   am
    77    55    56    2
    78    94    95    1
    79    76    77    2
    80    76    78   am
    81    27    28   ar
    82    27    29   ar
    83    95    96    2
    84    32    29   ar
    85    32    34   ar
    86    28    30   ar
    87    29    31   ar
    88    34    35   ar
    89    30    31   ar
    90     7     5    1
    91    31    33   ar
    92    35    33   ar
    93     5     6    1
    94     5     2    1
    95     1     2    1
    96     2     3    1
    97     3     4    2
