@<TRIPOS>MOLECULE
tmp/4au0B07.pdb
 133 131 0 0 0
SMALL
GASTEIGER

@<TRIPOS>ATOM
      1  N        -34.3280  -22.9130  -17.0730 N.3    91  ASP91      -0.1239
      2  CA       -35.6530  -22.6650  -17.6760 C.3    91  ASP91       0.1674
      3  C        -36.3940  -21.5630  -16.9080 C.2    91  ASP91       0.2266
      4  O        -37.5590  -21.7090  -16.5420 O.2    91  ASP91      -0.2867
      5  CB       -36.4530  -23.9820  -17.7110 C.3    91  ASP91       0.1410
      6  CG       -37.6770  -23.9180  -18.6120 C.2    91  ASP91       0.3668
      7  OD1      -37.6870  -23.1410  -19.5890 O.co2  91  ASP91      -0.2456
      8  OD2      -38.6370  -24.6610  -18.3250 O.co2  91  ASP91      -0.2456
      9  N        -37.9520  -18.7470  -17.0450 N.3    93  ALA93      -0.1231
     10  CA       -39.2280  -18.0900  -17.3500 C.3    93  ALA93       0.1694
     11  C        -40.3730  -19.0960  -17.4930 C.2    93  ALA93       0.2591
     12  O        -41.4920  -18.7330  -17.8700 O.2    93  ALA93      -0.2718
     13  CB       -39.0930  -17.2610  -18.6090 C.3    93  ALA93       0.0304
     14  N        -40.0970  -20.3560  -17.1850 N.am   94  ALA94      -0.1980
     15  CA       -41.1120  -21.3910  -17.2910 C.3    94  ALA94       0.1597
     16  C        -41.0790  -22.3010  -16.0760 C.2    94  ALA94       0.2287
     17  O        -40.1600  -22.2270  -15.2570 O.2    94  ALA94      -0.2864
     18  CB       -40.9100  -22.1850  -18.5690 C.3    94  ALA94       0.0319
     19  N        -30.2070  -24.2720  -24.1900 N.3   136  PRO136     -0.2102
     20  CA       -31.4710  -23.7470  -24.7050 C.3   136  PRO136      0.1504
     21  C        -32.2580  -22.9340  -23.6790 C.2   136  PRO136      0.2575
     22  O        -32.2850  -23.2900  -22.5050 O.2   136  PRO136     -0.2718
     23  CB       -32.2340  -25.0160  -25.0880 C.3   136  PRO136      0.0282
     24  CG       -31.1600  -25.9350  -25.5480 C.3   136  PRO136      0.0208
     25  CD       -29.9960  -25.6720  -24.6150 C.3   136  PRO136      0.0893
     26  N        -32.8510  -21.8330  -24.1570 N.am  137  ALA137     -0.1980
     27  CA       -33.7430  -20.9300  -23.3990 C.3   137  ALA137      0.1597
     28  C        -33.0390  -19.8330  -22.5770 C.2   137  ALA137      0.2287
     29  O        -33.5930  -18.7480  -22.3740 O.2   137  ALA137     -0.2864
     30  CB       -34.7200  -21.7160  -22.5280 C.3   137  ALA137      0.0319
     31  N        -33.8780  -15.8220  -22.4840 N.3   141  ASN141     -0.1240
     32  CA       -34.6060  -15.3110  -21.3120 C.3   141  ASN141      0.1653
     33  C        -34.0120  -14.0400  -20.7250 C.2   141  ASN141      0.2266
     34  O        -34.7380  -13.2260  -20.1720 O.2   141  ASN141     -0.2867
     35  CB       -34.7530  -16.3880  -20.2340 C.3   141  ASN141      0.1155
     36  CG       -35.8580  -17.3720  -20.5600 C.2   141  ASN141      0.2627
     37  OD1      -36.9100  -16.9830  -21.0750 O.2   141  ASN141     -0.2716
     38  ND2      -35.6270  -18.6490  -20.2720 N.am  141  ASN141     -0.0877
     39  N        -35.5960  -11.1050  -22.9590 N.3   144  THR144     -0.1203
     40  CA       -37.0190  -10.7480  -22.9220 C.3   144  THR144      0.1994
     41  C        -37.7020  -10.9820  -21.5770 C.2   144  THR144      0.2617
     42  O        -38.8240  -10.5080  -21.3720 O.2   144  THR144     -0.2717
     43  CB       -37.8210  -11.5210  -23.9880 C.3   144  THR144      0.1784
     44  OG1      -37.7960  -12.9170  -23.6630 O.3   144  THR144     -0.2211
     45  CG2      -37.2420  -11.3000  -25.3920 C.3   144  THR144      0.0376
     46  N        -37.0520  -11.7240  -20.6830 N.am  145  ASN145     -0.1974
     47  CA       -37.6560  -12.0900  -19.3980 C.3   145  ASN145      0.1688
     48  C        -36.8970  -11.6520  -18.1560 C.2   145  ASN145      0.2292
     49  O        -36.9510  -12.3150  -17.1140 O.2   145  ASN145     -0.2864
     50  CB       -37.9240  -13.5930  -19.3390 C.3   145  ASN145      0.1181
     51  CG       -39.1770  -13.9740  -20.0730 C.2   145  ASN145      0.2629
     52  OD1      -40.2480  -13.4160  -19.8290 O.2   145  ASN145     -0.2716
     53  ND2      -39.0580  -14.9350  -20.9690 N.am  145  ASN145     -0.0877
     54  N        -35.6700  -18.1140  -31.2330 N.3   182  HIS182     -0.1241
     55  CA       -36.2430  -18.2770  -32.5780 C.3   182  HIS182      0.1621
     56  C        -36.8680  -16.9950  -33.0820 C.2   182  HIS182      0.2264
     57  O        -36.8950  -15.9950  -32.3590 O.2   182  HIS182     -0.2867
     58  CB       -37.2590  -19.4270  -32.5890 C.3   182  HIS182      0.0745
     59  CG       -38.4250  -19.2240  -31.6480 C.ar  182  HIS182      0.0817
     60  ND1      -39.5640  -18.6200  -32.0310 N.ar  182  HIS182     -0.2268
     61  CD2      -38.5990  -19.5780  -30.3100 C.ar  182  HIS182      0.1154
     62  CE1      -40.4230  -18.5850  -30.9980 C.ar  182  HIS182      0.1986
     63  NE2      -39.8310  -19.1670  -29.9430 N.ar  182  HIS182     -0.2212
     64  N        -39.8600  -15.9630  -33.5100 N.3   184  GLY184     -0.1210
     65  CA       -40.9760  -15.4880  -32.6990 C.3   184  GLY184      0.1956
     66  C        -40.6230  -15.1510  -31.2730 C.2   184  GLY184      0.2611
     67  O        -41.5100  -14.9350  -30.4480 O.2   184  GLY184     -0.2717
     68  N        -39.3220  -15.1310  -30.9830 N.am  185  TRP185     -0.1976
     69  CA       -38.8210  -14.7670  -29.6670 C.3   185  TRP185      0.1640
     70  C        -37.9140  -13.5710  -29.7800 C.2   185  TRP185      0.2290
     71  O        -38.2510  -12.4730  -29.3010 O.2   185  TRP185     -0.2864
     72  CB       -38.0900  -15.9530  -29.0470 C.3   185  TRP185      0.0576
     73  CG       -37.8350  -15.8350  -27.5540 C.ar  185  TRP185      0.0006
     74  CD1      -37.9410  -14.6980  -26.7460 C.ar  185  TRP185      0.0946
     75  CD2      -37.3970  -16.9050  -26.6510 C.ar  185  TRP185      0.0152
     76  NE1      -37.6160  -14.9890  -25.4410 N.ar  185  TRP185     -0.2442
     77  CE2      -37.2780  -16.2990  -25.3170 C.ar  185  TRP185      0.0810
     78  CE3      -37.1070  -18.2670  -26.8070 C.ar  185  TRP185      0.0012
     79  CZ2      -36.8850  -17.0390  -24.2060 C.ar  185  TRP185      0.0191
     80  CZ3      -36.7120  -18.9980  -25.6740 C.ar  185  TRP185      0.0001
     81  CH2      -36.5990  -18.3970  -24.4140 C.ar  185  TRP185      0.0015
     82  N        -34.7450  -24.1520  -31.4010 N.3   219  VAL219     -0.1231
     83  CA       -34.5840  -25.3560  -30.5750 C.3   219  VAL219      0.1692
     84  C        -35.8240  -25.5750  -29.7100 C.2   219  VAL219      0.2592
     85  O        -36.2410  -24.6960  -28.9550 O.2   219  VAL219     -0.2718
     86  CB       -33.3140  -25.2830  -29.6950 C.3   219  VAL219      0.0266
     87  CG1      -33.2530  -26.4440  -28.7070 C.3   219  VAL219      0.0020
     88  CG2      -32.0650  -25.2530  -30.5690 C.3   219  VAL219      0.0020
     89  N        -36.4120  -26.7570  -29.8400 N.am  220  ALA220     -0.1966
     90  CA       -37.6820  -27.1010  -29.1930 C.3   220  ALA220      0.1728
     91  C        -38.8390  -26.2020  -29.6300 C.2   220  ALA220      0.2616
     92  O        -39.8770  -26.1720  -28.9820 O.2   220  ALA220     -0.2715
     93  CB       -37.5390  -27.1380  -27.6680 C.3   220  ALA220      0.0334
     94  N        -38.6580  -25.4610  -30.7260 N.am  221  ASN221     -0.1972
     95  CA       -39.7720  -24.7320  -31.3210 C.3   221  ASN221      0.1688
     96  C        -40.1570  -25.2930  -32.6990 C.2   221  ASN221      0.2292
     97  O        -39.7450  -26.4010  -33.0640 O.2   221  ASN221     -0.2864
     98  CB       -39.5440  -23.2090  -31.3110 C.3   221  ASN221      0.1181
     99  CG       -40.8280  -22.4360  -31.0390 C.2   221  ASN221      0.2629
    100  OD1      -41.0940  -22.0100  -29.9100 O.2   221  ASN221     -0.2716
    101  ND2      -41.6420  -22.2820  -32.0670 N.am  221  ASN221     -0.0877
    102  N        -48.3160  -17.0700  -31.0210 N.3   280  TRP280     -0.1227
    103  CA       -46.9450  -17.4500  -31.3660 C.3   280  TRP280      0.1737
    104  C        -46.1470  -17.8780  -30.1650 C.2   280  TRP280      0.2596
    105  O        -45.2850  -18.7590  -30.2650 O.2   280  TRP280     -0.2718
    106  CB       -46.2370  -16.3010  -32.0640 C.3   280  TRP280      0.0564
    107  CG       -45.1530  -16.7450  -33.0170 C.ar  280  TRP280      0.0003
    108  CD1      -44.6630  -18.0330  -33.2120 C.ar  280  TRP280      0.0946
    109  CD2      -44.3600  -15.8960  -33.9150 C.ar  280  TRP280      0.0152
    110  NE1      -43.6690  -18.0440  -34.1530 N.ar  280  TRP280     -0.2442
    111  CE2      -43.4330  -16.7960  -34.6140 C.ar  280  TRP280      0.0810
    112  CE3      -44.3270  -14.5330  -34.2010 C.ar  280  TRP280      0.0012
    113  CZ2      -42.5260  -16.3310  -35.5590 C.ar  280  TRP280      0.0191
    114  CZ3      -43.4040  -14.0740  -35.1480 C.ar  280  TRP280      0.0001
    115  CH2      -42.5270  -14.9540  -35.8140 C.ar  280  TRP280      0.0015
    116  N        -46.4240  -17.2460  -29.0230 N.am  281  GLY281     -0.1957
    117  CA       -45.7740  -17.5770  -27.7670 C.3   281  GLY281      0.1869
    118  C        -46.1550  -18.9070  -27.1310 C.2   281  GLY281      0.2309
    119  O        -45.6040  -19.2630  -26.0880 O.2   281  GLY281     -0.2863
    120  N        -45.7020  -22.5200  -26.7290 N.3   283  TRP283     -0.1241
    121  CA       -44.5240  -23.3420  -27.0100 C.3   283  TRP283      0.1605
    122  C        -44.6680  -24.7690  -26.5630 C.2   283  TRP283      0.2264
    123  O        -43.8860  -25.6270  -26.9730 O.2   283  TRP283     -0.2867
    124  CB       -43.2790  -22.7220  -26.3570 C.3   283  TRP283      0.0550
    125  CG       -43.4470  -22.4440  -24.8760 C.ar  283  TRP283      0.0003
    126  CD1      -43.7560  -21.2270  -24.2710 C.ar  283  TRP283      0.0946
    127  CD2      -43.3360  -23.4050  -23.7610 C.ar  283  TRP283      0.0152
    128  NE1      -43.8360  -21.3620  -22.9050 N.ar  283  TRP283     -0.2442
    129  CE2      -43.5940  -22.6390  -22.5330 C.ar  283  TRP283      0.0810
    130  CE3      -43.0540  -24.7670  -23.6610 C.ar  283  TRP283      0.0012
    131  CZ2      -43.5760  -23.2320  -21.2790 C.ar  283  TRP283      0.0191
    132  CZ3      -43.0370  -25.3560  -22.3850 C.ar  283  TRP283      0.0001
    133  CH2      -43.3010  -24.6020  -21.2240 C.ar  283  TRP283      0.0015
@<TRIPOS>BOND
     1   115   113   ar
     2   115   114   ar
     3   113   111   ar
     4   114   112   ar
     5   111   110   ar
     6   111   109   ar
     7   112   109   ar
     8   110   108   ar
     9   109   107   ar
    10    64    65    1
    11   108   107   ar
    12    56    55    1
    13    56    57    2
    14    97    96    2
    15   107   106    1
    16    96    95    1
    17    65    66    1
    18    58    55    1
    19    58    59    1
    20    55    54    1
    21   101    99   am
    22   106   103    1
    23    60    59   ar
    24    60    62   ar
    25    59    61   ar
    26    82    83    1
    27   103   102    1
    28   103   104    1
    29    95    98    1
    30    95    94    1
    31    98    99    1
    32    66    68   am
    33    66    67    2
    34    99   100    2
    35    62    63   ar
    36    68    69    1
    37    94    91   am
    38    83    84    1
    39    83    86    1
    40    88    86    1
    41    61    63   ar
    42   105   104    2
    43   104   116   am
    44    89    84   am
    45    89    90    1
    46    70    69    1
    47    70    71    2
    48    84    85    2
    49    86    87    1
    50    69    72    1
    51    91    90    1
    52    91    92    2
    53    90    93    1
    54    72    73    1
    55   116   117    1
    56   117   118    1
    57    73    74   ar
    58    73    75   ar
    59   118   119    2
    60   121   120    1
    61   121   122    1
    62   121   124    1
    63   123   122    2
    64    78    75   ar
    65    78    80   ar
    66    74    76   ar
    67    75    77   ar
    68   124   125    1
    69    80    81   ar
    70    24    23    1
    71    24    25    1
    72    76    77   ar
    73    45    43    1
    74    77    79   ar
    75    23    20    1
    76   125   126   ar
    77   125   127   ar
    78    20    19    1
    79    20    21    1
    80    25    19    1
    81    81    79   ar
    82   126   128   ar
    83    26    21   am
    84    26    27    1
    85    43    44    1
    86    43    40    1
    87   127   130   ar
    88   127   129   ar
    89    21    22    2
    90   130   132   ar
    91    27    28    1
    92    27    30    1
    93    39    40    1
    94    40    41    1
    95   128   129   ar
    96    28    29    2
    97   129   131   ar
    98    31    32    1
    99   132   133   ar
   100    41    42    2
   101    41    46   am
   102    32    33    1
   103    32    35    1
   104   131   133   ar
   105    37    36    2
   106    53    51   am
   107    33    34    2
   108    46    47    1
   109    36    38   am
   110    36    35    1
   111    51    52    2
   112    51    50    1
   113     7     6   ar
   114    47    50    1
   115    47    48    1
   116     6     8   ar
   117     6     5    1
   118    13    10    1
   119    18    15    1
   120    48    49    2
   121    12    11    2
   122     5     2    1
   123     2     1    1
   124     2     3    1
   125    11    10    1
   126    11    14   am
   127    10     9    1
   128    15    14    1
   129    15    16    1
   130     3     4    2
   131    16    17    2
