@<TRIPOS>MOLECULE
tmp/4au0B08.pdb
 124 117 0 0 0
SMALL
GASTEIGER

@<TRIPOS>ATOM
      1  N        -29.6640  -34.9090  -25.3470 N.3    51  TRP51      -0.1241
      2  CA       -29.6730  -33.8730  -24.3210 C.3    51  TRP51       0.1605
      3  C        -29.0480  -34.3700  -23.0550 C.2    51  TRP51       0.2264
      4  O        -29.4650  -35.4000  -22.5050 O.2    51  TRP51      -0.2867
      5  CB       -31.0950  -33.4350  -24.0390 C.3    51  TRP51       0.0550
      6  CG       -31.7260  -32.6460  -25.1570 C.ar   51  TRP51       0.0003
      7  CD1      -31.9630  -33.0560  -26.4690 C.ar   51  TRP51       0.0946
      8  CD2      -32.2370  -31.2720  -25.0860 C.ar   51  TRP51       0.0152
      9  NE1      -32.5580  -32.0560  -27.1880 N.ar   51  TRP51      -0.2442
     10  CE2      -32.7490  -30.9570  -26.4190 C.ar   51  TRP51       0.0810
     11  CE3      -32.3100  -30.3060  -24.0850 C.ar   51  TRP51       0.0012
     12  CZ2      -33.3230  -29.7230  -26.7170 C.ar   51  TRP51       0.0191
     13  CZ3      -32.8830  -29.0670  -24.3960 C.ar   51  TRP51       0.0001
     14  CH2      -33.3770  -28.7860  -25.6820 C.ar   51  TRP51       0.0015
     15  N        -29.3620  -33.5100  -19.9410 N.3    53  ASP53      -0.1239
     16  CA       -30.2230  -32.7420  -19.0300 C.3    53  ASP53       0.1674
     17  C        -29.9770  -33.0140  -17.5400 C.2    53  ASP53       0.2266
     18  O        -30.5060  -32.3080  -16.6800 O.2    53  ASP53      -0.2867
     19  CB       -31.7130  -32.9060  -19.3920 C.3    53  ASP53       0.1410
     20  CG       -32.2120  -34.3430  -19.2340 C.2    53  ASP53       0.3668
     21  OD1      -31.5740  -35.2570  -19.7780 O.co2  53  ASP53      -0.2456
     22  OD2      -33.2400  -34.5650  -18.5630 O.co2  53  ASP53      -0.2456
     23  N        -26.6010  -38.0580  -17.2290 N.3    57  LYS57      -0.1245
     24  CA       -26.6370  -38.3270  -18.6650 C.3    57  LYS57       0.1561
     25  C        -25.2530  -38.3850  -19.2950 C.2    57  LYS57       0.2260
     26  O        -25.0990  -38.9100  -20.4030 O.2    57  LYS57      -0.2867
     27  CB       -27.4830  -37.2720  -19.3910 C.3    57  LYS57       0.0271
     28  CG       -28.7750  -37.7950  -20.0020 C.3    57  LYS57       0.0035
     29  CD       -29.8310  -38.1300  -18.9610 C.3    57  LYS57       0.0206
     30  CE       -31.0620  -38.7770  -19.5890 C.3    57  LYS57       0.1093
     31  NZ       -31.8830  -37.8470  -20.4270 N.3    57  LYS57      -0.1314
     32  N        -27.2920  -28.7810  -21.1550 N.3    85  TYR85      -0.1241
     33  CA       -28.5550  -28.2710  -20.6390 C.3    85  TYR85       0.1605
     34  C        -28.7460  -28.6030  -19.1570 C.2    85  TYR85       0.2264
     35  O        -29.5010  -29.4910  -18.8060 O.2    85  TYR85      -0.2867
     36  CB       -29.7220  -28.8150  -21.4850 C.3    85  TYR85       0.0534
     37  CG       -31.0780  -28.3040  -21.0690 C.ar   85  TYR85      -0.0201
     38  CD1      -31.3680  -26.9440  -21.1350 C.ar   85  TYR85      -0.0009
     39  CD2      -32.0610  -29.1740  -20.5890 C.ar   85  TYR85      -0.0009
     40  CE1      -32.6050  -26.4560  -20.7520 C.ar   85  TYR85       0.0417
     41  CE2      -33.3090  -28.7000  -20.2020 C.ar   85  TYR85       0.0417
     42  CZ       -33.5720  -27.3340  -20.2850 C.ar   85  TYR85       0.1957
     43  OH       -34.7890  -26.8120  -19.9010 O.3    85  TYR85      -0.2866
     44  N        -32.4850  -23.5310  -14.0050 N.3    90  ARG90      -0.1245
     45  CA       -32.7350  -23.7200  -15.4240 C.3    90  ARG90       0.1563
     46  C        -34.1570  -23.3120  -15.8100 C.2    90  ARG90       0.2260
     47  O        -35.0660  -23.3680  -14.9730 O.2    90  ARG90      -0.2867
     48  CB       -32.5660  -25.1990  -15.7360 C.3    90  ARG90       0.0307
     49  CG       -32.2900  -25.5310  -17.1850 C.3    90  ARG90       0.0489
     50  CD       -31.9770  -27.0170  -17.2920 C.3    90  ARG90       0.2205
     51  NE       -33.1340  -27.8780  -17.0330 N.pl3  90  ARG90      -0.0865
     52  CZ       -33.0660  -29.2060  -16.9670 C.cat  90  ARG90       0.5346
     53  NH1      -31.9010  -29.8190  -17.1350 N.pl3  90  ARG90       0.1354
     54  NH2      -34.1560  -29.9260  -16.7280 N.pl3  90  ARG90       0.1354
     55  N        -39.6260  -27.2930  -17.0570 N.3    97  SER97      -0.1217
     56  CA       -38.3360  -27.9520  -17.2040 C.3    97  SER97       0.1889
     57  C        -37.2820  -27.4790  -16.1980 C.2    97  SER97       0.2288
     58  O        -36.0900  -27.4680  -16.5030 O.2    97  SER97      -0.2866
     59  CB       -37.8320  -27.8060  -18.6420 C.3    97  SER97       0.2089
     60  OG       -36.6400  -28.5540  -18.8370 O.3    97  SER97      -0.2183
     61  N        -36.4120  -26.7570  -29.8400 N.3   220  ALA220     -0.1245
     62  CA       -37.6820  -27.1010  -29.1930 C.3   220  ALA220      0.1562
     63  C        -38.8390  -26.2020  -29.6300 C.2   220  ALA220      0.2260
     64  O        -39.8770  -26.1720  -28.9820 O.2   220  ALA220     -0.2867
     65  CB       -37.5390  -27.1380  -27.6680 C.3   220  ALA220      0.0290
     66  N        -34.4020  -30.7470  -30.5630 N.3   311  LYS311     -0.1231
     67  CA       -35.4300  -31.3360  -29.7140 C.3   311  LYS311      0.1678
     68  C        -35.8980  -32.6730  -30.3230 C.2   311  LYS311      0.2434
     69  O        -36.3590  -32.6850  -31.4570 O.2   311  LYS311     -0.2733
     70  CB       -36.6000  -30.3640  -29.5590 C.3   311  LYS311      0.0284
     71  CG       -37.8200  -30.9410  -28.8510 C.3   311  LYS311      0.0035
     72  CD       -37.5570  -31.1700  -27.3690 C.3   311  LYS311      0.0206
     73  CE       -38.7690  -31.8330  -26.7390 C.3   311  LYS311      0.1093
     74  NZ       -38.6730  -31.9940  -25.2640 N.3   311  LYS311     -0.1314
     75  N        -35.7550  -33.8010  -29.5850 N.am  312  PRO312     -0.2729
     76  CA       -36.1710  -35.0800  -30.1660 C.3   312  PRO312      0.1401
     77  C        -37.6890  -35.2530  -30.1110 C.2   312  PRO312      0.2269
     78  O        -38.2650  -35.3930  -29.0290 O.2   312  PRO312     -0.2865
     79  CB       -35.4660  -36.1140  -29.2770 C.3   312  PRO312      0.0296
     80  CG       -34.3960  -35.3590  -28.5560 C.3   312  PRO312      0.0237
     81  CD       -35.0360  -34.0170  -28.3180 C.3   312  PRO312      0.0939
     82  N        -40.4360  -36.5760  -27.2940 N.3   315  GLU315     -0.1231
     83  CA       -40.0860  -36.2040  -25.9210 C.3   315  GLU315      0.1699
     84  C        -40.8700  -34.9700  -25.5130 C.2   315  GLU315      0.2592
     85  O        -40.8260  -33.9390  -26.1870 O.2   315  GLU315     -0.2718
     86  CB       -38.5830  -35.9930  -25.7680 C.3   315  GLU315      0.0402
     87  CG       -37.8020  -37.2720  -26.0650 C.3   315  GLU315      0.1161
     88  CD       -36.3050  -37.1410  -25.8820 C.2   315  GLU315      0.3649
     89  OE1      -35.8320  -36.0630  -25.4590 O.co2 315  GLU315     -0.2457
     90  OE2      -35.5940  -38.1330  -26.1530 O.co2 315  GLU315     -0.2457
     91  N        -41.6030  -35.0860  -24.4110 N.am  316  CYS316     -0.1956
     92  CA       -42.5690  -34.0680  -24.0190 C.3   316  CYS316      0.1843
     93  C        -41.9250  -32.7300  -23.6560 C.2   316  CYS316      0.2625
     94  O        -40.7680  -32.6970  -23.2480 O.2   316  CYS316     -0.2714
     95  CB       -43.3800  -34.5630  -22.8300 C.3   316  CYS316      0.0997
     96  SG       -44.8440  -33.5740  -22.5370 S.3   316  CYS316     -0.0797
     97  N        -42.6900  -31.6450  -23.7990 N.am  317  ASP317     -0.1971
     98  CA       -42.2460  -30.2960  -23.3950 C.3   317  ASP317      0.1709
     99  C        -42.6290  -29.9370  -21.9610 C.2   317  ASP317      0.2293
    100  O        -42.1000  -28.9820  -21.3890 O.2   317  ASP317     -0.2864
    101  CB       -42.8250  -29.2150  -24.3120 C.3   317  ASP317      0.1436
    102  CG       -42.3360  -29.3280  -25.7440 C.2   317  ASP317      0.3671
    103  OD1      -41.1490  -29.6270  -25.9630 O.co2 317  ASP317     -0.2456
    104  OD2      -43.1510  -29.1000  -26.6440 O.co2 317  ASP317     -0.2456
    105  N        -44.0700  -29.1820  -11.5500 N.3   326  ARG326     -0.1245
    106  CA       -43.5620  -28.5940  -12.8040 C.3   326  ARG326      0.1563
    107  C        -44.6680  -28.3470  -13.8310 C.2   326  ARG326      0.2260
    108  O        -44.4290  -28.3850  -15.0350 O.2   326  ARG326     -0.2867
    109  CB       -42.4090  -29.4170  -13.4120 C.3   326  ARG326      0.0307
    110  CG       -41.1680  -29.5510  -12.5360 C.3   326  ARG326      0.0489
    111  CD       -39.9260  -29.9950  -13.3080 C.3   326  ARG326      0.2205
    112  NE       -40.1380  -31.2030  -14.1170 N.pl3 326  ARG326     -0.0865
    113  CZ       -39.3040  -31.6440  -15.0570 C.cat 326  ARG326      0.5346
    114  NH1      -38.1710  -31.0010  -15.3160 N.pl3 326  ARG326      0.1354
    115  NH2      -39.5930  -32.7470  -15.7360 N.pl3 326  ARG326      0.1354
    116  N        -42.0030  -33.0800  -18.7500 N.3   343  ALA343     -0.1231
    117  CA       -41.0200  -32.6660  -19.7440 C.3   343  ALA343      0.1694
    118  C        -39.9160  -33.7140  -19.8290 C.2   343  ALA343      0.2592
    119  O        -39.3950  -34.1580  -18.8040 O.2   343  ALA343     -0.2718
    120  CB       -40.4310  -31.3040  -19.3790 C.3   343  ALA343      0.0304
    121  N        -39.5800  -34.1220  -21.0530 N.am  344  GLY344     -0.1957
    122  CA       -38.5390  -35.1130  -21.2670 C.3   344  GLY344      0.1869
    123  C        -39.0500  -36.5420  -21.3810 C.2   344  GLY344      0.2309
    124  O        -38.4110  -37.3840  -22.0130 O.2   344  GLY344     -0.2863
@<TRIPOS>BOND
     1    69    68    2
     2    66    67    1
     3    68    67    1
     4    68    75   am
     5    76    77    1
     6    76    75    1
     7    76    79    1
     8    77    78    2
     9    61    62    1
    10    67    70    1
    11    63    62    1
    12    63    64    2
    13    75    81    1
    14    70    71    1
    15    79    80    1
    16    62    65    1
    17    71    72    1
    18    80    81    1
    19    72    73    1
    20    82    83    1
    21     9     7   ar
    22     9    10   ar
    23    73    74    1
    24    12    10   ar
    25    12    14   ar
    26   104   102   ar
    27     7     6   ar
    28    10     8   ar
    29    85    84    2
    30    90    88   ar
    31    87    88    1
    32    87    86    1
    33   103   102   ar
    34    83    86    1
    35    83    84    1
    36    88    89   ar
    37   102   101    1
    38    14    13   ar
    39    84    91   am
    40     1     2    1
    41     6     8   ar
    42     6     5    1
    43     8    11   ar
    44    91    92    1
    45    13    11   ar
    46     2     5    1
    47     2     3    1
    48   101    98    1
    49    92    93    1
    50    92    95    1
    51    97    93   am
    52    97    98    1
    53    93    94    2
    54    98    99    1
    55     3     4    2
    56    95    96    1
    57   124   123    2
    58    99   100    2
    59    36    37    1
    60    36    33    1
    61   123   122    1
    62   122   121    1
    63    32    33    1
    64    38    37   ar
    65    38    40   ar
    66    37    39   ar
    67   121   118   am
    68    40    42   ar
    69    33    34    1
    70    39    41   ar
    71    31    30    1
    72    26    25    2
    73    42    41   ar
    74    42    43    1
    75    28    27    1
    76    28    29    1
    77    15    16    1
    78   118   117    1
    79   118   119    2
    80    21    20   ar
    81   117   120    1
    82   117   116    1
    83    30    29    1
    84    19    20    1
    85    19    16    1
    86    27    24    1
    87    25    24    1
    88    20    22   ar
    89    34    35    2
    90    16    17    1
    91    60    59    1
    92    24    23    1
    93    59    56    1
    94    17    18    2
    95    50    49    1
    96    50    51    1
    97    56    55    1
    98    56    57    1
    99    49    48    1
   100    53    52    1
   101    51    52    2
   102    52    54    1
   103    58    57    2
   104    46    45    1
   105    46    47    2
   106    48    45    1
   107   115   113    1
   108    45    44    1
   109   114   113    1
   110   113   112    2
   111   108   107    2
   112   112   111    1
   113   107   106    1
   114   109   106    1
   115   109   110    1
   116   111   110    1
   117   106   105    1
