@<TRIPOS>MOLECULE
tmp/4au1A00.pdb
 113 103 0 0 0
SMALL
GASTEIGER

@<TRIPOS>ATOM
      1  N          5.0650   34.2380    4.9320 N.3     8  GLY8       -0.1225
      2  CA         3.9230   34.1070    5.8300 C.3     8  GLY8        0.1811
      3  C          2.6490   33.6130    5.1640 C.2     8  GLY8        0.2280
      4  O          1.9730   32.7310    5.7040 O.2     8  GLY8       -0.2866
      5  N          3.1790   29.9700    4.5970 N.3    11  ILE11      -0.1231
      6  CA         3.1080   29.2130    5.8560 C.3    11  ILE11       0.1692
      7  C          1.6360   28.9280    6.2210 C.2    11  ILE11       0.2592
      8  O          1.3240   27.8000    6.6090 O.2    11  ILE11      -0.2718
      9  CB         3.8400   30.0180    6.9600 C.3    11  ILE11       0.0266
     10  CG1        5.3360   29.9810    6.7200 C.3    11  ILE11       0.0019
     11  CG2        3.5200   29.4930    8.3640 C.3    11  ILE11       0.0020
     12  CD1        6.1270   31.1940    7.4200 C.3    11  ILE11       0.0001
     13  N          0.7450   29.9530    6.0810 N.am   12  TYR12      -0.1976
     14  CA        -0.6950   29.8140    6.3650 C.3    12  TYR12       0.1639
     15  C         -1.2900   28.7030    5.4950 C.2    12  TYR12       0.2290
     16  O         -1.9410   27.7840    6.0050 O.2    12  TYR12      -0.2864
     17  CB        -1.4620   31.1340    6.0890 C.3    12  TYR12       0.0560
     18  CG        -1.8330   31.9710    7.2930 C.ar   12  TYR12      -0.0198
     19  CD1       -2.7220   31.4930    8.2520 C.ar   12  TYR12      -0.0009
     20  CD2       -1.4080   33.2930    7.4040 C.ar   12  TYR12      -0.0009
     21  CE1       -3.1050   32.2770    9.3400 C.ar   12  TYR12       0.0417
     22  CE2       -1.8000   34.0940    8.4800 C.ar   12  TYR12       0.0417
     23  CZ        -2.6420   33.5790    9.4490 C.ar   12  TYR12       0.1957
     24  OH        -3.0030   34.3550   10.5240 O.3    12  TYR12      -0.2866
     25  N          0.0150   25.3000    6.6070 N.3    15  SER15      -0.1217
     26  CA        -0.5580   24.9410    7.8940 C.3    15  SER15       0.1889
     27  C         -1.9610   24.3860    7.6970 C.2    15  SER15       0.2288
     28  O         -2.2700   23.3010    8.2080 O.2    15  SER15      -0.2866
     29  CB        -0.6310   26.1790    8.7740 C.3    15  SER15       0.2089
     30  OG        -1.0080   25.8220   10.1020 O.3    15  SER15      -0.2183
     31  N         -9.4230   26.8400   11.4830 N.3    38  ARG38      -0.1245
     32  CA        -8.6720   27.9690   12.0270 C.3    38  ARG38       0.1563
     33  C         -8.4230   27.7760   13.5430 C.2    38  ARG38       0.2260
     34  O         -7.3480   28.1570   14.0320 O.2    38  ARG38      -0.2867
     35  CB        -9.3770   29.2930   11.7220 C.3    38  ARG38       0.0307
     36  CG        -8.3250   30.4010   11.5880 C.3    38  ARG38       0.0489
     37  CD        -8.9020   31.7960   11.3670 C.3    38  ARG38       0.2205
     38  NE        -7.8110   32.7470   11.1230 N.pl3  38  ARG38      -0.0865
     39  CZ        -7.3050   32.9980    9.9160 C.cat  38  ARG38       0.5346
     40  NH1       -7.8590   32.4650    8.8240 N.pl3  38  ARG38       0.1354
     41  NH2       -6.2780   33.8270    9.7830 N.pl3  38  ARG38       0.1354
     42  N         -5.5560   25.3770   13.8990 N.3    41  HIS41      -0.1226
     43  CA        -4.3650   26.1490   13.5560 C.3    41  HIS41       0.1752
     44  C         -3.8810   26.9720   14.7520 C.2    41  HIS41       0.2595
     45  O         -2.6920   26.9300   15.0820 O.2    41  HIS41      -0.2718
     46  CB        -4.6910   27.0320   12.3290 C.3    41  HIS41       0.0759
     47  CG        -3.6930   28.0970   11.9890 C.ar   41  HIS41       0.0818
     48  ND1       -2.5810   27.8230   11.2030 N.ar   41  HIS41      -0.2268
     49  CD2       -3.6860   29.4050   12.3300 C.ar   41  HIS41       0.1154
     50  CE1       -1.9400   28.9760   11.0860 C.ar   41  HIS41       0.1986
     51  NE2       -2.5630   29.9600   11.7370 N.ar   41  HIS41      -0.2212
     52  N         -4.8000   27.6940   15.4180 N.am   42  ALA42      -0.1980
     53  CA        -4.4160   28.5230   16.5650 C.3    42  ALA42       0.1597
     54  C         -3.8810   27.7080   17.7400 C.2    42  ALA42       0.2287
     55  O         -2.9710   28.1770   18.4390 O.2    42  ALA42      -0.2864
     56  CB        -5.6090   29.3160   17.0240 C.3    42  ALA42       0.0319
     57  N         -2.4930   24.5780   17.5400 N.3    44  GLY44      -0.1225
     58  CA        -1.4120   23.6520   17.2010 C.3    44  GLY44       0.1811
     59  C         -1.7770   22.2210   17.5800 C.2    44  GLY44       0.2280
     60  O         -0.9080   21.4430   17.9710 O.2    44  GLY44      -0.2866
     61  N         -6.6390   39.7240   25.7620 N.3    78  MET78      -0.1245
     62  CA        -5.9490   38.8280   24.8320 C.3    78  MET78       0.1570
     63  C         -6.8550   38.5130   23.6520 C.2    78  MET78       0.2261
     64  O         -6.3570   38.3950   22.5310 O.2    78  MET78      -0.2867
     65  CB        -5.4590   37.5480   25.5130 C.3    78  MET78       0.0387
     66  CG        -4.3830   37.8140   26.5430 C.3    78  MET78       0.0595
     67  SD        -3.6370   36.3500   27.3270 S.3    78  MET78      -0.1393
     68  CE        -2.9550   35.4640   25.7850 C.3    78  MET78       0.0692
     69  N         -7.4440   42.0530   21.5800 N.3    81  GLU81      -0.1231
     70  CA        -6.1990   42.4350   20.8980 C.3    81  GLU81       0.1699
     71  C         -5.7590   41.4490   19.8160 C.2    81  GLU81       0.2592
     72  O         -4.9860   41.8210   18.9240 O.2    81  GLU81      -0.2718
     73  CB        -5.0870   42.7410   21.9180 C.3    81  GLU81       0.0402
     74  CG        -5.3720   44.0250   22.6850 C.3    81  GLU81       0.1161
     75  CD        -5.3650   45.3070   21.8750 C.2    81  GLU81       0.3649
     76  OE1       -4.5030   45.4420   20.9770 O.co2  81  GLU81      -0.2457
     77  OE2       -6.2230   46.1810   22.1390 O.co2  81  GLU81      -0.2457
     78  N         -6.2940   40.2420   19.8580 N.am   82  GLY82      -0.1957
     79  CA        -6.0020   39.1960   18.8860 C.3    82  GLY82       0.1869
     80  C         -6.7920   39.2650   17.6040 C.2    82  GLY82       0.2309
     81  O         -6.3830   38.7060   16.5750 O.2    82  GLY82      -0.2863
     82  N         -8.0370   40.2720   14.2110 N.3    84  THR84      -0.1218
     83  CA        -7.3190   40.9190   13.1140 C.3    84  THR84       0.1862
     84  C         -8.2360   41.9870   12.4930 C.2    84  THR84       0.2287
     85  O         -9.2060   41.6690   11.8030 O.2    84  THR84      -0.2866
     86  CB        -6.8960   39.8630   12.0740 C.3    84  THR84       0.1770
     87  OG1       -6.1510   38.8200   12.7160 O.3    84  THR84      -0.2211
     88  CG2       -6.0790   40.4760   10.9090 C.3    84  THR84       0.0375
     89  N         -6.7100   32.1830   22.1170 N.3   194  ALA194     -0.1245
     90  CA        -6.2750   31.9520   20.7300 C.3   194  ALA194      0.1562
     91  C         -7.3400   31.2170   19.9000 C.2   194  ALA194      0.2260
     92  O         -7.6040   31.5900   18.7450 O.2   194  ALA194     -0.2867
     93  CB        -4.9600   31.1790   20.7220 C.3   194  ALA194      0.0290
     94  N        -10.2830   33.7750   19.3140 N.3   197  VAL197     -0.1231
     95  CA        -9.8750   34.7300   18.2870 C.3   197  VAL197      0.1692
     96  C         -9.9080   34.0970   16.9070 C.2   197  VAL197      0.2591
     97  O        -10.3970   34.7170   15.9550 O.2   197  VAL197     -0.2718
     98  CB        -8.4630   35.3070   18.5950 C.3   197  VAL197      0.0266
     99  CG1       -7.8740   36.0410   17.3940 C.3   197  VAL197      0.0020
    100  CG2       -8.4910   36.2110   19.8350 C.3   197  VAL197      0.0020
    101  N         -9.3740   32.8590   16.7950 N.am  198  ALA198     -0.1980
    102  CA        -9.4020   32.1760   15.4880 C.3   198  ALA198      0.1597
    103  C        -10.8470   32.0060   15.0020 C.2   198  ALA198      0.2287
    104  O        -11.1120   32.1550   13.7940 O.2   198  ALA198     -0.2864
    105  CB        -8.7240   30.8140   15.5980 C.3   198  ALA198      0.0319
    106  N        -11.9140   35.4690   13.7300 N.3   201  ASN201     -0.1240
    107  CA       -11.2280   35.7870   12.4850 C.3   201  ASN201      0.1653
    108  C        -11.7400   34.9290   11.3170 C.2   201  ASN201      0.2266
    109  O        -11.8320   35.4470   10.1940 O.2   201  ASN201     -0.2867
    110  CB        -9.7270   35.6080   12.6390 C.3   201  ASN201      0.1155
    111  CG        -9.0190   36.6680   13.4440 C.2   201  ASN201      0.2627
    112  OD1       -7.9060   36.4440   13.9620 O.2   201  ASN201     -0.2716
    113  ND2       -9.5840   37.8560   13.4990 N.am  201  ASN201     -0.0877
@<TRIPOS>BOND
     1     5     6    1
     2     1     2    1
     3     3     4    2
     4     3     2    1
     5    15    16    2
     6    15    14    1
     7     6     7    1
     8     6     9    1
     9    13     7   am
    10    13    14    1
    11    17    14    1
    12    17    18    1
    13     7     8    2
    14    25    26    1
    15    10     9    1
    16    10    12    1
    17     9    11    1
    18    18    20   ar
    19    18    19   ar
    20    20    22   ar
    21    27    26    1
    22    27    28    2
    23    26    29    1
    24    19    21   ar
    25    22    23   ar
    26    29    30    1
    27    40    39    1
    28    21    23   ar
    29    23    24    1
    30    41    39    1
    31    39    38    2
    32   109   108    2
    33    88    86    1
    34    50    48   ar
    35    50    51   ar
    36    38    37    1
    37    48    47   ar
    38   108   107    1
    39    37    36    1
    40    31    32    1
    41    36    35    1
    42    35    32    1
    43    51    49   ar
    44    85    84    2
    45    47    46    1
    46    47    49   ar
    47    32    33    1
    48    86    87    1
    49    86    83    1
    50    46    43    1
    51   107   110    1
    52   107   106    1
    53    84    83    1
    54   110   111    1
    55    83    82    1
    56   111   113   am
    57   111   112    2
    58    33    34    2
    59    43    42    1
    60    43    44    1
    61   104   103    2
    62    44    45    2
    63    44    52   am
    64   103   102    1
    65    52    53    1
    66   102   105    1
    67   102   101    1
    68    97    96    2
    69    53    56    1
    70    53    54    1
    71    81    80    2
    72   101    96   am
    73    96    95    1
    74    58    57    1
    75    58    59    1
    76    99    98    1
    77    59    60    2
    78    80    79    1
    79    54    55    2
    80    95    98    1
    81    95    94    1
    82    98   100    1
    83    92    91    2
    84    79    78    1
    85    72    71    2
    86    71    78   am
    87    71    70    1
    88    91    90    1
    89    93    90    1
    90    90    89    1
    91    70    69    1
    92    70    73    1
    93    76    75   ar
    94    75    77   ar
    95    75    74    1
    96    73    74    1
    97    64    63    2
    98    63    62    1
    99    62    65    1
   100    62    61    1
   101    65    66    1
   102    68    67    1
   103    66    67    1
