@<TRIPOS>MOLECULE
tmp/4au2A01.pdb
 94 87 0 0 0
SMALL
GASTEIGER

@<TRIPOS>ATOM
      1  N         42.1670 -105.2960   36.8660 N.3   183  ARG183     -0.1245
      2  CA        41.3930 -105.7240   38.0230 C.3   183  ARG183      0.1563
      3  C         41.8020 -107.1510   38.4100 C.2   183  ARG183      0.2260
      4  O         42.4580 -107.8470   37.6350 O.2   183  ARG183     -0.2867
      5  CB        39.8720 -105.6720   37.6970 C.3   183  ARG183      0.0307
      6  CG        39.3330 -104.3170   37.2000 C.3   183  ARG183      0.0489
      7  CD        39.1410 -103.3260   38.3200 C.3   183  ARG183      0.2205
      8  NE        38.8550 -101.9720   37.8300 N.pl3 183  ARG183     -0.0865
      9  CZ        37.7470 -101.2950   38.1090 C.cat 183  ARG183      0.5346
     10  NH1       36.7970 -101.8460   38.8510 N.pl3 183  ARG183      0.1354
     11  NH2       37.5770 -100.0600   37.6410 N.pl3 183  ARG183      0.1354
     12  N         38.5440 -113.1880   40.8200 N.3   186  MET186     -0.1245
     13  CA        38.5340 -114.1950   41.8760 C.3   186  MET186      0.1570
     14  C         38.0980 -115.5480   41.3350 C.2   186  MET186      0.2261
     15  O         36.9110 -115.7680   41.0740 O.2   186  MET186     -0.2867
     16  CB        37.6540 -113.7570   43.0430 C.3   186  MET186      0.0387
     17  CG        38.1030 -112.4440   43.6940 C.3   186  MET186      0.0595
     18  SD        36.9310 -111.8870   44.9430 S.3   186  MET186     -0.1393
     19  CE        35.3700 -111.7850   43.9040 C.3   186  MET186      0.0692
     20  N         37.7280 -117.9900   46.5380 N.3   189  ARG189     -0.1245
     21  CA        37.7920 -117.0110   47.6190 C.3   189  ARG189      0.1563
     22  C         39.2570 -116.7200   48.0180 C.2   189  ARG189      0.2260
     23  O         39.5510 -115.6320   48.5250 O.2   189  ARG189     -0.2867
     24  CB        37.0230 -117.5400   48.8220 C.3   189  ARG189      0.0307
     25  CG        35.5460 -117.1920   48.8040 C.3   189  ARG189      0.0489
     26  CD        34.9240 -117.3830   50.1640 C.3   189  ARG189      0.2205
     27  NE        35.4160 -116.4280   51.1680 N.pl3 189  ARG189     -0.0865
     28  CZ        36.2510 -116.7330   52.1620 C.cat 189  ARG189      0.5346
     29  NH1       36.6640 -117.9850   52.3330 N.pl3 189  ARG189      0.1354
     30  NH2       36.6330 -115.8000   53.0250 N.pl3 189  ARG189      0.1354
     31  N         28.0980  -98.6880   31.1580 N.3   201  THR201     -0.1218
     32  CA        26.8040  -98.4950   31.8030 C.3   201  THR201      0.1862
     33  C         25.8040  -98.2230   30.6980 C.2   201  THR201      0.2287
     34  O         26.0420  -97.3670   29.8380 O.2   201  THR201     -0.2866
     35  CB        26.8480  -97.3880   32.8890 C.3   201  THR201      0.1770
     36  OG1       27.8000  -97.7440   33.8670 O.3   201  THR201     -0.2211
     37  CG2       25.5310  -97.2170   33.6000 C.3   201  THR201      0.0375
     38  N         28.0870 -113.8630   44.9150 N.3   235  HIS235     -0.1226
     39  CA        29.5070 -113.8540   45.2850 C.3   235  HIS235      0.1752
     40  C         30.3050 -115.0350   44.7270 C.2   235  HIS235      0.2595
     41  O         29.7200 -115.8950   44.0570 O.2   235  HIS235     -0.2718
     42  CB        29.7020 -113.6550   46.8020 C.3   235  HIS235      0.0759
     43  CG        29.2250 -112.3120   47.2750 C.ar  235  HIS235      0.0818
     44  ND1       30.0110 -111.1740   47.1360 N.ar  235  HIS235     -0.2268
     45  CD2       28.0390 -111.9590   47.8310 C.ar  235  HIS235      0.1154
     46  CE1       29.2840 -110.1720   47.6100 C.ar  235  HIS235      0.1986
     47  NE2       28.0950 -110.5960   48.0550 N.ar  235  HIS235     -0.2212
     48  N         31.6460 -115.0550   44.9530 N.am  236  VAL236     -0.1980
     49  CA        32.5180 -116.1320   44.4660 C.3   236  VAL236      0.1595
     50  C         32.1200 -117.4490   45.1020 C.2   236  VAL236      0.2287
     51  O         32.0560 -117.5550   46.3260 O.2   236  VAL236     -0.2864
     52  CB        34.0420 -115.8890   44.6290 C.3   236  VAL236      0.0276
     53  CG1       34.8340 -116.3980   43.4440 C.3   236  VAL236      0.0022
     54  CG2       34.3660 -114.4640   44.9670 C.3   236  VAL236      0.0022
     55  N         25.6520 -101.3700   35.1980 N.3   264  ALA264     -0.1245
     56  CA        27.0710 -101.0910   34.9770 C.3   264  ALA264      0.1562
     57  C         27.7090 -102.4690   34.8470 C.2   264  ALA264      0.2260
     58  O         27.8060 -103.2130   35.8290 O.2   264  ALA264     -0.2867
     59  CB        27.6690 -100.3230   36.1520 C.3   264  ALA264      0.0290
     60  N         23.1670  -97.0620   38.7110 N.3   332  PRO332     -0.2116
     61  CA        23.0370  -98.3850   38.0780 C.3   332  PRO332      0.1372
     62  C         23.2910  -99.5460   39.0270 C.2   332  PRO332      0.2244
     63  O         23.9360  -99.3810   40.0730 O.2   332  PRO332     -0.2868
     64  CB        24.0700  -98.3450   36.9470 C.3   332  PRO332      0.0268
     65  CG        25.0920  -97.3680   37.4100 C.3   332  PRO332      0.0207
     66  CD        24.4100  -96.3730   38.3000 C.3   332  PRO332      0.0892
     67  N         25.1770 -103.0300   39.6930 N.3   334  LEU334     -0.1245
     68  CA        26.4580 -103.5370   39.2070 C.3   334  LEU334      0.1561
     69  C         26.3290 -104.9780   38.7770 C.2   334  LEU334      0.2260
     70  O         25.6970 -105.7750   39.4720 O.2   334  LEU334     -0.2867
     71  CB        27.5870 -103.4240   40.2550 C.3   334  LEU334      0.0270
     72  CG        27.8940 -102.0670   40.8750 C.3   334  LEU334      0.0019
     73  CD1       28.9100 -102.2200   42.0010 C.3   334  LEU334      0.0001
     74  CD2       28.3900 -101.0650   39.8300 C.3   334  LEU334      0.0001
     75  N         29.3090 -106.9440   38.0520 N.3   336  TYR336     -0.1241
     76  CA        30.7680 -106.9790   38.1790 C.3   336  TYR336      0.1605
     77  C         31.2630 -108.4230   38.0830 C.2   336  TYR336      0.2264
     78  O         31.3110 -109.1470   39.0810 O.2   336  TYR336     -0.2867
     79  CB        31.1490 -106.2880   39.5150 C.3   336  TYR336      0.0534
     80  CG        32.5740 -105.7940   39.6090 C.ar  336  TYR336     -0.0201
     81  CD1       32.9300 -104.5410   39.1230 C.ar  336  TYR336     -0.0009
     82  CD2       33.5550 -106.5550   40.2340 C.ar  336  TYR336     -0.0009
     83  CE1       34.2360 -104.0660   39.2380 C.ar  336  TYR336      0.0417
     84  CE2       34.8600 -106.0900   40.3600 C.ar  336  TYR336      0.0417
     85  CZ        35.2000 -104.8520   39.8480 C.ar  336  TYR336      0.1957
     86  OH        36.4950 -104.4180   39.9680 O.3   336  TYR336     -0.2866
     87  N         33.8250 -110.4140   38.1590 N.3   338  ASP338     -0.1239
     88  CA        35.1720 -110.6870   38.6590 C.3   338  ASP338      0.1674
     89  C         35.2290 -112.0620   39.3680 C.2   338  ASP338      0.2266
     90  O         36.0930 -112.2880   40.2120 O.2   338  ASP338     -0.2867
     91  CB        35.6510 -109.5500   39.5970 C.3   338  ASP338      0.1410
     92  CG        35.0160 -109.5600   40.9690 C.2   338  ASP338      0.3668
     93  OD1       33.8500 -109.9980   41.0790 O.co2 338  ASP338     -0.2456
     94  OD2       35.6660 -109.0800   41.9290 O.co2 338  ASP338     -0.2456
@<TRIPOS>BOND
     1    34    33    2
     2    33    32    1
     3    31    32    1
     4    32    35    1
     5    35    37    1
     6    35    36    1
     7    57    56    1
     8    57    58    2
     9    56    55    1
    10    56    59    1
    11     1     2    1
    12    64    65    1
    13    64    61    1
    14     6     5    1
    15     6     7    1
    16    65    66    1
    17     4     3    2
    18    11     9    1
    19     5     2    1
    20     8     9    2
    21     8     7    1
    22     2     3    1
    23    75    76    1
    24    61    60    1
    25    61    62    1
    26    77    76    1
    27    77    78    2
    28     9    10    1
    29    87    88    1
    30    76    79    1
    31    66    60    1
    32    88    89    1
    33    88    91    1
    34    69    68    1
    35    69    70    2
    36    62    63    2
    37    81    83   ar
    38    81    80   ar
    39    68    67    1
    40    68    71    1
    41    83    85   ar
    42    89    90    2
    43    79    80    1
    44    91    92    1
    45    80    82   ar
    46    74    72    1
    47    85    86    1
    48    85    84   ar
    49    82    84   ar
    50    71    72    1
    51    12    13    1
    52    72    73    1
    53    92    93   ar
    54    92    94   ar
    55    15    14    2
    56    14    13    1
    57    13    16    1
    58    16    17    1
    59    53    52    1
    60    17    18    1
    61    19    18    1
    62    41    40    2
    63    49    52    1
    64    49    48    1
    65    49    50    1
    66    52    54    1
    67    40    48   am
    68    40    39    1
    69    38    39    1
    70    50    51    2
    71    39    42    1
    72    20    21    1
    73    42    43    1
    74    44    43   ar
    75    44    46   ar
    76    43    45   ar
    77    46    47   ar
    78    21    22    1
    79    21    24    1
    80    45    47   ar
    81    22    23    2
    82    25    24    1
    83    25    26    1
    84    26    27    1
    85    27    28    2
    86    28    29    1
    87    28    30    1
