@<TRIPOS>MOLECULE
tmp/4au2A00.pdb
 179 171 0 0 0
SMALL
GASTEIGER

@<TRIPOS>ATOM
      1  N         33.5310  -98.2370   25.4650 N.3   176  HIS176     -0.1241
      2  CA        34.4830  -97.2010   25.0840 C.3   176  HIS176      0.1621
      3  C         35.8980  -97.8170   25.1870 C.2   176  HIS176      0.2264
      4  O         36.1970  -98.4670   26.1860 O.2   176  HIS176     -0.2867
      5  CB        34.3040  -95.9890   26.0050 C.3   176  HIS176      0.0745
      6  CG        35.0820  -94.7990   25.5770 C.ar  176  HIS176      0.0817
      7  ND1       36.4700  -94.7800   25.6470 N.ar  176  HIS176     -0.2268
      8  CD2       34.6460  -93.6150   25.0860 C.ar  176  HIS176      0.1154
      9  CE1       36.8290  -93.5880   25.2050 C.ar  176  HIS176      0.1986
     10  NE2       35.7670  -92.8520   24.8530 N.ar  176  HIS176     -0.2212
     11  N         37.5990  -97.3250   28.4630 N.3   179  MET179     -0.1245
     12  CA        36.9480  -97.8470   29.6760 C.3   179  MET179      0.1570
     13  C         37.4830  -99.2770   29.9910 C.2   179  MET179      0.2261
     14  O         36.7160 -100.2360   30.1480 O.2   179  MET179     -0.2867
     15  CB        35.4160  -97.8140   29.5240 C.3   179  MET179      0.0387
     16  CG        34.8380  -96.4160   29.6620 C.3   179  MET179      0.0595
     17  SD        34.8070  -95.8370   31.3790 S.3   179  MET179     -0.1393
     18  CE        33.2070  -96.5570   31.9260 C.3   179  MET179      0.0692
     19  N         40.7790 -101.3050   32.2290 N.3   181  ASP181     -0.1239
     20  CA        41.7830 -101.2090   33.2910 C.3   181  ASP181      0.1674
     21  C         42.0700 -102.5730   33.8710 C.2   181  ASP181      0.2266
     22  O         41.4440 -103.5500   33.4690 O.2   181  ASP181     -0.2867
     23  CB        41.3890 -100.1730   34.3870 C.3   181  ASP181      0.1410
     24  CG        40.0330 -100.3680   35.0540 C.2   181  ASP181      0.3668
     25  OD1       39.5420 -101.5190   35.0870 O.co2 181  ASP181     -0.2456
     26  OD2       39.4930  -99.3850   35.5910 O.co2 181  ASP181     -0.2456
     27  N         42.1670 -105.2960   36.8660 N.3   183  ARG183     -0.1245
     28  CA        41.3930 -105.7240   38.0230 C.3   183  ARG183      0.1563
     29  C         41.8020 -107.1510   38.4100 C.2   183  ARG183      0.2260
     30  O         42.4580 -107.8470   37.6350 O.2   183  ARG183     -0.2867
     31  CB        39.8720 -105.6720   37.6970 C.3   183  ARG183      0.0307
     32  CG        39.3330 -104.3170   37.2000 C.3   183  ARG183      0.0489
     33  CD        39.1410 -103.3260   38.3200 C.3   183  ARG183      0.2205
     34  NE        38.8550 -101.9720   37.8300 N.pl3 183  ARG183     -0.0865
     35  CZ        37.7470 -101.2950   38.1090 C.cat 183  ARG183      0.5346
     36  NH1       36.7970 -101.8460   38.8510 N.pl3 183  ARG183      0.1354
     37  NH2       37.5770 -100.0600   37.6410 N.pl3 183  ARG183      0.1354
     38  N         38.5440 -113.1880   40.8200 N.3   186  MET186     -0.1245
     39  CA        38.5340 -114.1950   41.8760 C.3   186  MET186      0.1570
     40  C         38.0980 -115.5480   41.3350 C.2   186  MET186      0.2261
     41  O         36.9110 -115.7680   41.0740 O.2   186  MET186     -0.2867
     42  CB        37.6540 -113.7570   43.0430 C.3   186  MET186      0.0387
     43  CG        38.1030 -112.4440   43.6940 C.3   186  MET186      0.0595
     44  SD        36.9310 -111.8870   44.9430 S.3   186  MET186     -0.1393
     45  CE        35.3700 -111.7850   43.9040 C.3   186  MET186      0.0692
     46  N         37.7280 -117.9900   46.5380 N.3   189  ARG189     -0.1245
     47  CA        37.7920 -117.0110   47.6190 C.3   189  ARG189      0.1563
     48  C         39.2570 -116.7200   48.0180 C.2   189  ARG189      0.2260
     49  O         39.5510 -115.6320   48.5250 O.2   189  ARG189     -0.2867
     50  CB        37.0230 -117.5400   48.8220 C.3   189  ARG189      0.0307
     51  CG        35.5460 -117.1920   48.8040 C.3   189  ARG189      0.0489
     52  CD        34.9240 -117.3830   50.1640 C.3   189  ARG189      0.2205
     53  NE        35.4160 -116.4280   51.1680 N.pl3 189  ARG189     -0.0865
     54  CZ        36.2510 -116.7330   52.1620 C.cat 189  ARG189      0.5346
     55  NH1       36.6640 -117.9850   52.3330 N.pl3 189  ARG189      0.1354
     56  NH2       36.6330 -115.8000   53.0250 N.pl3 189  ARG189      0.1354
     57  N         34.4300 -101.8530   30.9290 N.3   199  HIS199     -0.1226
     58  CA        33.2870 -101.3670   31.6930 C.3   199  HIS199      0.1752
     59  C         32.3630 -100.5230   30.8620 C.2   199  HIS199      0.2596
     60  O         32.8250  -99.6740   30.0990 O.2   199  HIS199     -0.2718
     61  CB        33.7780 -100.5200   32.9000 C.3   199  HIS199      0.0759
     62  CG        34.9410 -101.1190   33.6400 C.ar  199  HIS199      0.0818
     63  ND1       34.7630 -101.8970   34.7790 N.ar  199  HIS199     -0.2268
     64  CD2       36.2650 -101.0520   33.3680 C.ar  199  HIS199      0.1154
     65  CE1       35.9750 -102.2630   35.1620 C.ar  199  HIS199      0.1986
     66  NE2       36.9080 -101.7930   34.3370 N.ar  199  HIS199     -0.2212
     67  N         31.0550 -100.6920   31.0690 N.am  200  ARG200     -0.1966
     68  CA        30.0530  -99.8890   30.3790 C.3   200  ARG200      0.1729
     69  C         28.7770  -99.8330   31.1990 C.2   200  ARG200      0.2616
     70  O         28.3840 -100.8300   31.8090 O.2   200  ARG200     -0.2715
     71  CB        29.7350 -100.4940   28.9920 C.3   200  ARG200      0.0348
     72  CG        29.0780  -99.5210   28.0450 C.3   200  ARG200      0.0492
     73  CD        28.3830 -100.1740   26.8690 C.3   200  ARG200      0.2205
     74  NE        27.5950  -99.1480   26.2010 N.pl3 200  ARG200     -0.0865
     75  CZ        26.2890  -98.9860   26.3600 C.cat 200  ARG200      0.5346
     76  NH1       25.5840  -99.8630   27.0670 N.pl3 200  ARG200      0.1354
     77  NH2       25.6620  -97.9870   25.7590 N.pl3 200  ARG200      0.1354
     78  N         28.0980  -98.6880   31.1580 N.am  201  THR201     -0.1951
     79  CA        26.8040  -98.4950   31.8030 C.3   201  THR201      0.1897
     80  C         25.8040  -98.2230   30.6980 C.2   201  THR201      0.2313
     81  O         26.0420  -97.3670   29.8380 O.2   201  THR201     -0.2863
     82  CB        26.8480  -97.3880   32.8890 C.3   201  THR201      0.1794
     83  OG1       27.8000  -97.7440   33.8670 O.3   201  THR201     -0.2208
     84  CG2       25.5310  -97.2170   33.6000 C.3   201  THR201      0.0378
     85  N         25.7470 -114.2050   43.2030 N.3   234  HIS234     -0.1226
     86  CA        26.0400 -112.9400   43.8870 C.3   234  HIS234      0.1752
     87  C         27.5090 -112.8110   44.2920 C.2   234  HIS234      0.2596
     88  O         28.1230 -111.7760   43.9970 O.2   234  HIS234     -0.2718
     89  CB        25.0870 -112.6740   45.0630 C.3   234  HIS234      0.0759
     90  CG        23.6860 -112.3180   44.6420 C.ar  234  HIS234      0.0818
     91  ND1       22.6350 -112.3340   45.5490 N.ar  234  HIS234     -0.2268
     92  CD2       23.2060 -111.9360   43.4310 C.ar  234  HIS234      0.1154
     93  CE1       21.5620 -111.9640   44.8670 C.ar  234  HIS234      0.1986
     94  NE2       21.8550 -111.7240   43.5860 N.ar  234  HIS234     -0.2212
     95  N         28.0870 -113.8630   44.9150 N.am  235  HIS235     -0.1961
     96  CA        29.5070 -113.8540   45.2850 C.3   235  HIS235      0.1787
     97  C         30.3050 -115.0350   44.7270 C.2   235  HIS235      0.2620
     98  O         29.7200 -115.8950   44.0570 O.2   235  HIS235     -0.2715
     99  CB        29.7020 -113.6550   46.8020 C.3   235  HIS235      0.0785
    100  CG        29.2250 -112.3120   47.2750 C.ar  235  HIS235      0.0821
    101  ND1       30.0110 -111.1740   47.1360 N.ar  235  HIS235     -0.2267
    102  CD2       28.0390 -111.9590   47.8310 C.ar  235  HIS235      0.1154
    103  CE1       29.2840 -110.1720   47.6100 C.ar  235  HIS235      0.1986
    104  NE2       28.0950 -110.5960   48.0550 N.ar  235  HIS235     -0.2212
    105  N         31.6460 -115.0550   44.9530 N.am  236  VAL236     -0.1977
    106  CA        32.5180 -116.1320   44.4660 C.3   236  VAL236      0.1596
    107  C         32.1200 -117.4490   45.1020 C.2   236  VAL236      0.2287
    108  O         32.0560 -117.5550   46.3260 O.2   236  VAL236     -0.2864
    109  CB        34.0420 -115.8890   44.6290 C.3   236  VAL236      0.0276
    110  CG1       34.8340 -116.3980   43.4440 C.3   236  VAL236      0.0022
    111  CG2       34.3660 -114.4640   44.9670 C.3   236  VAL236      0.0022
    112  N         25.6520 -101.3700   35.1980 N.3   264  ALA264     -0.1245
    113  CA        27.0710 -101.0910   34.9770 C.3   264  ALA264      0.1562
    114  C         27.7090 -102.4690   34.8470 C.2   264  ALA264      0.2260
    115  O         27.8060 -103.2130   35.8290 O.2   264  ALA264     -0.2867
    116  CB        27.6690 -100.3230   36.1520 C.3   264  ALA264      0.0290
    117  N         30.7330 -104.8940   34.0440 N.3   266  SER266     -0.1217
    118  CA        32.1920 -104.9900   34.0440 C.3   266  SER266      0.1889
    119  C         32.5230 -106.4320   33.6580 C.2   266  SER266      0.2288
    120  O         32.0140 -107.3810   34.2720 O.2   266  SER266     -0.2866
    121  CB        32.7730 -104.6060   35.3950 C.3   266  SER266      0.2089
    122  OG        32.6490 -103.2060   35.5820 O.3   266  SER266     -0.2183
    123  N         19.6210  -94.0850   34.6630 N.3   329  LEU329     -0.1231
    124  CA        21.0580  -94.3430   34.5330 C.3   329  LEU329      0.1693
    125  C         21.9060  -93.8020   35.7040 C.2   329  LEU329      0.2591
    126  O         23.0790  -94.1720   35.8350 O.2   329  LEU329     -0.2718
    127  CB        21.5750  -93.8070   33.1860 C.3   329  LEU329      0.0284
    128  CG        22.7190  -94.6000   32.5490 C.3   329  LEU329      0.0019
    129  CD1       22.3860  -95.0110   31.1340 C.3   329  LEU329      0.0001
    130  CD2       24.0060  -93.8110   32.5910 C.3   329  LEU329      0.0001
    131  N         21.2970  -92.9370   36.5480 N.am  330  ARG330     -0.1980
    132  CA        21.9010  -92.2560   37.7040 C.3   330  ARG330      0.1597
    133  C         22.5650  -93.1930   38.7230 C.2   330  ARG330      0.2287
    134  O         23.7130  -92.9530   39.1180 O.2   330  ARG330     -0.2864
    135  CB        20.8750  -91.3330   38.3910 C.3   330  ARG330      0.0334
    136  CG        20.2910  -90.2480   37.4930 C.3   330  ARG330      0.0492
    137  CD        21.3860  -89.3650   36.8990 C.3   330  ARG330      0.2205
    138  NE        22.2920  -88.9090   37.9320 N.pl3 330  ARG330     -0.0865
    139  CZ        23.5480  -88.6040   37.6200 C.cat 330  ARG330      0.5346
    140  NH1       23.9680  -88.7070   36.3600 N.pl3 330  ARG330      0.1354
    141  NH2       24.3950  -88.2430   38.5770 N.pl3 330  ARG330      0.1354
    142  N         25.1770 -103.0300   39.6930 N.3   334  LEU334     -0.1245
    143  CA        26.4580 -103.5370   39.2070 C.3   334  LEU334      0.1561
    144  C         26.3290 -104.9780   38.7770 C.2   334  LEU334      0.2260
    145  O         25.6970 -105.7750   39.4720 O.2   334  LEU334     -0.2867
    146  CB        27.5870 -103.4240   40.2550 C.3   334  LEU334      0.0270
    147  CG        27.8940 -102.0670   40.8750 C.3   334  LEU334      0.0019
    148  CD1       28.9100 -102.2200   42.0010 C.3   334  LEU334      0.0001
    149  CD2       28.3900 -101.0650   39.8300 C.3   334  LEU334      0.0001
    150  N         29.3090 -106.9440   38.0520 N.3   336  TYR336     -0.1241
    151  CA        30.7680 -106.9790   38.1790 C.3   336  TYR336      0.1605
    152  C         31.2630 -108.4230   38.0830 C.2   336  TYR336      0.2264
    153  O         31.3110 -109.1470   39.0810 O.2   336  TYR336     -0.2867
    154  CB        31.1490 -106.2880   39.5150 C.3   336  TYR336      0.0534
    155  CG        32.5740 -105.7940   39.6090 C.ar  336  TYR336     -0.0201
    156  CD1       32.9300 -104.5410   39.1230 C.ar  336  TYR336     -0.0009
    157  CD2       33.5550 -106.5550   40.2340 C.ar  336  TYR336     -0.0009
    158  CE1       34.2360 -104.0660   39.2380 C.ar  336  TYR336      0.0417
    159  CE2       34.8600 -106.0900   40.3600 C.ar  336  TYR336      0.0417
    160  CZ        35.2000 -104.8520   39.8480 C.ar  336  TYR336      0.1957
    161  OH        36.4950 -104.4180   39.9680 O.3   336  TYR336     -0.2866
    162  N         33.8250 -110.4140   38.1590 N.3   338  ASP338     -0.1225
    163  CA        35.1720 -110.6870   38.6590 C.3   338  ASP338      0.1805
    164  C         35.2290 -112.0620   39.3680 C.2   338  ASP338      0.2597
    165  O         36.0930 -112.2880   40.2120 O.2   338  ASP338     -0.2718
    166  CB        35.6510 -109.5500   39.5970 C.3   338  ASP338      0.1424
    167  CG        35.0160 -109.5600   40.9690 C.2   338  ASP338      0.3668
    168  OD1       33.8500 -109.9980   41.0790 O.co2 338  ASP338     -0.2456
    169  OD2       35.6660 -109.0800   41.9290 O.co2 338  ASP338     -0.2456
    170  N         34.2810 -112.9490   39.0410 N.am  339  HIS339     -0.1975
    171  CA        34.1960 -114.2980   39.5700 C.3   339  HIS339      0.1656
    172  C         33.5110 -115.2230   38.5180 C.2   339  HIS339      0.2291
    173  O         32.9590 -114.6860   37.5540 O.2   339  HIS339     -0.2864
    174  CB        33.5520 -114.3380   40.9750 C.3   339  HIS339      0.0771
    175  CG        32.1690 -113.7810   41.0700 C.ar  339  HIS339      0.0820
    176  ND1       31.9410 -112.4190   41.0460 N.ar  339  HIS339     -0.2267
    177  CD2       30.9960 -114.4200   41.3000 C.ar  339  HIS339      0.1154
    178  CE1       30.6350 -112.2720   41.2030 C.ar  339  HIS339      0.1986
    179  NE2       30.0250 -113.4500   41.3770 N.ar  339  HIS339     -0.2212
@<TRIPOS>BOND
     1    10     8   ar
     2    10     9   ar
     3     2     3    1
     4     2     1    1
     5     2     5    1
     6     8     6   ar
     7     3     4    2
     8     9     7   ar
     9     6     7   ar
    10     6     5    1
    11    77    75    1
    12    74    75    2
    13    74    73    1
    14    75    76    1
    15    73    72    1
    16    72    71    1
    17    11    12    1
    18    71    68    1
    19    15    16    1
    20    15    12    1
    21    16    17    1
    22    12    13    1
    23    81    80    2
    24    13    14    2
    25    60    59    2
    26    68    67    1
    27    68    69    1
    28    80    79    1
    29    59    67   am
    30    59    58    1
    31    57    58    1
    32   129   128    1
    33    78    69   am
    34    78    79    1
    35    69    70    2
    36    17    18    1
    37    58    61    1
    38    79    82    1
    39    19    20    1
    40   128   130    1
    41   128   127    1
    42    82    84    1
    43    82    83    1
    44    61    62    1
    45   127   124    1
    46    20    21    1
    47    20    23    1
    48    64    62   ar
    49    64    66   ar
    50    22    21    2
    51    62    63   ar
    52   119   118    1
    53   119   120    2
    54   117   118    1
    55   118   121    1
    56    66    65   ar
    57    23    24    1
    58   124   123    1
    59   124   125    1
    60    63    65   ar
    61   114   113    1
    62   114   115    2
    63   113   112    1
    64   113   116    1
    65    24    25   ar
    66    24    26   ar
    67   121   122    1
    68   125   126    2
    69   125   131   am
    70   140   139    1
    71   131   132    1
    72    27    28    1
    73   137   136    1
    74   137   138    1
    75    32    31    1
    76    32    33    1
    77   136   135    1
    78   173   172    2
    79   139   138    2
    80   139   141    1
    81    30    29    2
    82    37    35    1
    83    31    28    1
    84   132   135    1
    85   132   133    1
    86    34    35    2
    87    34    33    1
    88    28    29    1
    89   150   151    1
    90   152   151    1
    91   152   153    2
    92    35    36    1
    93   162   163    1
    94   151   154    1
    95   172   171    1
    96   163   164    1
    97   163   166    1
    98   133   134    2
    99   144   143    1
   100   144   145    2
   101   170   164   am
   102   170   171    1
   103   156   158   ar
   104   156   155   ar
   105   143   142    1
   106   143   146    1
   107   158   160   ar
   108   164   165    2
   109   154   155    1
   110   171   174    1
   111   166   167    1
   112   155   157   ar
   113   149   147    1
   114   160   161    1
   115   160   159   ar
   116   157   159   ar
   117   146   147    1
   118    38    39    1
   119   147   148    1
   120   167   168   ar
   121   167   169   ar
   122   174   175    1
   123   176   175   ar
   124   176   178   ar
   125   175   177   ar
   126    41    40    2
   127   178   179   ar
   128   177   179   ar
   129    40    39    1
   130    39    42    1
   131    42    43    1
   132    85    86    1
   133    92    94   ar
   134    92    90   ar
   135   110   109    1
   136    94    93   ar
   137    43    44    1
   138    86    87    1
   139    86    89    1
   140    45    44    1
   141    88    87    2
   142    98    97    2
   143    87    95   am
   144   106   109    1
   145   106   105    1
   146   106   107    1
   147   109   111    1
   148    90    89    1
   149    90    91   ar
   150    97   105   am
   151    97    96    1
   152    93    91   ar
   153    95    96    1
   154   107   108    2
   155    96    99    1
   156    46    47    1
   157    99   100    1
   158   101   100   ar
   159   101   103   ar
   160   100   102   ar
   161   103   104   ar
   162    47    48    1
   163    47    50    1
   164   102   104   ar
   165    48    49    2
   166    51    50    1
   167    51    52    1
   168    52    53    1
   169    53    54    2
   170    54    55    1
   171    54    56    1
