@<TRIPOS>MOLECULE
tmp/4au2D01.pdb
 158 150 0 0 0
SMALL
GASTEIGER

@<TRIPOS>ATOM
      1  N         41.0250  -61.4620   62.6170 N.3   172  HIS172     -0.1241
      2  CA        40.6630  -62.3620   63.7160 C.3   172  HIS172      0.1621
      3  C         39.4000  -63.1510   63.2530 C.2   172  HIS172      0.2264
      4  O         38.4510  -62.5480   62.7240 O.2   172  HIS172     -0.2867
      5  CB        40.3760  -61.5220   64.9850 C.3   172  HIS172      0.0745
      6  CG        40.1420  -62.3390   66.2230 C.ar  172  HIS172      0.0817
      7  ND1       39.0610  -63.2150   66.3330 N.ar  172  HIS172     -0.2268
      8  CD2       40.8610  -62.3940   67.3670 C.ar  172  HIS172      0.1154
      9  CE1       39.1700  -63.7680   67.5360 C.ar  172  HIS172      0.1986
     10  NE2       40.2270  -63.2890   68.1990 N.ar  172  HIS172     -0.2212
     11  N         36.1160  -61.7070   64.1990 N.3   175  MET175     -0.1245
     12  CA        35.8150  -60.3370   63.7480 C.3   175  MET175      0.1570
     13  C         34.9700  -60.3870   62.4720 C.2   175  MET175      0.2261
     14  O         35.2860  -59.7650   61.4560 O.2   175  MET175     -0.2867
     15  CB        37.0980  -59.4840   63.6100 C.3   175  MET175      0.0387
     16  CG        37.6210  -59.0060   64.9470 C.3   175  MET175      0.0595
     17  SD        36.6340  -57.6580   65.6180 S.3   175  MET175     -0.1393
     18  CE        37.5270  -56.2410   64.9010 C.3   175  MET175      0.0692
     19  N         30.6630  -60.4780   61.2800 N.3   177  ASP177     -0.1239
     20  CA        29.2640  -60.2560   61.6750 C.3   177  ASP177      0.1674
     21  C         28.3780  -59.9310   60.4710 C.2   177  ASP177      0.2266
     22  O         28.8750  -59.7930   59.3410 O.2   177  ASP177     -0.2867
     23  CB        29.1400  -59.1880   62.7890 C.3   177  ASP177      0.1410
     24  CG        29.7020  -57.8110   62.4550 C.2   177  ASP177      0.3668
     25  OD1       30.1210  -57.6000   61.2910 O.co2 177  ASP177     -0.2456
     26  OD2       29.6800  -56.9330   63.3410 O.co2 177  ASP177     -0.2456
     27  N         26.0350  -57.5870   58.2260 N.3   179  ARG179     -0.1245
     28  CA        25.8980  -56.1930   57.8620 C.3   179  ARG179      0.1563
     29  C         25.1020  -56.0900   56.5820 C.2   179  ARG179      0.2260
     30  O         24.9540  -57.0770   55.8540 O.2   179  ARG179     -0.2867
     31  CB        27.3040  -55.5600   57.6480 C.3   179  ARG179      0.0307
     32  CG        28.2720  -55.6470   58.8460 C.3   179  ARG179      0.0489
     33  CD        27.9460  -54.6500   59.9450 C.3   179  ARG179      0.2205
     34  NE        28.7020  -54.9160   61.1640 N.pl3 179  ARG179     -0.0865
     35  CZ        29.5110  -54.0400   61.7430 C.cat 179  ARG179      0.5346
     36  NH1       29.6850  -52.8390   61.2150 N.pl3 179  ARG179      0.1354
     37  NH2       30.1520  -54.3600   62.8610 N.pl3 179  ARG179      0.1354
     38  N         24.9810  -52.0620   50.5730 N.3   182  MET182     -0.1245
     39  CA        24.1700  -51.1830   49.7420 C.3   182  MET182      0.1570
     40  C         24.5400  -51.3330   48.2770 C.2   182  MET182      0.2261
     41  O         25.5760  -50.8250   47.8370 O.2   182  MET182     -0.2867
     42  CB        24.2760  -49.7230   50.1920 C.3   182  MET182      0.0387
     43  CG        23.8420  -49.4970   51.6380 C.3   182  MET182      0.0595
     44  SD        24.1400  -47.7950   52.1820 S.3   182  MET182     -0.1393
     45  CE        25.9590  -47.7040   51.9210 C.3   182  MET182      0.0692
     46  N         21.2340  -46.9070   46.5570 N.3   185  ARG185     -0.1245
     47  CA        20.7410  -46.0630   47.6470 C.3   185  ARG185      0.1563
     48  C         19.4210  -46.6200   48.2260 C.2   185  ARG185      0.2260
     49  O         19.0940  -46.3320   49.3810 O.2   185  ARG185     -0.2867
     50  CB        20.5090  -44.6220   47.1530 C.3   185  ARG185      0.0307
     51  CG        21.7600  -43.7470   47.0490 C.3   185  ARG185      0.0489
     52  CD        22.0010  -42.8390   48.2610 C.3   185  ARG185      0.2205
     53  NE        20.9500  -41.8390   48.4560 N.pl3 185  ARG185     -0.0865
     54  CZ        20.0630  -41.8670   49.4480 C.cat 185  ARG185      0.5346
     55  NH1       20.0810  -42.8550   50.3370 N.pl3 185  ARG185      0.1354
     56  NH2       19.1430  -40.9180   49.5490 N.pl3 185  ARG185      0.1354
     57  N         36.2780  -57.6730   59.7200 N.3   195  HIS195     -0.1241
     58  CA        36.8090  -56.3750   60.1660 C.3   195  HIS195      0.1621
     59  C         38.1850  -56.4770   60.7710 C.2   195  HIS195      0.2264
     60  O         38.4540  -57.3820   61.5590 O.2   195  HIS195     -0.2867
     61  CB        35.8600  -55.7510   61.2000 C.3   195  HIS195      0.0745
     62  CG        34.4010  -55.8770   60.8780 C.ar  195  HIS195      0.0817
     63  ND1       33.7010  -54.8460   60.2710 N.ar  195  HIS195     -0.2268
     64  CD2       33.5480  -56.9030   61.1010 C.ar  195  HIS195      0.1154
     65  CE1       32.4590  -55.2770   60.1350 C.ar  195  HIS195      0.1986
     66  NE2       32.3180  -56.5050   60.6240 N.ar  195  HIS195     -0.2212
     67  N         41.6520  -53.6440   62.0950 N.3   197  THR197     -0.1218
     68  CA        42.3200  -52.3550   62.2030 C.3   197  THR197      0.1862
     69  C         43.8250  -52.6090   62.2010 C.2   197  THR197      0.2287
     70  O         44.3190  -53.4570   62.9360 O.2   197  THR197     -0.2866
     71  CB        41.8290  -51.5500   63.4220 C.3   197  THR197      0.1770
     72  OG1       40.4270  -51.3560   63.3160 O.3   197  THR197     -0.2211
     73  CG2       42.4860  -50.1910   63.5280 C.3   197  THR197      0.0375
     74  N         37.2880  -47.2920   46.1730 N.3   228  MET228     -0.1245
     75  CA        35.8780  -47.1830   46.4950 C.3   228  MET228      0.1570
     76  C         35.4360  -45.7230   46.6310 C.2   228  MET228      0.2261
     77  O         36.1300  -44.9530   47.2900 O.2   228  MET228     -0.2867
     78  CB        35.6200  -47.9760   47.7850 C.3   228  MET228      0.0387
     79  CG        34.1980  -48.0080   48.2190 C.3   228  MET228      0.0595
     80  SD        34.0640  -48.9600   49.7290 S.3   228  MET228     -0.1393
     81  CE        34.6990  -47.7880   50.9450 C.3   228  MET228      0.0692
     82  N         33.3080  -42.4290   48.1620 N.3   230  HIS230     -0.1226
     83  CA        32.9250  -42.1130   49.5410 C.3   230  HIS230      0.1752
     84  C         31.5720  -42.7160   49.9320 C.2   230  HIS230      0.2596
     85  O         31.4640  -43.3450   50.9910 O.2   230  HIS230     -0.2718
     86  CB        32.9850  -40.5960   49.8290 C.3   230  HIS230      0.0759
     87  CG        34.3790  -40.0490   49.9180 C.ar  230  HIS230      0.0818
     88  ND1       34.6270  -38.6800   49.8810 N.ar  230  HIS230     -0.2268
     89  CD2       35.5590  -40.7020   50.0470 C.ar  230  HIS230      0.1154
     90  CE1       35.9390  -38.5560   49.9840 C.ar  230  HIS230      0.1986
     91  NE2       36.5400  -39.7450   50.0800 N.ar  230  HIS230     -0.2212
     92  N         30.5540  -42.5550   49.0650 N.am  231  HIS231     -0.1975
     93  CA        29.2260  -43.1250   49.3060 C.3   231  HIS231      0.1656
     94  C         28.7260  -44.0220   48.1610 C.2   231  HIS231      0.2291
     95  O         29.4100  -44.1660   47.1410 O.2   231  HIS231     -0.2864
     96  CB        28.2070  -42.0350   49.7110 C.3   231  HIS231      0.0771
     97  CG        28.5270  -41.4080   51.0320 C.ar  231  HIS231      0.0820
     98  ND1       28.2010  -42.0320   52.2320 N.ar  231  HIS231     -0.2267
     99  CD2       29.1800  -40.2560   51.3060 C.ar  231  HIS231      0.1154
    100  CE1       28.6460  -41.2340   53.1870 C.ar  231  HIS231      0.1986
    101  NE2       29.2410  -40.1540   52.6810 N.ar  231  HIS231     -0.2212
    102  N         40.6310  -48.9120   59.6590 N.3   260  ALA260     -0.1231
    103  CA        39.7060  -49.9810   60.0700 C.3   260  ALA260      0.1694
    104  C         39.0270  -50.4650   58.7950 C.2   260  ALA260      0.2592
    105  O         38.1050  -49.8150   58.2700 O.2   260  ALA260     -0.2718
    106  CB        38.6730  -49.4770   61.0550 C.3   260  ALA260      0.0304
    107  N         39.5290  -51.5830   58.2630 N.am  261  ILE261     -0.1966
    108  CA        39.0100  -52.1440   57.0250 C.3   261  ILE261      0.1727
    109  C         37.8750  -53.1150   57.3110 C.2   261  ILE261      0.2616
    110  O         38.0510  -54.0350   58.1010 O.2   261  ILE261     -0.2715
    111  CB        40.1260  -52.8020   56.1670 C.3   261  ILE261      0.0290
    112  CG1       41.2490  -51.7930   55.8470 C.3   261  ILE261      0.0022
    113  CG2       39.5280  -53.4210   54.8840 C.3   261  ILE261      0.0023
    114  CD1       42.4050  -52.3520   55.0480 C.3   261  ILE261      0.0001
    115  N         36.7140  -52.8770   56.7030 N.am  262  SER262     -0.1950
    116  CA        35.5620  -53.7640   56.7940 C.3   262  SER262      0.1924
    117  C         35.2520  -54.2470   55.3760 C.2   262  SER262      0.2314
    118  O         35.0950  -53.4320   54.4700 O.2   262  SER262     -0.2863
    119  CB        34.3670  -53.0680   57.4220 C.3   262  SER262      0.2116
    120  OG        34.6270  -52.9170   58.8020 O.3   262  SER262     -0.2180
    121  N         38.0150  -45.0340   58.5880 N.3   326  LEU326     -0.1245
    122  CA        37.1990  -46.1840   58.1950 C.3   326  LEU326      0.1561
    123  C         37.2770  -46.4330   56.7030 C.2   326  LEU326      0.2260
    124  O         37.2070  -45.4840   55.9130 O.2   326  LEU326     -0.2867
    125  CB        35.7170  -46.0190   58.6050 C.3   326  LEU326      0.0270
    126  CG        35.4050  -45.7160   60.0910 C.3   326  LEU326      0.0019
    127  CD1       33.9290  -45.4740   60.2860 C.3   326  LEU326      0.0001
    128  CD2       35.8310  -46.8730   61.0100 C.3   326  LEU326      0.0001
    129  N         35.0430  -48.7900   55.0530 N.3   328  TYR328     -0.1241
    130  CA        33.8270  -49.5810   55.2230 C.3   328  TYR328      0.1605
    131  C         33.2350  -49.9410   53.8340 C.2   328  TYR328      0.2264
    132  O         32.4680  -49.1750   53.2460 O.2   328  TYR328     -0.2867
    133  CB        32.8570  -48.7740   56.1160 C.3   328  TYR328      0.0534
    134  CG        31.7880  -49.5900   56.8050 C.ar  328  TYR328     -0.0201
    135  CD1       32.0430  -50.2330   58.0120 C.ar  328  TYR328     -0.0009
    136  CD2       30.5000  -49.6600   56.2870 C.ar  328  TYR328     -0.0009
    137  CE1       31.0530  -50.9690   58.6600 C.ar  328  TYR328      0.0417
    138  CE2       29.4960  -50.3670   56.9400 C.ar  328  TYR328      0.0417
    139  CZ        29.7740  -51.0160   58.1290 C.ar  328  TYR328      0.1957
    140  OH        28.7630  -51.6810   58.7730 O.3   328  TYR328     -0.2866
    141  N         30.7980  -51.3910   52.2420 N.3   330  ASP330     -0.1225
    142  CA        29.3900  -51.8110   52.2330 C.3   330  ASP330      0.1805
    143  C         28.6560  -51.2610   50.9930 C.2   330  ASP330      0.2597
    144  O         27.4370  -51.0920   50.9910 O.2   330  ASP330     -0.2718
    145  CB        28.6950  -51.3890   53.5410 C.3   330  ASP330      0.1424
    146  CG        28.3750  -49.9090   53.6350 C.2   330  ASP330      0.3668
    147  OD1       29.1440  -49.1030   53.0830 O.co2 330  ASP330     -0.2456
    148  OD2       27.3850  -49.5570   54.3170 O.co2 330  ASP330     -0.2456
    149  N         29.4180  -50.9570   49.9520 N.am  331  HIS331     -0.1975
    150  CA        28.9010  -50.4500   48.6860 C.3   331  HIS331      0.1656
    151  C         29.8620  -50.8320   47.5530 C.2   331  HIS331      0.2291
    152  O         30.9750  -51.2820   47.8710 O.2   331  HIS331     -0.2864
    153  CB        28.5750  -48.9430   48.7610 C.3   331  HIS331      0.0771
    154  CG        29.7110  -48.0450   49.1250 C.ar  331  HIS331      0.0820
    155  ND1       30.1720  -47.9560   50.4280 N.ar  331  HIS331     -0.2267
    156  CD2       30.3680  -47.1410   48.3640 C.ar  331  HIS331      0.1154
    157  CE1       31.1350  -47.0510   50.4030 C.ar  331  HIS331      0.1986
    158  NE2       31.2770  -46.5230   49.1870 N.ar  331  HIS331     -0.2212
@<TRIPOS>BOND
     1    74    75    1
     2    75    76    1
     3    75    78    1
     4    46    47    1
     5    76    77    2
     6    51    50    1
     7    51    52    1
     8    95    94    2
     9    50    47    1
    10   151   152    2
    11   151   150    1
    12    47    48    1
    13    78    79    1
    14    41    40    2
    15    94    93    1
    16    82    83    1
    17    79    80    1
    18    48    49    2
    19    52    53    1
    20    40    39    1
    21   156   154   ar
    22   156   158   ar
    23    53    54    2
    24   150   153    1
    25   150   149    1
    26   153   154    1
    27    92    93    1
    28    92    84   am
    29   154   155   ar
    30   158   157   ar
    31    93    96    1
    32    54    56    1
    33    54    55    1
    34    83    86    1
    35    83    84    1
    36    96    97    1
    37    80    81    1
    38    39    42    1
    39    39    38    1
    40    86    87    1
    41    88    87   ar
    42    88    90   ar
    43    87    89   ar
    44    84    85    2
    45   149   143   am
    46    90    91   ar
    47    89    91   ar
    48    42    43    1
    49   157   155   ar
    50   144   143    2
    51   143   142    1
    52    97    99   ar
    53    97    98   ar
    54    99   101   ar
    55    43    44    1
    56    45    44    1
    57    98   100   ar
    58   142   141    1
    59   142   145    1
    60   101   100   ar
    61   147   146   ar
    62   132   131    2
    63   145   146    1
    64   146   148   ar
    65   131   130    1
    66   118   117    2
    67   113   111    1
    68   114   112    1
    69   129   130    1
    70   130   133    1
    71   117   116    1
    72   112   111    1
    73    30    29    2
    74   124   123    2
    75   133   134    1
    76   111   108    1
    77   136   134   ar
    78   136   138   ar
    79    29    28    1
    80   123   122    1
    81   115   116    1
    82   115   109   am
    83   116   119    1
    84   134   135   ar
    85   138   139   ar
    86   108   109    1
    87   108   107    1
    88   109   110    2
    89   119   120    1
    90    31    28    1
    91    31    32    1
    92    28    27    1
    93   135   137   ar
    94   139   137   ar
    95   139   140    1
    96   122   121    1
    97   122   125    1
    98   107   104   am
    99   105   104    2
   100   125   126    1
   101   104   103    1
   102    32    33    1
   103    22    21    2
   104   102   103    1
   105    57    58    1
   106    33    34    1
   107   103   106    1
   108   126   127    1
   109   126   128    1
   110    65    63   ar
   111    65    66   ar
   112    58    59    1
   113    58    61    1
   114    63    62   ar
   115    21    20    1
   116    66    64   ar
   117    59    60    2
   118    62    64   ar
   119    62    61    1
   120    34    35    2
   121    36    35    1
   122    19    20    1
   123    25    24   ar
   124    14    13    2
   125    20    23    1
   126    35    37    1
   127    67    68    1
   128    69    68    1
   129    69    70    2
   130    68    71    1
   131    24    23    1
   132    24    26   ar
   133    13    12    1
   134     1     2    1
   135     4     3    2
   136     3     2    1
   137    72    71    1
   138    71    73    1
   139    15    12    1
   140    15    16    1
   141     2     5    1
   142    12    11    1
   143    18    17    1
   144    16    17    1
   145     5     6    1
   146     6     7   ar
   147     6     8   ar
   148     7     9   ar
   149     8    10   ar
   150     9    10   ar
