@<TRIPOS>MOLECULE
tmp/4au3B00.pdb
 140 134 0 0 0
SMALL
GASTEIGER

@<TRIPOS>ATOM
      1  N         -7.7990  109.0320  186.8380 N.3   173  HIS173     -0.1241
      2  CA        -6.9280  109.1440  187.9960 C.3   173  HIS173      0.1621
      3  C         -6.4700  107.7130  188.3310 C.2   173  HIS173      0.2264
      4  O         -7.2760  106.7860  188.3110 O.2   173  HIS173     -0.2867
      5  CB        -7.6900  109.7580  189.1600 C.3   173  HIS173      0.0745
      6  CG        -6.8430  110.0590  190.3460 C.ar  173  HIS173      0.0817
      7  ND1       -6.2290  109.0520  191.0780 N.ar  173  HIS173     -0.2268
      8  CD2       -6.5610  111.2470  190.9170 C.ar  173  HIS173      0.1154
      9  CE1       -5.5720  109.6700  192.0460 C.ar  173  HIS173      0.1986
     10  NE2       -5.7600  110.9880  192.0000 N.ar  173  HIS173     -0.2212
     11  N         -9.9170  103.3140  190.4870 N.3   176  VAL176     -0.1231
     12  CA        -9.9140  101.9240  190.0220 C.3   176  VAL176      0.1692
     13  C        -10.3260  100.9920  191.1810 C.2   176  VAL176      0.2592
     14  O         -9.7560  101.0700  192.2790 O.2   176  VAL176     -0.2718
     15  CB        -8.4930  101.5830  189.4830 C.3   176  VAL176      0.0266
     16  CG1       -8.3480  100.1070  189.1940 C.3   176  VAL176      0.0020
     17  CG2       -8.1510  102.3890  188.2280 C.3   176  VAL176      0.0020
     18  N        -11.3460  100.1470  190.9540 N.am  177  ASP177     -0.1974
     19  CA       -11.8250   99.2120  191.9740 C.3   177  ASP177      0.1709
     20  C        -12.3980   97.9330  191.3750 C.2   177  ASP177      0.2293
     21  O        -12.4940   97.7940  190.1560 O.2   177  ASP177     -0.2864
     22  CB       -12.8050   99.8760  192.9820 C.3   177  ASP177      0.1436
     23  CG       -13.9700  100.6600  192.3970 C.2   177  ASP177      0.3671
     24  OD1      -14.3850  100.3510  191.2660 O.co2 177  ASP177     -0.2456
     25  OD2      -14.4730  101.5770  193.0810 O.co2 177  ASP177     -0.2456
     26  N        -15.4220   95.4660  190.6140 N.3   179  ARG179     -0.1245
     27  CA       -16.8790   95.4350  190.4280 C.3   179  ARG179      0.1563
     28  C        -17.2650   94.1570  189.6890 C.2   179  ARG179      0.2260
     29  O        -16.4040   93.3530  189.2960 O.2   179  ARG179     -0.2867
     30  CB       -17.3730   96.6630  189.6250 C.3   179  ARG179      0.0307
     31  CG       -16.8240   98.0030  190.0950 C.3   179  ARG179      0.0489
     32  CD       -17.7940   98.7430  190.9580 C.3   179  ARG179      0.2205
     33  NE       -17.2010   99.9480  191.5270 N.pl3 179  ARG179     -0.0865
     34  CZ       -17.8410  101.1030  191.6650 C.cat 179  ARG179      0.5346
     35  NH1      -19.0850  101.2360  191.2210 N.pl3 179  ARG179      0.1354
     36  NH2      -17.2400  102.1400  192.2350 N.pl3 179  ARG179      0.1354
     37  N        -28.0490   88.0650  182.4210 N.3   184  ARG184     -0.1245
     38  CA       -28.8760   88.3630  183.5850 C.3   184  ARG184      0.1563
     39  C        -28.6880   87.2970  184.6720 C.2   184  ARG184      0.2260
     40  O        -29.0310   87.5230  185.8300 O.2   184  ARG184     -0.2867
     41  CB       -30.3590   88.5550  183.2060 C.3   184  ARG184      0.0307
     42  CG       -30.7250   90.0460  182.9460 C.3   184  ARG184      0.0489
     43  CD       -32.1880   90.3680  183.2130 C.3   184  ARG184      0.2205
     44  NE       -32.4480   90.6920  184.6180 N.pl3 184  ARG184     -0.0865
     45  CZ       -33.0120   89.8600  185.4920 C.cat 184  ARG184      0.5346
     46  NH1      -33.3870   88.6410  185.1150 N.pl3 184  ARG184      0.1354
     47  NH2      -33.2140   90.2430  186.7470 N.pl3 184  ARG184      0.1354
     48  N        -12.8000  104.6880  186.6160 N.3   192  HIS192     -0.1241
     49  CA       -13.8250  105.7100  186.6710 C.3   192  HIS192      0.1621
     50  C        -13.3140  107.1440  186.4830 C.2   192  HIS192      0.2264
     51  O        -12.3200  107.5420  187.0800 O.2   192  HIS192     -0.2867
     52  CB       -14.5370  105.6110  188.0590 C.3   192  HIS192      0.0745
     53  CG       -14.8710  104.2230  188.5090 C.ar  192  HIS192      0.0817
     54  ND1      -16.0970  103.6400  188.2210 N.ar  192  HIS192     -0.2268
     55  CD2      -14.1290  103.3350  189.2060 C.ar  192  HIS192      0.1154
     56  CE1      -16.0650  102.4330  188.7600 C.ar  192  HIS192      0.1986
     57  NE2      -14.8980  102.2000  189.3520 N.ar  192  HIS192     -0.2212
     58  N        -15.1180  111.3640  185.7320 N.3   194  THR194     -0.1218
     59  CA       -16.1810  112.2960  185.3920 C.3   194  THR194      0.1862
     60  C        -15.5300  113.4540  184.6510 C.2   194  THR194      0.2287
     61  O        -14.4970  113.9670  185.0950 O.2   194  THR194     -0.2866
     62  CB       -16.9630  112.7630  186.6150 C.3   194  THR194      0.1770
     63  OG1      -17.6000  111.6390  187.2300 O.3   194  THR194     -0.2211
     64  CG2      -18.0220  113.8160  186.2580 C.3   194  THR194      0.0375
     65  N        -29.4550  101.1090  177.7780 N.3   225  HIS225     -0.1226
     66  CA       -29.6650  101.5560  179.1600 C.3   225  HIS225      0.1752
     67  C        -29.5910  100.4250  180.2030 C.2   225  HIS225      0.2596
     68  O        -28.9410  100.5780  181.2430 O.2   225  HIS225     -0.2718
     69  CB       -31.0330  102.2720  179.2810 C.3   225  HIS225      0.0759
     70  CG       -31.0810  103.5910  178.5820 C.ar  225  HIS225      0.0818
     71  ND1      -32.2720  104.1330  178.1600 N.ar  225  HIS225     -0.2268
     72  CD2      -30.0720  104.4430  178.2660 C.ar  225  HIS225      0.1154
     73  CE1      -31.9560  105.2760  177.5760 C.ar  225  HIS225      0.1986
     74  NE2      -30.6380  105.4930  177.6010 N.ar  225  HIS225     -0.2212
     75  N        -30.2780   99.3040  179.9130 N.am  226  HIS226     -0.1961
     76  CA       -30.3920   98.1410  180.7840 C.3   226  HIS226      0.1787
     77  C        -29.5980   96.9640  180.2490 C.2   226  HIS226      0.2620
     78  O        -29.1810   96.9810  179.0850 O.2   226  HIS226     -0.2715
     79  CB       -31.8660   97.7180  180.9170 C.3   226  HIS226      0.0785
     80  CG       -32.8880   98.8270  180.8330 C.ar  226  HIS226      0.0821
     81  ND1      -33.7910   98.9050  179.7690 N.ar  226  HIS226     -0.2267
     82  CD2      -33.1680   99.8260  181.7080 C.ar  226  HIS226      0.1154
     83  CE1      -34.5730   99.9430  180.0310 C.ar  226  HIS226      0.1986
     84  NE2      -34.2380  100.5350  181.1810 N.ar  226  HIS226     -0.2212
     85  N        -29.4110   95.9250  181.1010 N.am  227  VAL227     -0.1977
     86  CA       -28.7440   94.6890  180.6930 C.3   227  VAL227      0.1596
     87  C        -29.7110   93.9360  179.8520 C.2   227  VAL227      0.2287
     88  O        -30.8430   93.6220  180.2650 O.2   227  VAL227     -0.2864
     89  CB       -28.1380   93.8160  181.8140 C.3   227  VAL227      0.0276
     90  CG1      -27.0300   92.8800  181.2840 C.3   227  VAL227      0.0022
     91  CG2      -27.6440   94.6790  182.9520 C.3   227  VAL227      0.0022
     92  N        -20.1130  110.6620  183.9080 N.3   253  ALA253     -0.1245
     93  CA       -19.3670  109.8060  184.8110 C.3   253  ALA253      0.1562
     94  C        -19.2020  108.4510  184.0800 C.2   253  ALA253      0.2260
     95  O        -20.1470  107.6540  184.0040 O.2   253  ALA253     -0.2867
     96  CB       -20.0990  109.6440  186.1380 C.3   253  ALA253      0.0290
     97  N        -17.5850  104.7880  183.5750 N.3   255  SER255     -0.1217
     98  CA       -17.0520  103.6680  184.3530 C.3   255  SER255      0.1889
     99  C        -16.8680  102.5780  183.3300 C.2   255  SER255      0.2288
    100  O        -17.8410  102.2000  182.6600 O.2   255  SER255     -0.2866
    101  CB       -18.0130  103.2330  185.4740 C.3   255  SER255      0.2089
    102  OG       -18.1300  104.1950  186.5140 O.3   255  SER255     -0.2183
    103  N        -24.6880  108.9160  184.2080 N.3   319  LEU319     -0.1245
    104  CA       -23.8480  107.7260  184.3580 C.3   319  LEU319      0.1561
    105  C        -23.6960  106.9550  183.0820 C.2   319  LEU319      0.2260
    106  O        -24.6910  106.6300  182.4430 O.2   319  LEU319     -0.2867
    107  CB       -24.3630  106.7710  185.4450 C.3   319  LEU319      0.0270
    108  CG       -24.4020  107.2820  186.8800 C.3   319  LEU319      0.0019
    109  CD1      -24.9090  106.1830  187.8210 C.3   319  LEU319      0.0001
    110  CD2      -23.0340  107.8200  187.3610 C.3   319  LEU319      0.0001
    111  N        -22.1590  103.7090  182.9240 N.3   321  TYR321     -0.1241
    112  CA       -21.6580  102.6020  183.7420 C.3   321  TYR321      0.1605
    113  C        -21.6050  101.3100  182.9320 C.2   321  TYR321      0.2264
    114  O        -22.5860  100.5520  182.8950 O.2   321  TYR321     -0.2867
    115  CB       -22.5650  102.4590  184.9860 C.3   321  TYR321      0.0534
    116  CG       -21.9830  101.6980  186.1660 C.ar  321  TYR321     -0.0201
    117  CD1      -21.2300  102.3470  187.1390 C.ar  321  TYR321     -0.0009
    118  CD2      -22.2750  100.3520  186.3650 C.ar  321  TYR321     -0.0009
    119  CE1      -20.7370  101.6610  188.2530 C.ar  321  TYR321      0.0417
    120  CE2      -21.7780   99.6560  187.4660 C.ar  321  TYR321      0.0417
    121  CZ       -21.0180  100.3170  188.4140 C.ar  321  TYR321      0.1957
    122  OH       -20.5930   99.6240  189.5300 O.3   321  TYR321     -0.2866
    123  N        -20.9720   98.0710  182.8760 N.3   323  ASP323     -0.1225
    124  CA       -20.9050   96.7880  183.6130 C.3   323  ASP323      0.1805
    125  C        -21.7630   95.6970  182.8980 C.2   323  ASP323      0.2597
    126  O        -22.1410   94.6760  183.4870 O.2   323  ASP323     -0.2718
    127  CB       -21.3350   96.9760  185.0860 C.3   323  ASP323      0.1424
    128  CG       -22.8420   97.1610  185.2930 C.2   323  ASP323      0.3668
    129  OD1      -23.5330   97.5900  184.3280 O.co2 323  ASP323     -0.2456
    130  OD2      -23.3380   96.8550  186.4170 O.co2 323  ASP323     -0.2456
    131  N        -22.0960   95.9590  181.6390 N.am  324  HIS324     -0.1975
    132  CA       -22.8640   95.0420  180.7890 C.3   324  HIS324      0.1656
    133  C        -22.4040   95.2450  179.3410 C.2   324  HIS324      0.2291
    134  O        -21.7030   96.2300  179.0660 O.2   324  HIS324     -0.2864
    135  CB       -24.3980   95.1640  180.9780 C.3   324  HIS324      0.0771
    136  CG       -24.9710   96.5310  180.6940 C.ar  324  HIS324      0.0820
    137  ND1      -24.8020   97.5920  181.5840 N.ar  324  HIS324     -0.2267
    138  CD2      -25.7520   96.9470  179.6680 C.ar  324  HIS324      0.1154
    139  CE1      -25.4490   98.6160  181.0500 C.ar  324  HIS324      0.1986
    140  NE2      -26.0200   98.2810  179.8910 N.ar  324  HIS324     -0.2212
@<TRIPOS>BOND
     1    73    74   ar
     2    73    71   ar
     3    74    72   ar
     4    65    66    1
     5    71    70   ar
     6    72    70   ar
     7    70    69    1
     8   134   133    2
     9    78    77    2
    10    66    69    1
    11    66    67    1
    12   133   132    1
    13   138   140   ar
    14   138   136   ar
    15    81    83   ar
    16    81    80   ar
    17    87    88    2
    18    87    86    1
    19   140   139   ar
    20    75    67   am
    21    75    76    1
    22    83    84   ar
    23    67    68    2
    24    77    76    1
    25    77    85   am
    26    86    85    1
    27    86    89    1
    28   136   135    1
    29   136   137   ar
    30    76    79    1
    31   132   135    1
    32   132   131    1
    33    80    79    1
    34    80    82   ar
    35   139   137   ar
    36    84    82   ar
    37    90    89    1
    38   131   125   am
    39    89    91    1
    40    37    38    1
    41   106   105    2
    42   100    99    2
    43   123   124    1
    44   114   113    2
    45   125   126    2
    46   125   124    1
    47   111   112    1
    48   113   112    1
    49    42    41    1
    50    42    43    1
    51   105   104    1
    52    41    38    1
    53    43    44    1
    54    99    98    1
    55    97    98    1
    56    38    39    1
    57   124   127    1
    58   112   115    1
    59    92    93    1
    60    95    94    2
    61    94    93    1
    62   103   104    1
    63   129   128   ar
    64    98   101    1
    65   104   107    1
    66    44    45    2
    67    60    61    2
    68    60    59    1
    69    39    40    2
    70    93    96    1
    71   115   116    1
    72   127   128    1
    73    46    45    1
    74   128   130   ar
    75    59    58    1
    76    59    62    1
    77   107   108    1
    78   101   102    1
    79    45    47    1
    80   116   118   ar
    81   116   117   ar
    82    64    62    1
    83   118   120   ar
    84    50    49    1
    85    50    51    2
    86    62    63    1
    87    48    49    1
    88    49    52    1
    89     1     2    1
    90   108   110    1
    91   108   109    1
    92   117   119   ar
    93   120   121   ar
    94     2     3    1
    95     2     5    1
    96    52    53    1
    97    54    53   ar
    98    54    56   ar
    99    17    15    1
   100   119   121   ar
   101     4     3    2
   102   121   122    1
   103    53    55   ar
   104    56    57   ar
   105     5     6    1
   106    16    15    1
   107    55    57   ar
   108    29    28    2
   109    15    12    1
   110    30    31    1
   111    30    27    1
   112    28    27    1
   113    12    11    1
   114    12    13    1
   115    31    32    1
   116    21    20    2
   117     6     8   ar
   118     6     7   ar
   119    27    26    1
   120     8    10   ar
   121    18    13   am
   122    18    19    1
   123    32    33    1
   124     7     9   ar
   125    13    14    2
   126    35    34    1
   127    24    23   ar
   128    20    19    1
   129    33    34    2
   130    34    36    1
   131    19    22    1
   132    10     9   ar
   133    23    22    1
   134    23    25   ar
