@<TRIPOS>MOLECULE
tmp/4au5B00.pdb
 86 81 0 0 0
SMALL
GASTEIGER

@<TRIPOS>ATOM
      1  N         49.0310   -3.2790   20.7890 N.3    61  VAL61      -0.1245
      2  CA        47.7870   -3.4210   21.5840 C.3    61  VAL61       0.1561
      3  C         47.9330   -4.4260   22.7280 C.2    61  VAL61       0.2260
      4  O         47.6900   -4.0680   23.8940 O.2    61  VAL61      -0.2867
      5  CB        46.5610   -3.8020   20.6620 C.3    61  VAL61       0.0252
      6  CG1       45.5020   -4.4890   21.4070 C.3    61  VAL61       0.0019
      7  CG2       46.0480   -2.5780   19.9090 C.3    61  VAL61       0.0019
      8  N         41.0510    8.7590   29.1750 N.3   196  THR196     -0.1218
      9  CA        42.1270    7.8250   28.8610 C.3   196  THR196      0.1862
     10  C         42.5140    7.9080   27.3710 C.2   196  THR196      0.2287
     11  O         43.6440    7.5690   26.9960 O.2   196  THR196     -0.2866
     12  CB        41.7590    6.3800   29.2660 C.3   196  THR196      0.1770
     13  OG1       42.9740    5.6180   29.3700 O.3   196  THR196     -0.2211
     14  CG2       40.8720    5.7320   28.2240 C.3   196  THR196      0.0375
     15  N         45.9740    7.4430   25.1860 N.3   200  ILE200     -0.1245
     16  CA        46.0270    6.5740   24.0060 C.3   200  ILE200      0.1561
     17  C         46.5900    7.2830   22.7550 C.2   200  ILE200      0.2260
     18  O         47.3670    6.6980   22.0020 O.2   200  ILE200     -0.2867
     19  CB        44.6110    5.9840   23.6900 C.3   200  ILE200      0.0252
     20  CG1       44.2800    4.8180   24.6150 C.3   200  ILE200      0.0019
     21  CG2       44.5010    5.5510   22.2370 C.3   200  ILE200      0.0019
     22  CD1       45.2430    3.6540   24.5050 C.3   200  ILE200      0.0001
     23  N         39.1000   -0.2710   33.8980 N.3   241  ARG241     -0.1231
     24  CA        38.0270   -0.2390   32.9020 C.3   241  ARG241      0.1694
     25  C         38.5310   -0.5750   31.5320 C.2   241  ARG241      0.2591
     26  O         37.9960   -1.4670   30.8680 O.2   241  ARG241     -0.2718
     27  CB        37.3380    1.1290   32.8660 C.3   241  ARG241      0.0321
     28  CG        36.2630    1.2550   31.7850 C.3   241  ARG241      0.0489
     29  CD        35.0620    0.3770   32.0970 C.3   241  ARG241      0.2205
     30  NE        34.0110    0.4490   31.0830 N.pl3 241  ARG241     -0.0865
     31  CZ        32.7590    0.0160   31.2590 C.cat 241  ARG241      0.5346
     32  NH1       32.4230   -0.5980   32.3870 N.pl3 241  ARG241      0.1354
     33  NH2       31.8550    0.1230   30.2810 N.pl3 241  ARG241      0.1354
     34  N         39.5640    0.1380   31.1080 N.am  242  LEU242     -0.1980
     35  CA        40.1420   -0.0700   29.7900 C.3   242  LEU242      0.1596
     36  C         40.6180   -1.5050   29.5870 C.2   242  LEU242      0.2287
     37  O         40.3630   -2.1070   28.5490 O.2   242  LEU242     -0.2864
     38  CB        41.3110    0.8970   29.5540 C.3   242  LEU242      0.0297
     39  CG        42.0370    0.7190   28.2370 C.3   242  LEU242      0.0022
     40  CD1       41.1380    1.1610   27.0930 C.3   242  LEU242      0.0001
     41  CD2       43.3080    1.5050   28.2970 C.3   242  LEU242      0.0001
     42  N         37.7240   -3.6810   28.9680 N.3   245  VAL245     -0.1231
     43  CA        37.2190   -3.5230   27.6060 C.3   245  VAL245      0.1692
     44  C         38.1240   -4.2560   26.6230 C.2   245  VAL245      0.2591
     45  O         37.6470   -4.7900   25.6240 O.2   245  VAL245     -0.2718
     46  CB        37.1110   -2.0300   27.1810 C.3   245  VAL245      0.0266
     47  CG1       36.4400   -1.9050   25.7980 C.3   245  VAL245      0.0020
     48  CG2       36.3200   -1.2330   28.1840 C.3   245  VAL245      0.0020
     49  N         39.4240   -4.2870   26.9230 N.am  246  LEU246     -0.1980
     50  CA        40.4600   -4.8830   26.0580 C.3   246  LEU246      0.1596
     51  C         40.3580   -6.4070   26.0400 C.2   246  LEU246      0.2287
     52  O         40.4110   -7.0060   24.9680 O.2   246  LEU246     -0.2864
     53  CB        41.8560   -4.4740   26.5140 C.3   246  LEU246      0.0297
     54  CG        42.5540   -3.3350   25.7760 C.3   246  LEU246      0.0022
     55  CD1       44.0630   -3.2430   26.1330 C.3   246  LEU246      0.0001
     56  CD2       42.3040   -3.4510   24.3070 C.3   246  LEU246      0.0001
     57  N         38.6630   -8.2040   23.2020 N.3   249  TRP249     -0.1241
     58  CA        39.2390   -7.9350   21.9010 C.3   249  TRP249      0.1605
     59  C         40.4820   -8.7770   21.6690 C.2   249  TRP249      0.2264
     60  O         40.5610   -9.5650   20.7210 O.2   249  TRP249     -0.2867
     61  CB        39.6260   -6.4740   21.7550 C.3   249  TRP249      0.0550
     62  CG        38.5020   -5.5180   21.4830 C.ar  249  TRP249      0.0003
     63  CD1       38.1480   -4.4530   22.2510 C.ar  249  TRP249      0.0946
     64  CD2       37.5520   -5.5600   20.3980 C.ar  249  TRP249      0.0152
     65  NE1       37.0750   -3.7920   21.6920 N.ar  249  TRP249     -0.2442
     66  CE2       36.6890   -4.4570   20.5540 C.ar  249  TRP249      0.0810
     67  CE3       37.3590   -6.4080   19.3050 C.ar  249  TRP249      0.0012
     68  CZ2       35.6480   -4.1790   19.6460 C.ar  249  TRP249      0.0191
     69  CZ3       36.3120   -6.1300   18.4090 C.ar  249  TRP249      0.0001
     70  CH2       35.4820   -5.0290   18.5870 C.ar  249  TRP249      0.0015
     71  N         39.8200  -11.4000   18.8650 N.3   253  LEU253     -0.1231
     72  CA        40.2010  -10.7860   17.5930 C.3   253  LEU253      0.1693
     73  C         41.7020  -10.7860   17.3900 C.2   253  LEU253      0.2591
     74  O         42.2050  -11.4440   16.4940 O.2   253  LEU253     -0.2718
     75  CB        39.6640   -9.3770   17.4570 C.3   253  LEU253      0.0284
     76  CG        39.8610   -8.7920   16.0550 C.3   253  LEU253      0.0019
     77  CD1       38.9440   -9.4560   15.0480 C.3   253  LEU253      0.0001
     78  CD2       39.6860   -7.2850   16.0410 C.3   253  LEU253      0.0001
     79  N         42.4110  -10.0510   18.2300 N.am  254  ILE254     -0.1980
     80  CA        43.8510   -9.8840   18.0560 C.3   254  ILE254      0.1595
     81  C         44.6420  -11.1960   18.0160 C.2   254  ILE254      0.2287
     82  O         45.2680  -11.4850   17.0250 O.2   254  ILE254     -0.2864
     83  CB        44.4210   -8.9070   19.1300 C.3   254  ILE254      0.0276
     84  CG1       44.2690   -7.4630   18.6090 C.3   254  ILE254      0.0022
     85  CG2       45.9340   -9.1530   19.3640 C.3   254  ILE254      0.0022
     86  CD1       42.8310   -6.9590   18.5340 C.3   254  ILE254      0.0001
@<TRIPOS>BOND
     1    77    76    1
     2    78    76    1
     3    76    75    1
     4    74    73    2
     5    82    81    2
     6    73    72    1
     7    73    79   am
     8    75    72    1
     9    72    71    1
    10    81    80    1
    11    80    79    1
    12    80    83    1
    13    69    70   ar
    14    69    67   ar
    15    86    84    1
    16    70    68   ar
    17    84    83    1
    18    83    85    1
    19    67    64   ar
    20    68    66   ar
    21     7     5    1
    22    64    66   ar
    23    64    62   ar
    24    66    65   ar
    25     5     6    1
    26     5     2    1
    27    60    59    2
    28     1     2    1
    29    62    61    1
    30    62    63   ar
    31     2     3    1
    32    59    58    1
    33    65    63   ar
    34    61    58    1
    35    58    57    1
    36    18    17    2
    37    21    19    1
    38     3     4    2
    39    17    16    1
    40    19    16    1
    41    19    20    1
    42    16    15    1
    43    56    54    1
    44    22    20    1
    45    52    51    2
    46    45    44    2
    47    54    55    1
    48    54    53    1
    49    47    46    1
    50    51    50    1
    51    50    53    1
    52    50    49    1
    53    44    49   am
    54    44    43    1
    55    11    10    2
    56    40    39    1
    57    46    43    1
    58    46    48    1
    59    10     9    1
    60    43    42    1
    61    14    12    1
    62    39    41    1
    63    39    38    1
    64    37    36    2
    65     9     8    1
    66     9    12    1
    67    12    13    1
    68    38    35    1
    69    36    35    1
    70    35    34    1
    71    33    31    1
    72    26    25    2
    73    30    31    2
    74    30    29    1
    75    34    25   am
    76    31    32    1
    77    25    24    1
    78    28    29    1
    79    28    27    1
    80    27    24    1
    81    24    23    1
