@<TRIPOS>MOLECULE
tmp/4au8A00.pdb
 150 142 0 0 0
SMALL
GASTEIGER

@<TRIPOS>ATOM
      1  N          8.6780   23.0980   -3.8350 N.3    11  ILE11      -0.1231
      2  CA         9.5470   24.2060   -3.4500 C.3    11  ILE11       0.1696
      3  C         10.2380   24.0000   -2.1110 C.2    11  ILE11       0.2632
      4  O         11.1830   24.7180   -1.7870 O.2    11  ILE11      -0.2714
      5  CB         8.8600   25.5850   -3.5500 C.3    11  ILE11       0.0266
      6  CG1        7.6600   25.7080   -2.5670 C.3    11  ILE11       0.0019
      7  CG2        8.4670   25.8760   -5.0070 C.3    11  ILE11       0.0020
      8  CD1        6.9310   27.0210   -2.5830 C.3    11  ILE11       0.0001
      9  N          9.7560   23.0570   -1.3260 N.am   12  GLY12      -0.1718
     10  CA        10.4040   22.8390   -0.0510 C.2    12  GLY12       0.1480
     11  C          9.9370   21.6690    0.7630 C.2    12  GLY12       0.2820
     12  O          9.1290   20.8450    0.3220 O.2    12  GLY12      -0.2669
     13  N         10.5000   21.6060    1.9640 N.am   13  GLU13      -0.1943
     14  CA        10.1860   20.6350    2.9960 C.3    13  GLU13       0.1605
     15  C         10.0500   21.4190    4.2900 C.2    13  GLU13       0.2287
     16  O         10.9100   22.2520    4.6090 O.2    13  GLU13      -0.2864
     17  CB        11.2950   19.5690    3.1330 C.3    13  GLU13       0.0415
     18  CG        11.4140   18.6220    1.9430 C.3    13  GLU13       0.1163
     19  CD        10.3090   17.6030    1.7260 C.2    13  GLU13       0.3649
     20  OE1        9.6330   17.2230    2.7100 O.co2  13  GLU13      -0.2457
     21  OE2       10.1470   17.1510    0.5680 O.co2  13  GLU13      -0.2457
     22  N          6.2490   21.2430    0.6380 N.3    19  VAL19      -0.1245
     23  CA         5.6620   22.5210    0.2390 C.3    19  VAL19       0.1561
     24  C          5.6940   22.5970   -1.2840 C.2    19  VAL19       0.2260
     25  O          6.7330   22.3040   -1.8970 O.2    19  VAL19      -0.2867
     26  CB         6.3580   23.7490    0.8910 C.3    19  VAL19       0.0252
     27  CG1        5.6140   25.0430    0.5630 C.3    19  VAL19       0.0019
     28  CG2        6.4980   23.5780    2.4030 C.3    19  VAL19       0.0019
     29  N          1.6880   29.0700   -1.7820 N.3    32  ALA32      -0.1245
     30  CA         2.5710   27.9920   -1.3320 C.3    32  ALA32       0.1562
     31  C          1.6110   27.0560   -0.5760 C.2    32  ALA32       0.2260
     32  O          0.8020   27.5100    0.2330 O.2    32  ALA32      -0.2867
     33  CB         3.6600   28.5170   -0.4150 C.3    32  ALA32       0.0290
     34  N          0.9830   23.4820    1.6350 N.3    34  LYS34      -0.1245
     35  CA         1.5410   22.4390    2.4910 C.3    34  LYS34       0.1561
     36  C          0.4290   21.3990    2.6600 C.2    34  LYS34       0.2260
     37  O         -0.6770   21.7500    3.0730 O.2    34  LYS34      -0.2867
     38  CB         1.9330   23.0420    3.8400 C.3    34  LYS34       0.0271
     39  CG         3.3220   22.7140    4.3120 C.3    34  LYS34       0.0035
     40  CD         3.5110   23.1750    5.7580 C.3    34  LYS34       0.0206
     41  CE         4.6420   24.1540    5.9250 C.3    34  LYS34       0.1093
     42  NZ         4.9770   24.3830    7.3710 N.3    34  LYS34      -0.1314
     43  N          4.9910   34.8710    7.5560 N.3    56  VAL56      -0.1245
     44  CA         4.2620   34.3100    6.4180 C.3    56  VAL56       0.1561
     45  C          2.7630   34.3020    6.7250 C.2    56  VAL56       0.2260
     46  O          2.3600   33.9990    7.8600 O.2    56  VAL56      -0.2867
     47  CB         4.7620   32.8840    6.0420 C.3    56  VAL56       0.0252
     48  CG1        4.3200   31.8510    7.0810 C.3    56  VAL56       0.0019
     49  CG2        4.2870   32.4930    4.6330 C.3    56  VAL56       0.0019
     50  N         -0.6140   29.0190    1.9700 N.3    69  PHE69      -0.1227
     51  CA         0.1880   30.1750    2.3460 C.3    69  PHE69       0.1736
     52  C          0.4310   31.1590    1.2000 C.2    69  PHE69       0.2595
     53  O          0.3340   30.8260    0.0200 O.2    69  PHE69      -0.2718
     54  CB         1.5750   29.6910    2.8150 C.3    69  PHE69       0.0547
     55  CG         1.5410   28.8490    4.0580 C.ar   69  PHE69      -0.0202
     56  CD1        1.6080   29.4390    5.3150 C.ar   69  PHE69      -0.0042
     57  CD2        1.5200   27.4620    3.9760 C.ar   69  PHE69      -0.0042
     58  CE1        1.6450   28.6540    6.4730 C.ar   69  PHE69      -0.0003
     59  CE2        1.5380   26.6770    5.1390 C.ar   69  PHE69      -0.0003
     60  CZ         1.5880   27.2820    6.3800 C.ar   69  PHE69      -0.0000
     61  N          0.8200   32.3640    1.5920 N.am   70  GLU70      -0.1965
     62  CA         1.3850   33.4320    0.7840 C.3    70  GLU70       0.1733
     63  C          2.5710   32.8060    0.0160 C.2    70  GLU70       0.2616
     64  O          3.3550   32.0580    0.6160 O.2    70  GLU70      -0.2715
     65  CB         1.9500   34.4480    1.8070 C.3    70  GLU70       0.0429
     66  CG         2.9450   35.4700    1.3210 C.3    70  GLU70       0.1163
     67  CD         3.3730   36.4920    2.3600 C.2    70  GLU70       0.3649
     68  OE1        3.0090   36.3690    3.5550 O.co2  70  GLU70      -0.2457
     69  OE2        4.1360   37.4000    1.9730 O.co2  70  GLU70      -0.2457
     70  N          2.7400   33.1810   -1.2560 N.am   71  PHE71      -0.1960
     71  CA         3.8580   32.7450   -2.0740 C.3    71  PHE71       0.1771
     72  C          4.9580   33.8300   -2.1680 C.2    71  PHE71       0.2620
     73  O          4.6860   34.9730   -2.5370 O.2    71  PHE71      -0.2715
     74  CB         3.3860   32.3170   -3.4970 C.3    71  PHE71       0.0574
     75  CG         4.5520   31.8420   -4.3380 C.ar   71  PHE71      -0.0200
     76  CD1        5.1460   30.6070   -4.0950 C.ar   71  PHE71      -0.0042
     77  CD2        5.1100   32.6690   -5.3150 C.ar   71  PHE71      -0.0042
     78  CE1        6.2860   30.2070   -4.8050 C.ar   71  PHE71      -0.0003
     79  CE2        6.2310   32.2530   -6.0550 C.ar   71  PHE71      -0.0003
     80  CZ         6.8090   31.0270   -5.7980 C.ar   71  PHE71      -0.0000
     81  N          6.2040   33.4470   -1.8590 N.am   72  CYS72      -0.1954
     82  CA         7.4000   34.2790   -2.0220 C.3    72  CYS72       0.1843
     83  C          8.2650   33.5280   -3.0470 C.2    72  CYS72       0.2625
     84  O          8.3330   32.3010   -2.9790 O.2    72  CYS72      -0.2714
     85  CB         8.1280   34.4580   -0.6940 C.3    72  CYS72       0.0997
     86  SG         7.1230   35.2740    0.5880 S.3    72  CYS72      -0.0797
     87  N          8.9340   34.2340   -3.9710 N.am   73  ASP73      -0.1957
     88  CA         9.7300   33.5590   -5.0200 C.3    73  ASP73       0.1840
     89  C         10.9270   32.7510   -4.5580 C.2    73  ASP73       0.2622
     90  O         11.3340   31.8090   -5.2530 O.2    73  ASP73      -0.2715
     91  CB        10.1750   34.5510   -6.0970 C.3    73  ASP73       0.1450
     92  CG         9.1000   34.7820   -7.1280 C.2    73  ASP73       0.3671
     93  OD1        9.0240   33.9870   -8.0960 O.co2  73  ASP73      -0.2456
     94  OD2        8.3030   35.7200   -6.9440 O.co2  73  ASP73      -0.2456
     95  N         11.5120   33.1200   -3.4120 N.am   74  GLN74      -0.1963
     96  CA        12.6930   32.4280   -2.8950 C.3    74  GLN74       0.1733
     97  C         12.6610   32.2820   -1.3920 C.2    74  GLN74       0.2616
     98  O         11.9850   33.0490   -0.7150 O.2    74  GLN74      -0.2715
     99  CB        13.9560   33.2720   -3.2260 C.3    74  GLN74       0.0408
    100  CG        14.2180   33.4700   -4.7310 C.3    74  GLN74       0.0908
    101  CD        15.4090   34.3540   -4.9630 C.2    74  GLN74       0.2608
    102  OE1       15.4940   35.4630   -4.4470 O.2    74  GLN74      -0.2717
    103  NE2       16.3350   33.8970   -5.7840 N.am   74  GLN74      -0.0878
    104  N         13.4350   31.3230   -0.8670 N.am   75  ASP75      -0.1971
    105  CA        13.7500   31.2390    0.5550 C.3    75  ASP75       0.1709
    106  C         15.1400   31.8770    0.5970 C.2    75  ASP75       0.2293
    107  O         15.7140   32.1060   -0.4700 O.2    75  ASP75      -0.2864
    108  CB        13.7140   29.8000    1.1250 C.3    75  ASP75       0.1436
    109  CG        14.6680   28.7920    0.5210 C.2    75  ASP75       0.3671
    110  OD1       15.7740   29.1870    0.1320 O.co2  75  ASP75      -0.2456
    111  OD2       14.3200   27.5890    0.4910 O.co2  75  ASP75      -0.2456
    112  N         17.9910   29.9860   -1.3620 N.3    78  LYS78      -0.1245
    113  CA        17.9220   30.2090   -2.8060 C.3    78  LYS78       0.1561
    114  C         18.3970   31.5950   -3.1350 C.2    78  LYS78       0.2260
    115  O         19.0580   31.7870   -4.1600 O.2    78  LYS78      -0.2867
    116  CB        16.4820   29.9880   -3.3380 C.3    78  LYS78       0.0271
    117  CG        16.3300   28.6900   -4.1570 C.3    78  LYS78       0.0035
    118  CD        16.3590   27.4560   -3.2580 C.3    78  LYS78       0.0206
    119  CE        16.2920   26.1520   -4.0100 C.3    78  LYS78       0.1093
    120  NZ        16.6610   25.0200   -3.1230 N.3    78  LYS78      -0.1314
    121  N         16.3940   28.2410    5.1050 N.3   119  GLN119     -0.1245
    122  CA        15.2670   27.6040    4.3970 C.3   119  GLN119      0.1566
    123  C         13.9030   28.0170    4.9540 C.2   119  GLN119      0.2260
    124  O         12.9080   27.8780    4.2480 O.2   119  GLN119     -0.2867
    125  CB        15.3900   26.0790    4.4020 C.3   119  GLN119      0.0367
    126  CG        16.4110   25.5850    3.3850 C.3   119  GLN119      0.0905
    127  CD        16.6790   24.1050    3.4930 C.2   119  GLN119      0.2608
    128  OE1       16.7080   23.5180    4.5870 O.2   119  GLN119     -0.2717
    129  NE2       16.9290   23.4740    2.3550 N.am  119  GLN119     -0.0878
    130  N         11.6470   33.5060    4.0710 N.3   122  LEU122     -0.1245
    131  CA        11.1790   33.7420    2.7110 C.3   122  LEU122      0.1561
    132  C         11.5040   35.1410    2.2600 C.2   122  LEU122      0.2260
    133  O         11.4260   36.0650    3.0550 O.2   122  LEU122     -0.2867
    134  CB         9.6700   33.4600    2.5970 C.3   122  LEU122      0.0270
    135  CG         9.1660   32.1440    3.1860 C.3   122  LEU122      0.0019
    136  CD1        7.6510   32.0200    3.0160 C.3   122  LEU122      0.0001
    137  CD2        9.9430   30.9200    2.6440 C.3   122  LEU122      0.0001
    138  N          8.8370   31.6610    8.3070 N.3   132  ALA132     -0.1231
    139  CA         7.8890   30.6020    7.9670 C.3   132  ALA132      0.1694
    140  C          8.1890   29.3570    8.7840 C.2   132  ALA132      0.2592
    141  O          9.2360   29.2930    9.4520 O.2   132  ALA132     -0.2718
    142  CB         7.9710   30.2910    6.4560 C.3   132  ALA132      0.0304
    143  N          7.3080   28.3420    8.6900 N.am  133  ASP133     -0.1974
    144  CA         7.4850   27.0370    9.3390 C.3   133  ASP133      0.1709
    145  C          7.4720   27.0930   10.8720 C.2   133  ASP133      0.2293
    146  O          8.5190   27.0180   11.5230 O.2   133  ASP133     -0.2864
    147  CB         8.7290   26.2890    8.7780 C.3   133  ASP133      0.1436
    148  CG         8.5460   25.8690    7.3170 C.2   133  ASP133      0.3671
    149  OD1        7.4470   25.3860    6.9670 O.co2 133  ASP133     -0.2456
    150  OD2        9.5080   26.0010    6.5350 O.co2 133  ASP133     -0.2456
@<TRIPOS>BOND
     1    93    92   ar
     2    92    94   ar
     3    92    91    1
     4    91    88    1
     5    79    80   ar
     6    79    77   ar
     7    80    78   ar
     8   103   101   am
     9    77    75   ar
    10    90    89    2
    11    88    89    1
    12    88    87    1
    13     7     5    1
    14   101   100    1
    15   101   102    2
    16    78    76   ar
    17   100    99    1
    18    89    95   am
    19    75    76   ar
    20    75    74    1
    21   115   114    2
    22   117   116    1
    23   117   118    1
    24   119   118    1
    25   119   120    1
    26    87    83   am
    27     1     2    1
    28     5     2    1
    29     5     6    1
    30    74    71    1
    31     2     3    1
    32    95    96    1
    33   116   113    1
    34    99    96    1
    35   114   113    1
    36    83    84    2
    37    83    82    1
    38    96    97    1
    39   113   112    1
    40     8     6    1
    41    73    72    2
    42    72    71    1
    43    72    81   am
    44     3     4    2
    45     3     9    1
    46    71    70    1
    47    82    81    1
    48    82    85    1
    49    25    24    2
    50    29    30    1
    51    97   104   am
    52    97    98    2
    53    30    31    1
    54    30    33    1
    55     9    10    2
    56    24    23    1
    57    70    63   am
    58   104   105    1
    59    85    86    1
    60    31    32    2
    61   107   106    2
    62    10    11    1
    63    63    64    2
    64    63    62    1
    65    53    52    2
    66   110   109   ar
    67    23    22    1
    68    23    26    1
    69    12    11    2
    70   111   109   ar
    71   109   108    1
    72   105   106    1
    73   105   108    1
    74    27    26    1
    75    21    19   ar
    76    11    13   am
    77    62    61    1
    78    62    65    1
    79    26    28    1
    80    52    61   am
    81    52    51    1
    82    66    65    1
    83    66    67    1
    84    34    35    1
    85    19    18    1
    86    19    20   ar
    87    18    17    1
    88    13    14    1
    89    50    51    1
    90    69    67   ar
    91   132   131    1
    92   132   133    2
    93    51    54    1
    94   129   127   am
    95    67    68   ar
    96    35    36    1
    97    35    38    1
    98   134   131    1
    99   134   135    1
   100   137   135    1
   101    36    37    2
   102   131   130    1
   103    54    55    1
   104    14    17    1
   105    14    15    1
   106   136   135    1
   107   126   127    1
   108   126   125    1
   109   127   128    2
   110    38    39    1
   111    57    55   ar
   112    57    59   ar
   113    55    56   ar
   114   124   123    2
   115    15    16    2
   116    39    40    1
   117   122   125    1
   118   122   123    1
   119   122   121    1
   120    49    47    1
   121    59    60   ar
   122    56    58   ar
   123    40    41    1
   124    41    42    1
   125    47    44    1
   126    47    48    1
   127    60    58   ar
   128    44    45    1
   129    44    43    1
   130   142   139    1
   131   150   148   ar
   132    45    46    2
   133   149   148   ar
   134   148   147    1
   135   139   138    1
   136   139   140    1
   137   143   140   am
   138   143   144    1
   139   147   144    1
   140   140   141    2
   141   144   145    1
   142   145   146    2
