@<TRIPOS>MOLECULE
tmp/4au9B00.pdb
 255 241 0 0 0
SMALL
GASTEIGER

@<TRIPOS>ATOM
      1  N          9.7270  -12.4430  -21.3060 N.3   162  GLU162     -0.1245
      2  CA         8.5720  -13.3240  -21.4700 C.3   162  GLU162      0.1567
      3  C          7.3450  -12.7090  -20.8160 C.2   162  GLU162      0.2260
      4  O          7.4080  -11.6040  -20.2850 O.2   162  GLU162     -0.2867
      5  CB         8.8490  -14.7120  -20.8880 C.3   162  GLU162      0.0388
      6  CG         9.5670  -14.6870  -19.5560 C.3   162  GLU162      0.1160
      7  CD         8.6140  -14.4410  -18.4060 C.2   162  GLU162      0.3649
      8  OE1        7.6790  -15.2560  -18.2230 O.co2 162  GLU162     -0.2457
      9  OE2        8.7690  -13.4090  -17.7190 O.co2 162  GLU162     -0.2457
     10  N          5.5240  -13.1500  -18.0810 N.3   164  PHE164     -0.1241
     11  CA         5.4970  -12.7150  -16.6690 C.3   164  PHE164      0.1605
     12  C          6.2310  -11.3740  -16.4670 C.2   164  PHE164      0.2264
     13  O          6.0300  -10.7090  -15.4740 O.2   164  PHE164     -0.2867
     14  CB         6.0830  -13.7770  -15.7250 C.3   164  PHE164      0.0534
     15  CG         5.2160  -14.9900  -15.5490 C.ar  164  PHE164     -0.0203
     16  CD1        3.8420  -14.8730  -15.4690 C.ar  164  PHE164     -0.0042
     17  CD2        5.7880  -16.2580  -15.4520 C.ar  164  PHE164     -0.0042
     18  CE1        3.0360  -15.9940  -15.2840 C.ar  164  PHE164     -0.0003
     19  CE2        4.9980  -17.3960  -15.3260 C.ar  164  PHE164     -0.0003
     20  CZ         3.6210  -17.2710  -15.1830 C.ar  164  PHE164     -0.0000
     21  N          9.8260  -10.9700  -17.0860 N.3   166  PHE166     -0.1227
     22  CA        11.2640  -11.0940  -16.8330 C.3   166  PHE166      0.1736
     23  C         12.0920  -11.1980  -18.0960 C.2   166  PHE166      0.2595
     24  O         11.7410  -11.9370  -19.0230 O.2   166  PHE166     -0.2718
     25  CB        11.5720  -12.2560  -15.9060 C.3   166  PHE166      0.0547
     26  CG        10.8990  -12.1470  -14.5730 C.ar  166  PHE166     -0.0202
     27  CD1        9.5440  -12.4230  -14.4440 C.ar  166  PHE166     -0.0042
     28  CD2       11.6030  -11.7080  -13.4640 C.ar  166  PHE166     -0.0042
     29  CE1        8.9120  -12.2960  -13.2140 C.ar  166  PHE166     -0.0003
     30  CE2       10.9950  -11.6080  -12.2460 C.ar  166  PHE166     -0.0003
     31  CZ         9.6510  -11.9300  -12.1050 C.ar  166  PHE166     -0.0000
     32  N         13.1680  -10.4160  -18.1450 N.am  167  LEU167     -0.1966
     33  CA        14.0710  -10.4310  -19.2700 C.3   167  LEU167      0.1728
     34  C         14.5840  -11.8430  -19.3730 C.2   167  LEU167      0.2616
     35  O         14.9360  -12.4520  -18.3620 O.2   167  LEU167     -0.2715
     36  CB        15.2490   -9.4850  -19.0410 C.3   167  LEU167      0.0311
     37  CG        16.2130   -9.4660  -20.2280 C.3   167  LEU167      0.0022
     38  CD1       15.5970   -8.6810  -21.3850 C.3   167  LEU167      0.0001
     39  CD2       17.5800   -8.8830  -19.8560 C.3   167  LEU167      0.0001
     40  N         14.5370  -12.4050  -20.5730 N.am  168  ASP168     -0.1957
     41  CA        15.0180  -13.7640  -20.7580 C.3   168  ASP168      0.1840
     42  C         16.0900  -13.8230  -21.8370 C.2   168  ASP168      0.2623
     43  O         16.4050  -12.8120  -22.4710 O.2   168  ASP168     -0.2715
     44  CB        13.8690  -14.7290  -21.0580 C.3   168  ASP168      0.1450
     45  CG        14.3390  -16.1730  -21.1730 C.2   168  ASP168      0.3671
     46  OD1       15.5650  -16.3790  -21.2800 O.co2 168  ASP168     -0.2456
     47  OD2       13.4850  -17.0930  -21.1900 O.co2 168  ASP168     -0.2456
     48  N         16.6960  -14.9930  -21.9910 N.am  169  GLY169     -0.1940
     49  CA        17.7910  -15.1700  -22.9320 C.3   169  GLY169      0.2014
     50  C         19.0950  -14.5200  -22.5200 C.2   169  GLY169      0.2639
     51  O         19.9030  -14.1490  -23.3680 O.2   169  GLY169     -0.2714
     52  N         19.3310  -14.4190  -21.2180 N.am  170  ILE170     -0.1963
     53  CA        20.6470  -14.0250  -20.7300 C.3   170  ILE170      0.1727
     54  C         21.6260  -15.1870  -20.7960 C.2   170  ILE170      0.2616
     55  O         22.6970  -15.0510  -21.3720 O.2   170  ILE170     -0.2715
     56  CB        20.5940  -13.4360  -19.2990 C.3   170  ILE170      0.0290
     57  CG1       19.6260  -12.2450  -19.2680 C.3   170  ILE170      0.0022
     58  CG2       21.9760  -12.9550  -18.8790 C.3   170  ILE170      0.0023
     59  CD1       19.1470  -11.8590  -17.8750 C.3   170  ILE170      0.0001
     60  N         21.1990  -16.3560  -20.3140 N.am  171  ALA171     -0.1963
     61  CA        22.1260  -17.4250  -19.9310 C.3   171  ALA171      0.1728
     62  C         22.1010  -18.6220  -20.8840 C.2   171  ALA171      0.2616
     63  O         21.1970  -19.4380  -20.8160 O.2   171  ALA171     -0.2715
     64  CB        21.8230  -17.8890  -18.5350 C.3   171  ALA171      0.0334
     65  N         23.1330  -18.7670  -21.7130 N.am  172  GLN172     -0.1977
     66  CA        23.3000  -19.9830  -22.5110 C.3   172  GLN172      0.1601
     67  C         24.6390  -20.6260  -22.1380 C.2   172  GLN172      0.2287
     68  O         25.5540  -19.9190  -21.7100 O.2   172  GLN172     -0.2864
     69  CB        23.2780  -19.6620  -24.0130 C.3   172  GLN172      0.0394
     70  CG        22.0370  -18.9120  -24.5050 C.3   172  GLN172      0.0908
     71  CD        20.7510  -19.7560  -24.4830 C.2   172  GLN172      0.2608
     72  OE1       20.7760  -20.9840  -24.3000 O.2   172  GLN172     -0.2717
     73  NE2       19.6180  -19.0860  -24.6610 N.am  172  GLN172     -0.0878
     74  N          7.8030  -27.3790  -26.1010 N.3   217  ARG217     -0.1245
     75  CA         6.7330  -27.3830  -25.1360 C.3   217  ARG217      0.1563
     76  C          5.8460  -26.1460  -25.2900 C.2   217  ARG217      0.2260
     77  O          6.3410  -25.0390  -25.2830 O.2   217  ARG217     -0.2867
     78  CB         7.3440  -27.4240  -23.7450 C.3   217  ARG217      0.0307
     79  CG         8.0240  -28.7560  -23.4540 C.3   217  ARG217      0.0489
     80  CD         6.9840  -29.7480  -22.9870 C.3   217  ARG217      0.2205
     81  NE         6.6880  -29.4910  -21.5850 N.pl3 217  ARG217     -0.0865
     82  CZ         5.9750  -30.2890  -20.7990 C.cat 217  ARG217      0.5346
     83  NH1        5.3960  -31.3740  -21.2930 N.pl3 217  ARG217      0.1354
     84  NH2        5.7880  -29.9580  -19.5290 N.pl3 217  ARG217      0.1354
     85  N          3.7270  -23.8530  -23.3690 N.3   219  LEU219     -0.1245
     86  CA         3.5340  -23.6030  -21.9270 C.3   219  LEU219      0.1561
     87  C          2.6980  -22.3320  -21.7120 C.2   219  LEU219      0.2260
     88  O          3.1880  -21.2240  -21.8900 O.2   219  LEU219     -0.2867
     89  CB         4.8820  -23.4840  -21.1750 C.3   219  LEU219      0.0270
     90  CG         5.8020  -24.7330  -21.1470 C.3   219  LEU219      0.0019
     91  CD1        7.1970  -24.3940  -20.6220 C.3   219  LEU219      0.0001
     92  CD2        5.2310  -25.8980  -20.3680 C.3   219  LEU219      0.0001
     93  N          1.0570  -19.4460  -19.7270 N.3   221  GLN221     -0.1245
     94  CA         1.3250  -18.7320  -18.4690 C.3   221  GLN221      0.1566
     95  C          0.0820  -17.9610  -17.9800 C.2   221  GLN221      0.2260
     96  O         -0.5400  -17.2380  -18.7470 O.2   221  GLN221     -0.2867
     97  CB         2.5100  -17.7590  -18.6330 C.3   221  GLN221      0.0367
     98  CG         3.8660  -18.4080  -19.0130 C.3   221  GLN221      0.0905
     99  CD         4.9240  -17.3760  -19.3460 C.2   221  GLN221      0.2608
    100  OE1        5.2710  -17.1810  -20.5130 O.2   221  GLN221     -0.2717
    101  NE2        5.3850  -16.6440  -18.3290 N.am  221  GLN221     -0.0878
    102  N         12.0860  -16.3510   -9.4720 N.3   253  VAL253     -0.1245
    103  CA        12.7890  -16.5370  -10.7420 C.3   253  VAL253      0.1561
    104  C         14.2790  -16.6820  -10.4600 C.2   253  VAL253      0.2260
    105  O         14.8950  -17.6710  -10.8670 O.2   253  VAL253     -0.2867
    106  CB        12.5760  -15.3320  -11.7110 C.3   253  VAL253      0.0252
    107  CG1       13.4370  -15.4790  -12.9520 C.3   253  VAL253      0.0019
    108  CG2       11.0930  -15.1790  -12.1080 C.3   253  VAL253      0.0019
    109  N         16.1860  -13.8210  -10.8200 N.3   255  ARG255     -0.1245
    110  CA        16.6300  -12.6130  -11.5150 C.3   255  ARG255      0.1563
    111  C         15.5370  -11.5740  -11.2800 C.2   255  ARG255      0.2260
    112  O         14.3740  -11.9320  -11.0800 O.2   255  ARG255     -0.2867
    113  CB        16.7170  -12.8620  -13.0260 C.3   255  ARG255      0.0307
    114  CG        17.7640  -13.8910  -13.4760 C.3   255  ARG255      0.0489
    115  CD        18.4840  -13.3890  -14.7330 C.3   255  ARG255      0.2205
    116  NE        19.6530  -14.1890  -15.0700 N.pl3 255  ARG255     -0.0865
    117  CZ        20.8700  -13.6890  -15.2380 C.cat 255  ARG255      0.5346
    118  NH1       21.0800  -12.3920  -15.0700 N.pl3 255  ARG255      0.1354
    119  NH2       21.8810  -14.4890  -15.5660 N.pl3 255  ARG255      0.1354
    120  N         13.9820  -20.2560   -9.9250 N.3   304  HIS304     -0.1226
    121  CA        13.9210  -20.9220  -11.2230 C.3   304  HIS304      0.1752
    122  C         15.3160  -21.3000  -11.7000 C.2   304  HIS304      0.2595
    123  O         15.6030  -22.4680  -11.9130 O.2   304  HIS304     -0.2718
    124  CB        13.2480  -20.0460  -12.2900 C.3   304  HIS304      0.0759
    125  CG        13.1530  -20.7140  -13.6320 C.ar  304  HIS304      0.0818
    126  ND1       12.7610  -22.0280  -13.7760 N.ar  304  HIS304     -0.2268
    127  CD2       13.4580  -20.2770  -14.8770 C.ar  304  HIS304      0.1154
    128  CE1       12.8490  -22.3770  -15.0480 C.ar  304  HIS304      0.1986
    129  NE2       13.2210  -21.3180  -15.7440 N.ar  304  HIS304     -0.2212
    130  N         16.1670  -20.2950  -11.8750 N.am  305  ILE305     -0.1980
    131  CA        17.4650  -20.4960  -12.5000 C.3   305  ILE305      0.1595
    132  C         18.4280  -21.3280  -11.6670 C.2   305  ILE305      0.2287
    133  O         19.3400  -21.9600  -12.2010 O.2   305  ILE305     -0.2864
    134  CB        18.1350  -19.1620  -12.8320 C.3   305  ILE305      0.0276
    135  CG1       18.3680  -18.3440  -11.5560 C.3   305  ILE305      0.0022
    136  CG2       17.2790  -18.3890  -13.8230 C.3   305  ILE305      0.0022
    137  CD1       19.1810  -17.0680  -11.7890 C.3   305  ILE305      0.0001
    138  N         17.7570  -24.7660  -12.3200 N.3   308  THR308     -0.1203
    139  CA        18.0240  -25.2580  -13.6790 C.3   308  THR308      0.1994
    140  C         19.5030  -25.2500  -14.0300 C.2   308  THR308      0.2617
    141  O         19.9670  -26.0930  -14.7910 O.2   308  THR308     -0.2717
    142  CB        17.2090  -24.5400  -14.7850 C.3   308  THR308      0.1784
    143  OG1       17.5320  -23.1400  -14.8040 O.3   308  THR308     -0.2211
    144  CG2       15.7150  -24.7470  -14.5760 C.3   308  THR308      0.0376
    145  N         20.2240  -24.2690  -13.5000 N.am  309  ARG309     -0.1979
    146  CA        21.6900  -24.2900  -13.4900 C.3   309  ARG309      0.1597
    147  C         22.2090  -23.9940  -12.0780 C.2   309  ARG309      0.2287
    148  O         22.2860  -22.8290  -11.6690 O.2   309  ARG309     -0.2864
    149  CB        22.2650  -23.2900  -14.4850 C.3   309  ARG309      0.0334
    150  CG        23.7560  -23.5070  -14.7360 C.3   309  ARG309      0.0492
    151  CD        24.4250  -22.3170  -15.3520 C.3   309  ARG309      0.2205
    152  NE        25.8630  -22.3510  -15.0890 N.pl3 309  ARG309     -0.0865
    153  CZ        26.6610  -21.2950  -15.1970 C.cat 309  ARG309      0.5346
    154  NH1       26.1570  -20.1410  -15.5970 N.pl3 309  ARG309      0.1354
    155  NH2       27.9540  -21.3910  -14.9020 N.pl3 309  ARG309      0.1354
    156  N         25.0670  -24.4180  -10.5160 N.3   311  ARG311     -0.1245
    157  CA        26.3800  -23.8120  -10.3480 C.3   311  ARG311      0.1563
    158  C         27.0500  -24.3620   -9.0740 C.2   311  ARG311      0.2260
    159  O         27.0960  -25.5800   -8.8700 O.2   311  ARG311     -0.2867
    160  CB        26.2550  -22.2870  -10.2960 C.3   311  ARG311      0.0307
    161  CG        25.4340  -21.6830  -11.4260 C.3   311  ARG311      0.0489
    162  CD        25.6530  -20.1560  -11.5960 C.3   311  ARG311      0.2205
    163  NE        24.6050  -19.5830  -12.4400 N.pl3 311  ARG311     -0.0865
    164  CZ        24.7640  -18.5720  -13.2930 C.cat 311  ARG311      0.5346
    165  NH1       25.9260  -17.9300  -13.3790 N.pl3 311  ARG311      0.1354
    166  NH2       23.7340  -18.1730  -14.0390 N.pl3 311  ARG311      0.1354
    167  N         21.3320  -26.8900  -21.4350 N.3   330  ILE330     -0.1245
    168  CA        20.5060  -26.7470  -22.6420 C.3   330  ILE330      0.1561
    169  C         20.6790  -25.4030  -23.3770 C.2   330  ILE330      0.2260
    170  O         20.9390  -24.3890  -22.7600 O.2   330  ILE330     -0.2867
    171  CB        19.0180  -26.9560  -22.3170 C.3   330  ILE330      0.0252
    172  CG1       18.4830  -25.8260  -21.4230 C.3   330  ILE330      0.0019
    173  CG2       18.7920  -28.3410  -21.6600 C.3   330  ILE330      0.0019
    174  CD1       16.9950  -26.0100  -21.0680 C.3   330  ILE330      0.0001
    175  N         18.6380  -22.6310  -25.1250 N.3   332  ARG332     -0.1245
    176  CA        17.2310  -22.2340  -25.0650 C.3   332  ARG332      0.1563
    177  C         16.8710  -21.3270  -26.2210 C.2   332  ARG332      0.2260
    178  O         17.5220  -20.2910  -26.4360 O.2   332  ARG332     -0.2867
    179  CB        16.9120  -21.5390  -23.7340 C.3   332  ARG332      0.0307
    180  CG        16.6880  -22.5190  -22.5870 C.3   332  ARG332      0.0489
    181  CD        16.6580  -21.8670  -21.2110 C.3   332  ARG332      0.2205
    182  NE        17.6220  -20.7750  -21.0950 N.pl3 332  ARG332     -0.0865
    183  CZ        17.2620  -19.5160  -20.8830 C.cat 332  ARG332      0.5346
    184  NH1       15.9630  -19.2080  -20.7600 N.pl3 332  ARG332      0.1354
    185  NH2       18.1830  -18.5660  -20.8560 N.pl3 332  ARG332      0.1354
    186  N          4.6470  -19.3770  -23.2750 N.3   357  LEU357     -0.1245
    187  CA         5.9930  -19.5390  -23.8370 C.3   357  LEU357      0.1561
    188  C          6.0010  -20.7090  -24.8020 C.2   357  LEU357      0.2260
    189  O          5.5750  -21.7990  -24.4500 O.2   357  LEU357     -0.2867
    190  CB         7.0150  -19.7920  -22.7160 C.3   357  LEU357      0.0270
    191  CG         8.4690  -19.8940  -23.1580 C.3   357  LEU357      0.0019
    192  CD1        8.9510  -18.5710  -23.7500 C.3   357  LEU357      0.0001
    193  CD2        9.3460  -20.2930  -21.9570 C.3   357  LEU357      0.0001
    194  N          8.2880  -22.8940  -25.7340 N.3   359  PHE359     -0.1241
    195  CA         9.5850  -23.2480  -25.1550 C.3   359  PHE359      0.1605
    196  C         10.3190  -24.1990  -26.0940 C.2   359  PHE359      0.2264
    197  O          9.7490  -25.1890  -26.5470 O.2   359  PHE359     -0.2867
    198  CB         9.3840  -23.9070  -23.7740 C.3   359  PHE359      0.0534
    199  CG        10.6570  -24.4680  -23.1660 C.ar  359  PHE359     -0.0203
    200  CD1       11.0840  -25.7570  -23.4850 C.ar  359  PHE359     -0.0042
    201  CD2       11.4350  -23.7020  -22.3010 C.ar  359  PHE359     -0.0042
    202  CE1       12.2760  -26.2700  -22.9590 C.ar  359  PHE359     -0.0003
    203  CE2       12.6120  -24.2210  -21.7450 C.ar  359  PHE359     -0.0003
    204  CZ        13.0270  -25.5070  -22.0820 C.ar  359  PHE359     -0.0000
    205  N         16.6350  -31.4140  -21.2470 N.3   370  PHE370     -0.1241
    206  CA        15.2940  -30.9730  -20.8020 C.3   370  PHE370      0.1605
    207  C         14.6440  -31.9360  -19.8160 C.2   370  PHE370      0.2264
    208  O         14.1170  -31.5160  -18.7740 O.2   370  PHE370     -0.2867
    209  CB        14.3360  -30.7560  -21.9950 C.3   370  PHE370      0.0534
    210  CG        12.9050  -30.6790  -21.5900 C.ar  370  PHE370     -0.0203
    211  CD1       12.3970  -29.5050  -21.0500 C.ar  370  PHE370     -0.0042
    212  CD2       12.1070  -31.8240  -21.5880 C.ar  370  PHE370     -0.0042
    213  CE1       11.1040  -29.4560  -20.5320 C.ar  370  PHE370     -0.0003
    214  CE2       10.8120  -31.7790  -21.1040 C.ar  370  PHE370     -0.0003
    215  CZ        10.3080  -30.5870  -20.5670 C.ar  370  PHE370     -0.0000
    216  N         16.6350  -31.7100  -16.2950 N.3   373  LEU373     -0.1231
    217  CA        16.3500  -30.4710  -15.5750 C.3   373  LEU373      0.1693
    218  C         14.9310  -30.4640  -14.9930 C.2   373  LEU373      0.2591
    219  O         14.7190  -30.0740  -13.8330 O.2   373  LEU373     -0.2718
    220  CB        16.5490  -29.2560  -16.4910 C.3   373  LEU373      0.0284
    221  CG        17.9610  -28.6800  -16.6620 C.3   373  LEU373      0.0019
    222  CD1       18.9970  -29.7340  -17.0340 C.3   373  LEU373      0.0001
    223  CD2       17.9890  -27.5360  -17.6780 C.3   373  LEU373      0.0001
    224  N         13.9720  -30.9220  -15.7900 N.am  374  GLN374     -0.1979
    225  CA        12.5600  -30.8680  -15.4060 C.3   374  GLN374      0.1601
    226  C         12.1980  -31.8880  -14.3230 C.2   374  GLN374      0.2287
    227  O         11.6780  -31.5320  -13.2630 O.2   374  GLN374     -0.2864
    228  CB        11.6650  -31.0770  -16.6310 C.3   374  GLN374      0.0394
    229  CG        10.1740  -31.0550  -16.3170 C.3   374  GLN374      0.0908
    230  CD         9.6750  -29.6530  -16.0420 C.2   374  GLN374      0.2608
    231  OE1        9.7300  -28.7990  -16.9120 O.2   374  GLN374     -0.2717
    232  NE2        9.2480  -29.3960  -14.8110 N.am  374  GLN374     -0.0878
    233  N          8.2480  -21.5860  -10.6980 N.3   397  ILE397     -0.1231
    234  CA         7.9000  -21.3540  -12.1020 C.3   397  ILE397      0.1692
    235  C          7.4660  -22.6030  -12.8480 C.2   397  ILE397      0.2591
    236  O          6.2900  -22.7510  -13.1850 O.2   397  ILE397     -0.2718
    237  CB         9.0320  -20.6430  -12.8520 C.3   397  ILE397      0.0266
    238  CG1        9.3980  -19.3690  -12.0970 C.3   397  ILE397      0.0019
    239  CG2        8.6110  -20.3160  -14.2780 C.3   397  ILE397      0.0020
    240  CD1        8.2030  -18.4830  -11.7580 C.3   397  ILE397      0.0001
    241  N          8.3750  -23.5460  -13.0490 N.am  398  ILE398     -0.1980
    242  CA         7.9970  -24.7560  -13.7940 C.3   398  ILE398      0.1595
    243  C          7.6660  -26.0230  -12.9860 C.2   398  ILE398      0.2287
    244  O          7.2620  -27.0350  -13.5600 O.2   398  ILE398     -0.2864
    245  CB         9.0400  -25.0730  -14.8820 C.3   398  ILE398      0.0276
    246  CG1       10.3930  -25.3990  -14.2200 C.3   398  ILE398      0.0022
    247  CG2        9.1690  -23.8710  -15.8240 C.3   398  ILE398      0.0022
    248  CD1       11.3560  -26.1310  -15.1200 C.3   398  ILE398      0.0001
    249  N          1.9820  -21.8480  -14.7870 N.3   426  VAL426     -0.1245
    250  CA         2.4380  -22.2970  -16.0720 C.3   426  VAL426      0.1561
    251  C          1.7480  -23.6150  -16.3270 C.2   426  VAL426      0.2260
    252  O          1.8090  -24.5290  -15.5080 O.2   426  VAL426     -0.2867
    253  CB         3.9630  -22.5010  -16.0710 C.3   426  VAL426      0.0252
    254  CG1        4.4130  -23.2880  -17.3090 C.3   426  VAL426      0.0019
    255  CG2        4.6610  -21.1630  -15.9850 C.3   426  VAL426      0.0019
@<TRIPOS>BOND
     1   197   196    2
     2   178   177    2
     3   177   176    1
     4    74    75    1
     5   196   195    1
     6   194   195    1
     7    76    77    2
     8    76    75    1
     9   195   198    1
    10    75    78    1
    11   175   176    1
    12   176   179    1
    13   188   189    2
    14   188   187    1
    15    73    71   am
    16    70    71    1
    17    70    69    1
    18    71    72    2
    19    69    66    1
    20   187   186    1
    21   187   190    1
    22   198   199    1
    23   192   191    1
    24    78    79    1
    25   179   180    1
    26   200   199   ar
    27   200   202   ar
    28    79    80    1
    29   169   170    2
    30   169   168    1
    31    85    86    1
    32    51    50    2
    33   199   201   ar
    34   191   190    1
    35   191   193    1
    36    80    81    1
    37   202   204   ar
    38    49    50    1
    39    49    48    1
    40   168   171    1
    41   168   167    1
    42   180   181    1
    43    50    52   am
    44    66    67    1
    45    66    65    1
    46    43    42    2
    47   171   173    1
    48   171   172    1
    49   201   203   ar
    50    67    68    2
    51   204   203   ar
    52   209   210    1
    53   209   206    1
    54    48    42   am
    55    86    87    1
    56    86    89    1
    57    88    87    2
    58    42    41    1
    59    65    62   am
    60   210   212   ar
    61   210   211   ar
    62   212   214   ar
    63    81    82    2
    64     2     1    1
    65     2     5    1
    66     2     3    1
    67   172   174    1
    68    38    37    1
    69    55    54    2
    70    83    82    1
    71    46    45   ar
    72   205   206    1
    73    52    53    1
    74   181   182    1
    75    47    45   ar
    76    89    90    1
    77    45    44    1
    78    90    91    1
    79    90    92    1
    80   214   215   ar
    81   182   183    2
    82    44    41    1
    83   211   213   ar
    84     5     6    1
    85    62    63    2
    86    62    61    1
    87   183   185    1
    88   183   184    1
    89     3     4    2
    90   206   207    1
    91    82    84    1
    92    54    53    1
    93    54    60   am
    94    41    40    1
    95    53    56    1
    96    40    34   am
    97   215   213   ar
    98   100    99    2
    99    60    61    1
   100    37    39    1
   101    37    36    1
   102    61    64    1
   103   207   208    2
   104    93    94    1
   105     6     7    1
   106    34    33    1
   107    34    35    2
   108    99    98    1
   109    99   101   am
   110    56    57    1
   111    56    58    1
   112    33    36    1
   113    33    32    1
   114    57    59    1
   115    24    23    2
   116    98    97    1
   117    96    95    2
   118    97    94    1
   119    94    95    1
   120     7     8   ar
   121     7     9   ar
   122    32    23   am
   123    23    22    1
   124    10    11    1
   125   223   221    1
   126   254   253    1
   127    21    22    1
   128   222   221    1
   129   231   230    2
   130    22    25    1
   131    11    12    1
   132    11    14    1
   133   221   220    1
   134   228   229    1
   135   228   225    1
   136   220   217    1
   137    12    13    2
   138   251   250    1
   139   251   252    2
   140   229   230    1
   141   216   217    1
   142   250   253    1
   143   250   249    1
   144   253   255    1
   145   230   232   am
   146    25    26    1
   147   247   245    1
   148   224   225    1
   149   224   218   am
   150   129   128   ar
   151   129   127   ar
   152    14    15    1
   153   154   153    1
   154   217   218    1
   155   119   117    1
   156    15    16   ar
   157    15    17   ar
   158    16    18   ar
   159    17    19   ar
   160   225   226    1
   161   151   152    1
   162   151   150    1
   163    19    20   ar
   164    18    20   ar
   165   117   116    2
   166   117   118    1
   167   153   152    2
   168   153   155    1
   169   248   246    1
   170   116   115    1
   171   128   126   ar
   172   218   219    2
   173   245   246    1
   174   245   242    1
   175   127   125   ar
   176   143   142    1
   177   141   140    2
   178   142   144    1
   179   142   139    1
   180   150   149    1
   181   115   114    1
   182    26    27   ar
   183    26    28   ar
   184   149   146    1
   185    27    29   ar
   186   226   227    2
   187   239   237    1
   188   166   164    1
   189   140   139    1
   190   140   145   am
   191   136   134    1
   192   242   241    1
   193   242   243    1
   194   126   125   ar
   195   139   138    1
   196   125   124    1
   197   244   243    2
   198   145   146    1
   199   146   147    1
   200   114   113    1
   201    28    30   ar
   202   165   164    1
   203   164   163    2
   204    29    31   ar
   205   236   235    2
   206   241   235   am
   207   113   110    1
   208   107   106    1
   209   237   234    1
   210   237   238    1
   211   235   234    1
   212   134   131    1
   213   134   135    1
   214   131   130    1
   215   131   132    1
   216   163   162    1
   217   124   121    1
   218    30    31   ar
   219   133   132    2
   220   108   106    1
   221   234   233    1
   222   238   240    1
   223   147   148    2
   224   123   122    2
   225   130   122   am
   226   137   135    1
   227   106   103    1
   228   122   121    1
   229   162   161    1
   230   110   111    1
   231   110   109    1
   232   161   160    1
   233   111   112    2
   234   121   120    1
   235   105   104    2
   236   103   104    1
   237   103   102    1
   238   156   157    1
   239   157   160    1
   240   157   158    1
   241   158   159    2
