@<TRIPOS>MOLECULE
tmp/4auaA00.pdb
 143 135 0 0 0
SMALL
GASTEIGER

@<TRIPOS>ATOM
      1  N         24.9590   41.0550  -11.4250 N.3     9  ILE9       -0.1245
      2  CA        23.8070   40.1290  -11.5700 C.3     9  ILE9        0.1561
      3  C         22.5720   40.1840  -10.6090 C.2     9  ILE9        0.2260
      4  O         21.5990   39.4800  -10.8750 O.2     9  ILE9       -0.2867
      5  CB        24.3110   38.6550  -11.6150 C.3     9  ILE9        0.0252
      6  CG1       24.9120   38.2320  -10.2740 C.3     9  ILE9        0.0019
      7  CG2       25.3450   38.4840  -12.7220 C.3     9  ILE9        0.0019
      8  CD1       25.3190   36.7790  -10.2360 C.3     9  ILE9        0.0001
      9  N         26.6960   41.7260   -6.3950 N.3    16  VAL16      -0.1245
     10  CA        27.0930   40.3800   -6.7990 C.3    16  VAL16       0.1561
     11  C         27.6370   40.4580   -8.2200 C.2    16  VAL16       0.2260
     12  O         26.9450   40.9250   -9.1280 O.2    16  VAL16      -0.2867
     13  CB        25.8900   39.4230   -6.7970 C.3    16  VAL16       0.0252
     14  CG1       26.3170   38.0290   -7.2340 C.3    16  VAL16       0.0019
     15  CG2       25.2320   39.3870   -5.4210 C.3    16  VAL16       0.0019
     16  N         30.3170   33.7290   -9.0770 N.3    30  ALA30      -0.1245
     17  CA        29.6930   34.9250   -8.5260 C.3    30  ALA30       0.1562
     18  C         30.5440   35.4370   -7.3700 C.2    30  ALA30       0.2260
     19  O         30.6150   34.7850   -6.3310 O.2    30  ALA30      -0.2867
     20  CB        28.2620   34.6010   -8.0430 C.3    30  ALA30       0.0290
     21  N         31.4390   38.1940   -4.3290 N.3    32  LYS32      -0.1245
     22  CA        30.6920   39.0080   -3.3590 C.3    32  LYS32       0.1561
     23  C         31.6500   39.7450   -2.4200 C.2    32  LYS32       0.2260
     24  O         32.4740   39.1170   -1.7690 O.2    32  LYS32      -0.2867
     25  CB        29.7630   38.1070   -2.5350 C.3    32  LYS32       0.0271
     26  CG        28.7530   38.8540   -1.6650 C.3    32  LYS32       0.0035
     27  CD        28.1590   37.9870   -0.5370 C.3    32  LYS32       0.0206
     28  CE        27.0180   37.0730   -1.0140 C.3    32  LYS32       0.1093
     29  NZ        26.2380   36.4610    0.1240 N.3    32  LYS32      -0.1314
     30  N         23.8860   26.9680   -3.0260 N.3    54  VAL54      -0.1245
     31  CA        24.9590   27.4020   -3.8970 C.3    54  VAL54       0.1561
     32  C         26.2680   26.9050   -3.2730 C.2    54  VAL54       0.2260
     33  O         26.3990   26.8490   -2.0370 O.2    54  VAL54      -0.2867
     34  CB        24.8750   28.9470   -4.1240 C.3    54  VAL54       0.0252
     35  CG1       25.2980   29.7500   -2.8720 C.3    54  VAL54       0.0019
     36  CG2       25.6690   29.3900   -5.2880 C.3    54  VAL54       0.0019
     37  N         31.3650   32.2560   -5.0580 N.3    67  PHE67      -0.1227
     38  CA        30.3290   31.2360   -5.1280 C.3    67  PHE67       0.1736
     39  C         30.1560   30.7040   -6.5300 C.2    67  PHE67       0.2595
     40  O         30.6410   31.2710   -7.5100 O.2    67  PHE67      -0.2718
     41  CB        28.9680   31.8030   -4.7190 C.3    67  PHE67       0.0547
     42  CG        28.8860   32.2310   -3.2950 C.ar   67  PHE67      -0.0202
     43  CD1       28.5590   31.3300   -2.3140 C.ar   67  PHE67      -0.0042
     44  CD2       29.1200   33.5600   -2.9410 C.ar   67  PHE67      -0.0042
     45  CE1       28.4830   31.7320   -0.9930 C.ar   67  PHE67      -0.0003
     46  CE2       29.0450   33.9670   -1.6220 C.ar   67  PHE67      -0.0003
     47  CZ        28.7260   33.0640   -0.6490 C.ar   67  PHE67      -0.0000
     48  N         29.4130   29.6090   -6.5880 N.am   68  GLU68      -0.1965
     49  CA        28.8910   29.0660   -7.8020 C.3    68  GLU68       0.1733
     50  C         27.9630   30.0650   -8.5270 C.2    68  GLU68       0.2616
     51  O         26.9920   30.5910   -7.9250 O.2    68  GLU68      -0.2715
     52  CB        28.0420   27.8700   -7.4100 C.3    68  GLU68       0.0429
     53  CG        27.5680   27.0190   -8.5460 C.3    68  GLU68       0.1163
     54  CD        26.5950   25.9720   -8.0870 C.2    68  GLU68       0.3649
     55  OE1       26.3660   25.8520   -6.8460 O.co2  68  GLU68      -0.2457
     56  OE2       26.0470   25.2810   -8.9750 O.co2  68  GLU68      -0.2457
     57  N         28.2220   30.2720   -9.8170 N.am   69  HIS69      -0.1959
     58  CA        27.3140   31.0140  -10.6750 C.3    69  HIS69       0.1787
     59  C         26.2990   30.0790  -11.3550 C.2    69  HIS69       0.2620
     60  O         26.6820   29.0540  -11.9180 O.2    69  HIS69      -0.2715
     61  CB        28.0950   31.7760  -11.7430 C.3    69  HIS69       0.0785
     62  CG        27.2160   32.4040  -12.7840 C.ar   69  HIS69       0.0821
     63  ND1       26.6320   33.6440  -12.6190 N.ar   69  HIS69      -0.2267
     64  CD2       26.7830   31.9380  -13.9820 C.ar   69  HIS69       0.1154
     65  CE1       25.8930   33.9200  -13.6790 C.ar   69  HIS69       0.1986
     66  NE2       25.9650   32.9000  -14.5190 N.ar   69  HIS69      -0.2212
     67  N         25.0140   30.4440  -11.3100 N.am   70  VAL70      -0.1963
     68  CA        23.9720   29.7860  -12.1230 C.3    70  VAL70       0.1727
     69  C         23.2820   30.8080  -13.0380 C.2    70  VAL70       0.2616
     70  O         23.1160   31.9540  -12.6750 O.2    70  VAL70      -0.2715
     71  CB        22.9860   28.8770  -11.2860 C.3    70  VAL70       0.0290
     72  CG1       23.2700   28.9330   -9.7890 C.3    70  VAL70       0.0023
     73  CG2       21.5330   29.1460  -11.6190 C.3    70  VAL70       0.0023
     74  N         22.9570   30.3960  -14.2580 N.am   71  ASP71      -0.1957
     75  CA        22.5050   31.3170  -15.3020 C.3    71  ASP71       0.1840
     76  C         21.2300   32.0670  -14.9430 C.2    71  ASP71       0.2622
     77  O         21.1240   33.2490  -15.2360 O.2    71  ASP71      -0.2715
     78  CB        22.2780   30.5900  -16.6400 C.3    71  ASP71       0.1450
     79  CG        23.5740   30.2830  -17.3800 C.2    71  ASP71       0.3671
     80  OD1       24.5480   31.0430  -17.1960 O.co2  71  ASP71      -0.2456
     81  OD2       23.6050   29.2830  -18.1470 O.co2  71  ASP71      -0.2456
     82  N         20.2540   31.4020  -14.3390 N.am   72  GLN72      -0.1963
     83  CA        19.0670   32.1380  -13.9080 C.3    72  GLN72       0.1733
     84  C         18.6390   31.9720  -12.4600 C.2    72  GLN72       0.2616
     85  O         19.1040   31.0770  -11.7390 O.2    72  GLN72      -0.2715
     86  CB        17.8790   31.9510  -14.8720 C.3    72  GLN72       0.0408
     87  CG        17.5920   30.5810  -15.4000 C.3    72  GLN72       0.0908
     88  CD        17.0170   30.6560  -16.8080 C.2    72  GLN72       0.2608
     89  OE1       15.8800   30.2230  -17.0640 O.2    72  GLN72      -0.2717
     90  NE2       17.7910   31.2400  -17.7280 N.am   72  GLN72      -0.0878
     91  N         17.7780   32.9070  -12.0560 N.am   73  ASP73      -0.1971
     92  CA        17.0630   32.8640  -10.7810 C.3    73  ASP73       0.1709
     93  C         15.5830   32.5750  -11.0430 C.2    73  ASP73       0.2293
     94  O         15.1540   32.4940  -12.1900 O.2    73  ASP73      -0.2864
     95  CB        17.2470   34.1860  -10.0370 C.3    73  ASP73       0.1436
     96  CG        16.6610   35.3780  -10.7830 C.2    73  ASP73       0.3671
     97  OD1       15.9140   35.1820  -11.7560 O.co2  73  ASP73      -0.2456
     98  OD2       16.9540   36.5220  -10.3850 O.co2  73  ASP73      -0.2456
     99  N         13.5510   35.2800  -13.3250 N.3    76  THR76      -0.1218
    100  CA        13.7420   35.1450  -14.7730 C.3    76  THR76       0.1862
    101  C         13.1190   33.8660  -15.3390 C.2    76  THR76       0.2287
    102  O         12.6430   33.8440  -16.4700 O.2    76  THR76      -0.2866
    103  CB        15.2150   35.2190  -15.1500 C.3    76  THR76       0.1770
    104  OG1       15.9330   34.2270  -14.4140 O.3    76  THR76      -0.2211
    105  CG2       15.7900   36.5970  -14.8070 C.3    76  THR76       0.0375
    106  N         14.6260   36.0270   -6.3620 N.3   118  GLN118     -0.1231
    107  CA        15.8810   36.6240   -6.8390 C.3   118  GLN118      0.1698
    108  C         17.1420   35.9450   -6.3200 C.2   118  GLN118      0.2592
    109  O         18.2220   36.1190   -6.8820 O.2   118  GLN118     -0.2718
    110  CB        15.9750   38.0760   -6.3800 C.3   118  GLN118      0.0381
    111  CG        15.2010   39.0720   -7.2130 C.3   118  GLN118      0.0905
    112  CD        13.6920   39.0500   -6.9790 C.2   118  GLN118      0.2608
    113  OE1       12.9220   39.2380   -7.9310 O.2   118  GLN118     -0.2717
    114  NE2       13.2620   38.8360   -5.7250 N.am  118  GLN118     -0.0878
    115  N         17.0220   35.2450   -5.2010 N.am  119  ASN119     -0.1974
    116  CA        18.1310   34.4550   -4.6800 C.3   119  ASN119      0.1688
    117  C         17.7480   32.9770   -4.5240 C.2   119  ASN119      0.2292
    118  O         18.3350   32.2600   -3.7300 O.2   119  ASN119     -0.2864
    119  CB        18.6730   35.0780   -3.3760 C.3   119  ASN119      0.1181
    120  CG        17.6250   35.2110   -2.2890 C.2   119  ASN119      0.2629
    121  OD1       16.7250   34.3670   -2.1430 O.2   119  ASN119     -0.2716
    122  ND2       17.7590   36.2580   -1.4910 N.am  119  ASN119     -0.0877
    123  N         18.0100   30.0410   -7.1010 N.3   121  LEU121     -0.1245
    124  CA        18.6400   29.8850   -8.4180 C.3   121  LEU121      0.1561
    125  C         18.1780   28.6010   -9.0770 C.2   121  LEU121      0.2260
    126  O         17.9010   27.6060   -8.4070 O.2   121  LEU121     -0.2867
    127  CB        20.1560   30.0030   -8.3140 C.3   121  LEU121      0.0270
    128  CG        20.6180   31.3440   -7.6980 C.3   121  LEU121      0.0019
    129  CD1       22.0970   31.3170   -7.4100 C.3   121  LEU121      0.0001
    130  CD2       20.2630   32.5620   -8.5680 C.3   121  LEU121      0.0001
    131  N         20.7170   30.8470   -2.5180 N.3   131  ALA131     -0.1231
    132  CA        21.8630   31.7530   -2.3710 C.3   131  ALA131      0.1694
    133  C         21.5270   32.8680   -1.4050 C.2   131  ALA131      0.2592
    134  O         20.3650   33.0610   -1.0360 O.2   131  ALA131     -0.2718
    135  CB        22.2450   32.3610   -3.7100 C.3   131  ALA131      0.0304
    136  N         22.5650   33.5910   -1.0120 N.am  132  ASP132     -0.1974
    137  CA        22.4620   34.8690   -0.3010 C.3   132  ASP132      0.1709
    138  C         21.9380   34.7320    1.1230 C.2   132  ASP132      0.2293
    139  O         21.1110   35.5200    1.5620 O.2   132  ASP132     -0.2864
    140  CB        21.6290   35.8700   -1.1120 C.3   132  ASP132      0.1436
    141  CG        22.3120   37.2140   -1.2540 C.2   132  ASP132      0.3671
    142  OD1       22.9860   37.6410   -0.2960 O.co2 132  ASP132     -0.2456
    143  OD2       22.1820   37.8450   -2.3270 O.co2 132  ASP132     -0.2456
@<TRIPOS>BOND
     1    81    79   ar
     2    90    88   am
     3    79    80   ar
     4    79    78    1
     5    89    88    2
     6    88    87    1
     7    78    75    1
     8   102   101    2
     9    87    86    1
    10   101   100    1
    11    75    76    1
    12    75    74    1
    13    77    76    2
    14   103   105    1
    15   103   100    1
    16   103   104    1
    17    76    82   am
    18    86    83    1
    19   100    99    1
    20    66    64   ar
    21    66    65   ar
    22    82    83    1
    23    74    69   am
    24    64    62   ar
    25    83    84    1
    26    65    63   ar
    27    69    70    2
    28    69    68    1
    29    62    63   ar
    30    62    61    1
    31     7     5    1
    32    84    91   am
    33    84    85    2
    34    94    93    2
    35    68    67    1
    36    68    71    1
    37    91    92    1
    38    60    59    2
    39    97    96   ar
    40    61    58    1
    41    73    71    1
    42     5     2    1
    43     5     6    1
    44     2     1    1
    45     2     3    1
    46    59    67   am
    47    59    58    1
    48    71    72    1
    49    93    92    1
    50     4     3    2
    51    96    98   ar
    52    96    95    1
    53    92    95    1
    54    58    57    1
    55     6     8    1
    56    57    50   am
    57    12    11    2
    58    16    17    1
    59   125   124    1
    60   125   126    2
    61    56    54   ar
    62   130   128    1
    63    53    54    1
    64    53    52    1
    65    50    51    2
    66    50    49    1
    67    17    20    1
    68    17    18    1
    69   124   127    1
    70   124   123    1
    71   127   128    1
    72    11    10    1
    73    54    55   ar
    74   113   112    2
    75    49    52    1
    76    49    48    1
    77   128   129    1
    78    40    39    2
    79    18    19    2
    80    14    13    1
    81   111   112    1
    82   111   110    1
    83   112   114   am
    84   109   108    2
    85   107   110    1
    86   107   106    1
    87   107   108    1
    88    10    13    1
    89    10     9    1
    90    13    15    1
    91    48    39   am
    92    39    38    1
    93   108   115   am
    94    36    34    1
    95   115   116    1
    96    38    37    1
    97    38    41    1
    98    41    42    1
    99   116   117    1
   100   116   119    1
   101   117   118    2
   102    21    22    1
   103    34    31    1
   104    34    35    1
   105    31    32    1
   106    31    30    1
   107   135   132    1
   108   119   120    1
   109    22    25    1
   110    22    23    1
   111    42    44   ar
   112    42    43   ar
   113    32    33    2
   114    44    46   ar
   115    25    26    1
   116   131   132    1
   117    23    24    2
   118   132   133    1
   119   143   141   ar
   120    43    45   ar
   121   120   121    2
   122   120   122   am
   123    26    27    1
   124    46    47   ar
   125   133   134    2
   126   133   136   am
   127   141   140    1
   128   141   142   ar
   129   140   137    1
   130    28    27    1
   131    28    29    1
   132   136   137    1
   133    45    47   ar
   134   137   138    1
   135   138   139    2
