@<TRIPOS>MOLECULE
tmp/4aubG01.pdb
 107 107 0 0 0
SMALL
GASTEIGER

@<TRIPOS>ATOM
      1  N         -7.5210  -26.3040   -7.9390 N.3    32  TRP32      -0.1241
      2  CA        -6.9390  -25.8370   -9.2010 C.3    32  TRP32       0.1605
      3  C         -7.7690  -26.2680  -10.3690 C.2    32  TRP32       0.2264
      4  O         -8.0660  -25.4400  -11.2160 O.2    32  TRP32      -0.2867
      5  CB        -5.5200  -26.3470   -9.3320 C.3    32  TRP32       0.0550
      6  CG        -4.7540  -25.9590  -10.5440 C.ar   32  TRP32       0.0003
      7  CD1       -4.8120  -24.7560  -11.2720 C.ar   32  TRP32       0.0946
      8  CD2       -3.7220  -26.7750  -11.2140 C.ar   32  TRP32       0.0152
      9  NE1       -3.9170  -24.7710  -12.3290 N.ar   32  TRP32      -0.2442
     10  CE2       -3.2320  -25.9830  -12.3450 C.ar   32  TRP32       0.0810
     11  CE3       -3.2230  -28.0770  -11.0170 C.ar   32  TRP32       0.0012
     12  CZ2       -2.2550  -26.4500  -13.1920 C.ar   32  TRP32       0.0191
     13  CZ3       -2.2310  -28.5510  -11.8970 C.ar   32  TRP32       0.0001
     14  CH2       -1.7830  -27.7780  -12.9640 C.ar   32  TRP32       0.0015
     15  N         -6.5650  -17.1840   -9.2180 N.3    64  ASN64      -0.1225
     16  CA        -6.8350  -17.4390  -10.6280 C.3    64  ASN64       0.1785
     17  C         -7.3110  -18.8640  -10.9260 C.2    64  ASN64       0.2597
     18  O         -7.5550  -19.1960  -12.0920 O.2    64  ASN64      -0.2718
     19  CB        -5.6200  -17.1120  -11.5270 C.3    64  ASN64       0.1169
     20  CG        -4.4610  -18.0510  -11.3540 C.2    64  ASN64       0.2627
     21  OD1       -4.5780  -19.1200  -10.8010 O.2    64  ASN64      -0.2716
     22  ND2       -3.2940  -17.6690  -11.8990 N.am   64  ASN64      -0.0877
     23  N         -7.5870  -19.6540   -9.9060 N.am   65  TYR65      -0.1976
     24  CA        -8.1810  -20.9430  -10.1730 C.3    65  TYR65       0.1639
     25  C         -9.6180  -20.8910  -10.7370 C.2    65  TYR65       0.2290
     26  O        -10.4470  -20.0650  -10.3530 O.2    65  TYR65      -0.2864
     27  CB        -8.2410  -21.8160   -8.9000 C.3    65  TYR65       0.0560
     28  CG        -6.9310  -22.2650   -8.3530 C.ar   65  TYR65      -0.0198
     29  CD1       -5.7610  -22.1100   -9.0360 C.ar   65  TYR65      -0.0009
     30  CD2       -6.8830  -22.9180   -7.1270 C.ar   65  TYR65      -0.0009
     31  CE1       -4.5500  -22.5490   -8.5100 C.ar   65  TYR65       0.0417
     32  CE2       -5.7050  -23.4140   -6.6420 C.ar   65  TYR65       0.0417
     33  CZ        -4.5360  -23.2250   -7.3110 C.ar   65  TYR65       0.1957
     34  OH        -3.3790  -23.6830   -6.7470 O.3    65  TYR65      -0.2866
     35  N         -3.9140  -17.4080   -2.5740 N.3    96  LYS96      -0.1245
     36  CA        -2.5970  -16.9730   -3.0070 C.3    96  LYS96       0.1561
     37  C         -2.7150  -15.8090   -4.0160 C.2    96  LYS96       0.2260
     38  O         -3.7300  -15.6640   -4.6910 O.2    96  LYS96      -0.2867
     39  CB        -1.8930  -18.1130   -3.7020 C.3    96  LYS96       0.0271
     40  CG        -2.1490  -19.5050   -3.0940 C.3    96  LYS96       0.0035
     41  CD        -1.3190  -20.5160   -3.8220 C.3    96  LYS96       0.0206
     42  CE        -1.5320  -21.9600   -3.3820 C.3    96  LYS96       0.1093
     43  NZ        -2.7850  -22.5550   -3.9330 N.3    96  LYS96      -0.1314
     44  N          0.7030  -15.2540   -9.7070 N.3    99  TYR99      -0.1227
     45  CA         0.5230  -15.4120  -11.1470 C.3    99  TYR99       0.1736
     46  C         -0.4170  -14.3910  -11.7670 C.2    99  TYR99       0.2595
     47  O         -0.9770  -13.5210  -11.0800 O.2    99  TYR99      -0.2718
     48  CB         0.0920  -16.8310  -11.4450 C.3    99  TYR99       0.0548
     49  CG         1.1950  -17.8510  -11.1880 C.ar   99  TYR99      -0.0200
     50  CD1        2.1280  -18.1980  -12.1880 C.ar   99  TYR99      -0.0009
     51  CD2        1.3570  -18.4360   -9.9240 C.ar   99  TYR99      -0.0009
     52  CE1        3.1260  -19.1560  -11.9580 C.ar   99  TYR99       0.0417
     53  CE2        2.3880  -19.3470   -9.6750 C.ar   99  TYR99       0.0417
     54  CZ         3.2730  -19.7020  -10.7020 C.ar   99  TYR99       0.1957
     55  OH         4.2450  -20.6600  -10.4400 O.3    99  TYR99      -0.2866
     56  N         -0.6210  -14.4910  -13.0700 N.am  100  ASP100     -0.1974
     57  CA        -1.4690  -13.5390  -13.7800 C.3   100  ASP100      0.1709
     58  C         -2.8650  -13.7360  -13.3110 C.2   100  ASP100      0.2293
     59  O         -3.3630  -14.8360  -13.3190 O.2   100  ASP100     -0.2864
     60  CB        -1.4340  -13.7620  -15.2920 C.3   100  ASP100      0.1436
     61  CG        -0.1140  -13.3810  -15.9130 C.2   100  ASP100      0.3671
     62  OD1        0.8350  -12.9720  -15.2230 O.co2 100  ASP100     -0.2456
     63  OD2       -0.0140  -13.5790  -17.1270 O.co2 100  ASP100     -0.2456
     64  N          2.5010  -16.6640   -4.2390 N.3   137  HIS137     -0.1241
     65  CA         2.2400  -17.8620   -5.0770 C.3   137  HIS137      0.1621
     66  C          3.4880  -18.2610   -5.8350 C.2   137  HIS137      0.2264
     67  O          3.6000  -19.4020   -6.2550 O.2   137  HIS137     -0.2867
     68  CB         1.1200  -17.5340   -6.0910 C.3   137  HIS137      0.0745
     69  CG         0.3170  -18.7370   -6.6160 C.ar  137  HIS137      0.0817
     70  ND1       -0.8970  -18.5790   -7.1780 N.ar  137  HIS137     -0.2268
     71  CD2        0.5630  -20.1290   -6.5790 C.ar  137  HIS137      0.1154
     72  CE1       -1.3960  -19.7760   -7.5670 C.ar  137  HIS137      0.1986
     73  NE2       -0.5230  -20.7510   -7.1790 N.ar  137  HIS137     -0.2212
     74  N          4.8540  -24.4690   -0.1820 N.3   192  GLN192     -0.1245
     75  CA         4.1150  -25.3270   -1.0720 C.3   192  GLN192      0.1566
     76  C          4.9180  -25.4990   -2.4040 C.2   192  GLN192      0.2260
     77  O          4.8710  -24.6320   -3.2680 O.2   192  GLN192     -0.2867
     78  CB         2.7250  -24.6950   -1.3710 C.3   192  GLN192      0.0367
     79  CG         1.8520  -25.5220   -2.3070 C.3   192  GLN192      0.0905
     80  CD         0.4580  -25.0120   -2.4890 C.2   192  GLN192      0.2608
     81  OE1       -0.0100  -24.9470   -3.5980 O.2   192  GLN192     -0.2717
     82  NE2       -0.2700  -24.8090   -1.3970 N.am  192  GLN192     -0.0878
     83  N          2.6090  -30.2040   -3.8720 N.3   221  PHE221     -0.1241
     84  CA         1.6200  -30.0230   -4.9230 C.3   221  PHE221      0.1605
     85  C          1.9090  -30.8350   -6.1740 C.2   221  PHE221      0.2264
     86  O          3.0340  -31.1580   -6.4480 O.2   221  PHE221     -0.2867
     87  CB         1.2550  -28.5410   -5.1300 C.3   221  PHE221      0.0534
     88  CG         2.1010  -27.7850   -6.0380 C.ar  221  PHE221     -0.0203
     89  CD1        1.9800  -27.9390   -7.4220 C.ar  221  PHE221     -0.0042
     90  CD2        2.9330  -26.7790   -5.5480 C.ar  221  PHE221     -0.0042
     91  CE1        2.7830  -27.1910   -8.2870 C.ar  221  PHE221     -0.0003
     92  CE2        3.7170  -26.0060   -6.4230 C.ar  221  PHE221     -0.0003
     93  CZ         3.6390  -26.2110   -7.7910 C.ar  221  PHE221     -0.0000
     94  N          6.5700  -25.3930  -12.9560 N.3   329  TRP329     -0.1241
     95  CA         6.7170  -24.2440  -12.0230 C.3   329  TRP329      0.1605
     96  C          8.1560  -24.0610  -11.6510 C.2   329  TRP329      0.2264
     97  O          8.4870  -23.4860  -10.5940 O.2   329  TRP329     -0.2867
     98  CB         5.8120  -24.4840  -10.7860 C.3   329  TRP329      0.0550
     99  CG         4.3800  -24.6840  -11.2250 C.ar  329  TRP329      0.0003
    100  CD1        3.4290  -23.7140  -11.4760 C.ar  329  TRP329      0.0946
    101  CD2        3.7550  -25.9600  -11.6140 C.ar  329  TRP329      0.0152
    102  NE1        2.2750  -24.2820  -11.9580 N.ar  329  TRP329     -0.2442
    103  CE2        2.4090  -25.6330  -12.0650 C.ar  329  TRP329      0.0810
    104  CE3        4.1660  -27.3050  -11.6060 C.ar  329  TRP329      0.0012
    105  CZ2        1.5000  -26.6210  -12.4810 C.ar  329  TRP329      0.0191
    106  CZ3        3.2540  -28.2920  -12.0250 C.ar  329  TRP329      0.0001
    107  CH2        1.9430  -27.9550  -12.4430 C.ar  329  TRP329      0.0015
@<TRIPOS>BOND
     1    63    61   ar
     2    61    60    1
     3    61    62   ar
     4    60    57    1
     5    57    58    1
     6    57    56    1
     7    59    58    2
     8    12    14   ar
     9    12    10   ar
    10    56    46   am
    11    14    13   ar
    12    94    95    1
    13   105   107   ar
    14   105   103   ar
    15   107   106   ar
    16    10     9   ar
    17    10     8   ar
    18     9     7   ar
    19    50    52   ar
    20    50    49   ar
    21    18    17    2
    22   103   102   ar
    23   103   101   ar
    24   106   104   ar
    25    95    96    1
    26    95    98    1
    27    52    54   ar
    28   102   100   ar
    29    22    20   am
    30    13    11   ar
    31    46    45    1
    32    46    47    2
    33    96    97    2
    34   101   104   ar
    35   101    99   ar
    36    19    20    1
    37    19    16    1
    38   100    99   ar
    39    48    49    1
    40    48    45    1
    41    20    21    2
    42     7     6   ar
    43    99    98    1
    44     4     3    2
    45     8    11   ar
    46     8     6   ar
    47    49    51   ar
    48    45    44    1
    49    17    16    1
    50    17    23   am
    51    25    26    2
    52    25    24    1
    53    54    55    1
    54    54    53   ar
    55    16    15    1
    56     6     5    1
    57     3     2    1
    58    24    23    1
    59    24    27    1
    60    51    53   ar
    61     5     2    1
    62     2     1    1
    63    29    31   ar
    64    29    28   ar
    65    27    28    1
    66    31    33   ar
    67    28    30   ar
    68    91    93   ar
    69    91    89   ar
    70    93    92   ar
    71    72    73   ar
    72    72    70   ar
    73    89    88   ar
    74    33    34    1
    75    33    32   ar
    76    73    71   ar
    77    70    69   ar
    78    30    32   ar
    79    69    71   ar
    80    69    68    1
    81    86    85    2
    82    92    90   ar
    83    67    66    2
    84    85    84    1
    85    68    65    1
    86    88    90   ar
    87    88    87    1
    88    66    65    1
    89    87    84    1
    90    65    64    1
    91    84    83    1
    92    38    37    2
    93    37    36    1
    94    43    42    1
    95    41    42    1
    96    41    40    1
    97    39    40    1
    98    39    36    1
    99    81    80    2
   100    77    76    2
   101    36    35    1
   102    80    79    1
   103    80    82   am
   104    76    75    1
   105    79    78    1
   106    78    75    1
   107    75    74    1
