@<TRIPOS>MOLECULE
tmp/4aubF00.pdb
 234 226 0 0 0
SMALL
GASTEIGER

@<TRIPOS>ATOM
      1  N        -17.4380  -17.8840   39.1290 N.3    29  GLY29      -0.1225
      2  CA       -17.2800  -18.6730   37.9310 C.3    29  GLY29       0.1811
      3  C        -18.5320  -19.3090   37.4190 C.2    29  GLY29       0.2280
      4  O        -19.4400  -19.6020   38.1960 O.2    29  GLY29      -0.2866
      5  N        -18.6220  -22.1140   35.4340 N.3    31  TRP31      -0.1227
      6  CA       -18.3490  -23.5250   35.0590 C.3    31  TRP31       0.1737
      7  C        -19.5760  -24.3840   35.2230 C.2    31  TRP31       0.2595
      8  O        -19.9290  -25.1070   34.2960 O.2    31  TRP31      -0.2718
      9  CB       -17.1830  -24.0370   35.8280 C.3    31  TRP31       0.0564
     10  CG       -16.7350  -25.4340   35.5130 C.ar   31  TRP31       0.0003
     11  CD1      -16.7910  -26.1040   34.2900 C.ar   31  TRP31       0.0946
     12  CD2      -16.1500  -26.3790   36.4530 C.ar   31  TRP31       0.0152
     13  NE1      -16.3060  -27.3970   34.4120 N.ar   31  TRP31      -0.2442
     14  CE2      -15.9040  -27.6250   35.6900 C.ar   31  TRP31       0.0810
     15  CE3      -15.8250  -26.3420   37.8030 C.ar   31  TRP31       0.0012
     16  CZ2      -15.3370  -28.7590   36.2850 C.ar   31  TRP31       0.0191
     17  CZ3      -15.2310  -27.5000   38.3830 C.ar   31  TRP31       0.0001
     18  CH2      -15.0310  -28.6660   37.6520 C.ar   31  TRP31       0.0015
     19  N        -20.2480  -24.3010   36.3610 N.am   32  HIS32      -0.1961
     20  CA       -21.5460  -24.9520   36.5350 C.3    32  HIS32       0.1787
     21  C        -22.6550  -24.0010   36.8650 C.2    32  HIS32       0.2620
     22  O        -22.4310  -22.9130   37.3750 O.2    32  HIS32      -0.2715
     23  CB       -21.4630  -26.0350   37.6130 C.3    32  HIS32       0.0785
     24  CG       -20.4990  -27.1160   37.2740 C.ar   32  HIS32       0.0821
     25  ND1      -19.4730  -27.4320   38.0680 N.ar   32  HIS32      -0.2267
     26  CD2      -20.3600  -27.8760   36.1310 C.ar   32  HIS32       0.1154
     27  CE1      -18.7320  -28.3830   37.4710 C.ar   32  HIS32       0.1986
     28  NE2      -19.2730  -28.6360   36.2880 N.ar   32  HIS32      -0.2212
     29  N        -23.8580  -24.4420   36.5160 N.am   33  ASN33      -0.1972
     30  CA       -25.1180  -23.8400   36.8610 C.3    33  ASN33       0.1688
     31  C        -25.6170  -22.7780   35.9040 C.2    33  ASN33       0.2292
     32  O        -26.6650  -22.1920   36.1650 O.2    33  ASN33      -0.2864
     33  CB       -25.1140  -23.3290   38.3430 C.3    33  ASN33       0.1181
     34  CG       -24.6370  -24.4030   39.3110 C.2    33  ASN33       0.2629
     35  OD1      -25.0130  -25.5500   39.1610 O.2    33  ASN33      -0.2716
     36  ND2      -23.7890  -24.0510   40.2420 N.am   33  ASN33      -0.0877
     37  N        -16.2720  -15.1970   35.5400 N.3    59  ASP59      -0.1239
     38  CA       -15.3020  -15.9890   34.8050 C.3    59  ASP59       0.1674
     39  C        -16.0100  -17.0340   33.9740 C.2    59  ASP59       0.2266
     40  O        -16.7530  -17.8410   34.5050 O.2    59  ASP59      -0.2867
     41  CB       -14.3480  -16.6420   35.8040 C.3    59  ASP59       0.1410
     42  CG       -13.2590  -17.4830   35.1480 C.2    59  ASP59       0.3668
     43  OD1      -12.2610  -16.8990   34.6540 O.co2  59  ASP59      -0.2456
     44  OD2      -13.4210  -18.7290   35.0520 O.co2  59  ASP59      -0.2456
     45  N        -17.9790  -23.9090   28.7880 N.3    64  TYR64      -0.1241
     46  CA       -18.8750  -23.9880   29.9410 C.3    64  TYR64       0.1605
     47  C        -20.3380  -24.1350   29.5570 C.2    64  TYR64       0.2264
     48  O        -20.7900  -23.5100   28.6140 O.2    64  TYR64      -0.2867
     49  CB       -18.7110  -22.7850   30.8690 C.3    64  TYR64       0.0534
     50  CG       -17.3930  -22.6680   31.6170 C.ar   64  TYR64      -0.0201
     51  CD1      -16.4460  -23.6800   31.6140 C.ar   64  TYR64      -0.0009
     52  CD2      -17.1430  -21.5480   32.3760 C.ar   64  TYR64      -0.0009
     53  CE1      -15.2470  -23.5530   32.3300 C.ar   64  TYR64       0.0417
     54  CE2      -15.9630  -21.4190   33.1120 C.ar   64  TYR64       0.0417
     55  CZ       -15.0400  -22.4390   33.1230 C.ar   64  TYR64       0.1957
     56  OH       -13.8760  -22.2390   33.8070 O.3    64  TYR64      -0.2866
     57  N        -11.9280  -18.0840   27.8750 N.3    95  LYS95      -0.1245
     58  CA       -10.7220  -18.9020   27.6510 C.3    95  LYS95       0.1561
     59  C        -10.8530  -19.8120   26.4310 C.2    95  LYS95       0.2260
     60  O        -11.9720  -20.1210   26.0110 O.2    95  LYS95      -0.2867
     61  CB       -10.5040  -19.7760   28.8730 C.3    95  LYS95       0.0271
     62  CG       -10.8180  -19.1260   30.1860 C.3    95  LYS95       0.0035
     63  CD       -10.4700  -20.0720   31.2880 C.3    95  LYS95       0.0206
     64  CE       -10.7960  -19.5550   32.6840 C.3    95  LYS95       0.1093
     65  NZ       -12.2060  -19.7130   33.0310 N.3    95  LYS95      -0.1314
     66  N         -9.2860  -26.1910   26.0750 N.3    98  TYR98      -0.1241
     67  CA        -9.8550  -27.5450   26.1930 C.3    98  TYR98       0.1605
     68  C        -10.7240  -27.8530   24.9640 C.2    98  TYR98       0.2264
     69  O        -10.8320  -27.0140   24.0270 O.2    98  TYR98      -0.2867
     70  CB       -10.6270  -27.6880   27.4730 C.3    98  TYR98       0.0534
     71  CG        -9.7360  -27.7630   28.7400 C.ar   98  TYR98      -0.0201
     72  CD1       -9.2320  -28.9810   29.1750 C.ar   98  TYR98      -0.0009
     73  CD2       -9.3760  -26.6070   29.4370 C.ar   98  TYR98      -0.0009
     74  CE1       -8.4150  -29.0630   30.2960 C.ar   98  TYR98       0.0417
     75  CE2       -8.5190  -26.6630   30.5320 C.ar   98  TYR98       0.0417
     76  CZ        -8.0660  -27.9000   30.9730 C.ar   98  TYR98       0.1957
     77  OH        -7.2400  -28.0090   32.0870 O.3    98  TYR98      -0.2866
     78  N         -6.2290  -21.5740   28.2210 N.3   136  HIS136     -0.1241
     79  CA        -6.9560  -22.3200   29.2830 C.3   136  HIS136      0.1621
     80  C         -6.1210  -23.4130   29.8380 C.2   136  HIS136      0.2264
     81  O         -6.3880  -23.8600   30.9820 O.2   136  HIS136     -0.2867
     82  CB        -8.2230  -22.9290   28.6840 C.3   136  HIS136      0.0745
     83  CG        -9.3390  -23.1870   29.6350 C.ar  136  HIS136      0.0817
     84  ND1      -10.6030  -23.4590   29.1920 N.ar  136  HIS136     -0.2268
     85  CD2       -9.3860  -23.2480   31.0150 C.ar  136  HIS136      0.1154
     86  CE1      -11.4150  -23.6130   30.2540 C.ar  136  HIS136      0.1986
     87  NE2      -10.6690  -23.5170   31.3660 N.ar  136  HIS136     -0.2212
     88  N         -3.8670  -20.2640   32.4070 N.3   166  SER166     -0.1202
     89  CA        -4.4120  -21.0900   33.4180 C.3   166  SER166      0.2020
     90  C         -3.7240  -22.4730   33.4130 C.2   166  SER166      0.2619
     91  O         -3.4630  -23.0660   32.3560 O.2   166  SER166     -0.2717
     92  CB        -5.8860  -21.2430   33.1650 C.3   166  SER166      0.2103
     93  OG        -6.4690  -22.1030   34.1320 O.3   166  SER166     -0.2182
     94  N         -3.3520  -22.9230   34.6020 N.am  167  SER167     -0.1951
     95  CA        -2.7090  -24.2350   34.8060 C.3   167  SER167      0.1924
     96  C         -1.3450  -24.4070   34.1000 C.2   167  SER167      0.2314
     97  O         -1.0350  -25.4970   33.6820 O.2   167  SER167     -0.2863
     98  CB        -3.6760  -25.3730   34.4480 C.3   167  SER167      0.2116
     99  OG        -4.9040  -25.1760   35.1050 O.3   167  SER167     -0.2180
    100  N         -4.5050  -18.4580   36.5600 N.3   191  GLN191     -0.1196
    101  CA        -5.6140  -19.1190   37.2350 C.3   191  GLN191      0.1782
    102  C         -5.2640  -20.6320   37.4430 C.2   191  GLN191      0.2306
    103  O         -5.3830  -21.4400   36.5360 O.2   191  GLN191     -0.2863
    104  CB        -6.8560  -19.0170   36.3690 C.2   191  GLN191      0.0051
    105  CG        -8.1070  -19.6580   36.9450 C.2   191  GLN191      0.0584
    106  CD        -9.4020  -19.3630   36.1890 C.2   191  GLN191      0.2840
    107  OE1      -10.1230  -20.2930   35.9160 O.2   191  GLN191     -0.2667
    108  NE2       -9.7540  -18.0830   35.9490 N.am  191  GLN191     -0.0837
    109  N         -8.8740  -21.4250   41.4790 N.3   220  PHE220     -0.1227
    110  CA       -10.0700  -22.1230   41.0590 C.3   220  PHE220      0.1736
    111  C        -10.3160  -23.4250   41.7790 C.2   220  PHE220      0.2596
    112  O         -9.4080  -24.0090   42.3140 O.2   220  PHE220     -0.2718
    113  CB       -10.1500  -22.1960   39.5290 C.3   220  PHE220      0.0547
    114  CG        -9.4620  -23.3180   38.9020 C.ar  220  PHE220     -0.0202
    115  CD1       -9.9940  -24.5950   38.9270 C.ar  220  PHE220     -0.0042
    116  CD2       -8.3030  -23.0940   38.1010 C.ar  220  PHE220     -0.0042
    117  CE1       -9.3480  -25.6540   38.2710 C.ar  220  PHE220     -0.0003
    118  CE2       -7.6400  -24.1510   37.4160 C.ar  220  PHE220     -0.0003
    119  CZ        -8.1790  -25.4270   37.4980 C.ar  220  PHE220     -0.0000
    120  N        -11.5820  -23.8330   41.8220 N.am  221  THR221     -0.1939
    121  CA       -12.0820  -24.8850   42.7310 C.3   221  THR221      0.2013
    122  C        -11.5730  -24.6720   44.1850 C.2   221  THR221      0.2484
    123  O        -10.9750  -25.5800   44.7970 O.2   221  THR221     -0.2729
    124  CB       -11.6960  -26.3270   42.2620 C.3   221  THR221      0.1807
    125  OG1      -10.2810  -26.3740   42.0210 O.3   221  THR221     -0.2208
    126  CG2      -12.3230  -26.6920   40.9810 C.3   221  THR221      0.0379
    127  N        -11.7540  -23.4650   44.7070 N.am  222  PRO222     -0.2715
    128  CA       -11.2410  -23.1630   46.0480 C.3   222  PRO222      0.1536
    129  C        -11.9100  -23.9550   47.1640 C.2   222  PRO222      0.2598
    130  O        -11.4060  -23.9570   48.3040 O.2   222  PRO222     -0.2715
    131  CB       -11.5620  -21.6670   46.2010 C.3   222  PRO222      0.0310
    132  CG       -12.8130  -21.5120   45.3880 C.3   222  PRO222      0.0237
    133  CD       -12.5540  -22.3530   44.1740 C.3   222  PRO222      0.0939
    134  N        -13.0780  -24.5500   46.8860 N.am  223  LEU223     -0.1978
    135  CA       -13.7670  -25.4050   47.8610 C.3   223  LEU223      0.1596
    136  C        -13.6550  -26.8730   47.5010 C.2   223  LEU223      0.2287
    137  O        -14.4310  -27.6800   47.9830 O.2   223  LEU223     -0.2864
    138  CB       -15.2470  -25.0230   47.9560 C.3   223  LEU223      0.0297
    139  CG       -15.5390  -23.6130   48.3960 C.3   223  LEU223      0.0022
    140  CD1      -16.9970  -23.3190   48.1440 C.3   223  LEU223      0.0001
    141  CD2      -15.1360  -23.5000   49.8860 C.3   223  LEU223      0.0001
    142  N        -14.6220  -28.1930   44.9320 N.3   225  GLN225     -0.1231
    143  CA       -15.9430  -28.4700   44.3370 C.3   225  GLN225      0.1698
    144  C        -17.1360  -28.6500   45.3070 C.2   225  GLN225      0.2592
    145  O        -18.2390  -28.9420   44.8430 O.2   225  GLN225     -0.2718
    146  CB       -15.8670  -29.6700   43.3540 C.3   225  GLN225      0.0381
    147  CG       -14.8090  -29.5000   42.2740 C.3   225  GLN225      0.0905
    148  CD       -15.0570  -30.3460   41.0550 C.2   225  GLN225      0.2608
    149  OE1      -16.1910  -30.4250   40.5080 O.2   225  GLN225     -0.2717
    150  NE2      -13.9820  -31.0060   40.6070 N.am  225  GLN225     -0.0878
    151  N        -16.9330  -28.3690   46.6020 N.am  226  GLY226     -0.1957
    152  CA       -17.8760  -28.7120   47.6730 C.3   226  GLY226      0.1869
    153  C        -17.3780  -29.6600   48.7780 C.2   226  GLY226      0.2309
    154  O        -17.9450  -29.6840   49.8770 O.2   226  GLY226     -0.2863
    155  N        -16.8130  -28.1110   52.1280 N.3   229  THR229     -0.1218
    156  CA       -17.9830  -27.6460   52.8160 C.3   229  THR229      0.1862
    157  C        -18.3460  -28.8540   53.6780 C.2   229  THR229      0.2287
    158  O        -19.2800  -28.7620   54.4510 O.2   229  THR229     -0.2866
    159  CB       -19.1470  -27.2700   51.8530 C.3   229  THR229      0.1770
    160  OG1      -19.5670  -28.4090   51.1050 O.3   229  THR229     -0.2211
    161  CG2      -18.7690  -26.1320   50.9070 C.3   229  THR229      0.0375
    162  N        -16.6740  -23.9550   54.6520 N.3   248  ALA248     -0.1245
    163  CA       -16.5710  -23.2180   53.3710 C.3   248  ALA248      0.1562
    164  C        -15.8970  -21.8790   53.5890 C.2   248  ALA248      0.2260
    165  O        -14.8990  -21.5890   52.9210 O.2   248  ALA248     -0.2867
    166  CB       -17.9350  -22.9990   52.7010 C.3   248  ALA248      0.0290
    167  N        -12.1990  -18.0600   43.1880 N.3   265  LEU265     -0.1231
    168  CA       -13.1810  -18.1300   42.1430 C.3   265  LEU265      0.1693
    169  C        -14.1610  -19.1700   42.5810 C.2   265  LEU265      0.2592
    170  O        -13.9040  -20.3270   42.4190 O.2   265  LEU265     -0.2718
    171  CB       -12.4680  -18.4980   40.8260 C.3   265  LEU265      0.0284
    172  CG       -13.1270  -18.4100   39.4640 C.3   265  LEU265      0.0019
    173  CD1      -13.7880  -17.0860   39.2770 C.3   265  LEU265      0.0001
    174  CD2      -12.0480  -18.6300   38.3790 C.3   265  LEU265      0.0001
    175  N        -15.2640  -18.7470   43.1830 N.am  266  ILE266     -0.1966
    176  CA       -16.2590  -19.6490   43.6920 C.3   266  ILE266      0.1727
    177  C        -17.3290  -19.9290   42.6030 C.2   266  ILE266      0.2617
    178  O        -17.5460  -19.1090   41.6890 O.2   266  ILE266     -0.2715
    179  CB       -16.9620  -19.0810   44.9700 C.3   266  ILE266      0.0290
    180  CG1      -17.5790  -17.6900   44.7040 C.3   266  ILE266      0.0022
    181  CG2      -15.9980  -18.9990   46.1660 C.3   266  ILE266      0.0023
    182  CD1      -18.4790  -17.1740   45.7700 C.3   266  ILE266      0.0001
    183  N        -17.9870  -21.0830   42.7300 N.am  267  GLY267     -0.1940
    184  CA       -19.2070  -21.3700   42.0150 C.3   267  GLY267      0.2014
    185  C        -20.3610  -21.2280   42.9750 C.2   267  GLY267      0.2639
    186  O        -20.1660  -21.1710   44.1700 O.2   267  GLY267     -0.2714
    187  N        -21.5740  -21.1800   42.4470 N.am  268  ALA268     -0.1963
    188  CA       -22.7620  -21.1030   43.2680 C.3   268  ALA268      0.1728
    189  C        -23.9020  -21.6850   42.4770 C.2   268  ALA268      0.2617
    190  O        -23.9450  -21.5370   41.2460 O.2   268  ALA268     -0.2715
    191  CB       -23.0540  -19.6770   43.6430 C.3   268  ALA268      0.0334
    192  N        -24.8000  -22.3810   43.1660 N.am  269  SER269     -0.1936
    193  CA       -26.0220  -22.8930   42.5720 C.3   269  SER269      0.2055
    194  C        -27.2310  -22.1510   43.0790 C.2   269  SER269      0.2642
    195  O        -28.3260  -22.3190   42.5580 O.2   269  SER269     -0.2714
    196  CB       -26.1870  -24.3910   42.8520 C.3   269  SER269      0.2130
    197  OG       -26.2190  -24.6140   44.2370 O.3   269  SER269     -0.2179
    198  N        -27.0390  -21.3080   44.0800 N.am  270  ARG270     -0.1977
    199  CA       -28.1080  -20.4160   44.5270 C.3   270  ARG270      0.1597
    200  C        -27.5470  -19.1800   45.2450 C.2   270  ARG270      0.2287
    201  O        -26.4240  -19.1990   45.7380 O.2   270  ARG270     -0.2864
    202  CB       -29.1000  -21.1780   45.4050 C.3   270  ARG270      0.0334
    203  CG       -28.4830  -21.8660   46.5980 C.3   270  ARG270      0.0492
    204  CD       -29.5250  -22.6300   47.4190 C.3   270  ARG270      0.2205
    205  NE       -28.9180  -22.9140   48.7090 N.pl3 270  ARG270     -0.0865
    206  CZ       -28.0340  -23.8870   48.9210 C.cat 270  ARG270      0.5346
    207  NH1      -27.7140  -24.7220   47.9430 N.pl3 270  ARG270      0.1354
    208  NH2      -27.4710  -24.0450   50.1240 N.pl3 270  ARG270      0.1354
    209  N        -25.6830  -19.1120   48.8300 N.3   273  GLN273     -0.1245
    210  CA       -24.3040  -19.5680   48.9180 C.3   273  GLN273      0.1566
    211  C        -23.3410  -18.4350   48.7440 C.2   273  GLN273      0.2260
    212  O        -22.3110  -18.4000   49.4300 O.2   273  GLN273     -0.2867
    213  CB       -23.9930  -20.6490   47.8940 C.3   273  GLN273      0.0367
    214  CG       -24.7170  -21.9600   48.1390 C.3   273  GLN273      0.0905
    215  CD       -24.4460  -22.9600   47.0380 C.2   273  GLN273      0.2608
    216  OE1      -24.0530  -22.5920   45.9360 O.2   273  GLN273     -0.2717
    217  NE2      -24.6010  -24.2300   47.3420 N.am  273  GLN273     -0.0878
    218  N        -23.3100  -16.5080   52.2010 N.3   276  GLU276     -0.1231
    219  CA       -22.4490  -17.1680   53.0990 C.3   276  GLU276      0.1699
    220  C        -20.9560  -17.0100   52.7610 C.2   276  GLU276      0.2592
    221  O        -20.1510  -16.6970   53.6650 O.2   276  GLU276     -0.2718
    222  CB       -22.7820  -18.6470   53.2230 C.3   276  GLU276      0.0402
    223  CG       -21.8020  -19.3470   54.1970 C.3   276  GLU276      0.1161
    224  CD       -21.9800  -20.8490   54.2930 C.2   276  GLU276      0.3649
    225  OE1      -22.9910  -21.3500   53.7610 O.co2 276  GLU276     -0.2457
    226  OE2      -21.0900  -21.5290   54.8650 O.co2 276  GLU276     -0.2457
    227  N        -20.5620  -17.2450   51.4930 N.am  277  ASN277     -0.1974
    228  CA       -19.1570  -17.2450   51.1500 C.3   277  ASN277      0.1688
    229  C        -18.4420  -15.9090   51.3320 C.2   277  ASN277      0.2292
    230  O        -17.2870  -15.9010   51.7700 O.2   277  ASN277     -0.2864
    231  CB       -18.9380  -17.7860   49.7620 C.3   277  ASN277      0.1181
    232  CG       -19.2370  -19.2630   49.6930 C.2   277  ASN277      0.2629
    233  OD1      -19.4960  -19.8910   50.7240 O.2   277  ASN277     -0.2716
    234  ND2      -19.2670  -19.8080   48.5080 N.am  277  ASN277     -0.0877
@<TRIPOS>BOND
     1    69    68    2
     2    68    67    1
     3    60    59    2
     4    66    67    1
     5    67    70    1
     6    59    58    1
     7    70    71    1
     8    58    57    1
     9    58    61    1
    10    78    79    1
    11    48    47    2
    12    82    79    1
    13    82    83    1
    14    71    72   ar
    15    71    73   ar
    16    45    46    1
    17    61    62    1
    18    72    74   ar
    19    84    83   ar
    20    84    86   ar
    21    79    80    1
    22    73    75   ar
    23    47    46    1
    24    83    85   ar
    25    80    81    2
    26    46    49    1
    27    62    63    1
    28    86    87   ar
    29    74    76   ar
    30    75    76   ar
    31    49    50    1
    32    76    77    1
    33    85    87   ar
    34    63    64    1
    35    51    50   ar
    36    51    53   ar
    37    50    52   ar
    38    53    55   ar
    39    91    90    2
    40    52    54   ar
    41    88    89    1
    42    64    65    1
    43    54    55   ar
    44    55    56    1
    45    92    89    1
    46    92    93    1
    47    90    89    1
    48    90    94   am
    49    97    96    2
    50    39    40    2
    51    39    38    1
    52    96    95    1
    53    11    13   ar
    54    11    10   ar
    55     8     7    2
    56    13    14   ar
    57    98    95    1
    58    98    99    1
    59    94    95    1
    60    43    42   ar
    61    38    37    1
    62    38    41    1
    63    44    42   ar
    64     6     7    1
    65     6     5    1
    66     6     9    1
    67    42    41    1
    68     7    19   am
    69    10     9    1
    70    10    12   ar
    71    14    16   ar
    72    14    12   ar
    73    31    32    2
    74    31    30    1
    75   107   106    2
    76   108   106   am
    77    26    28   ar
    78    26    24   ar
    79   106   105    1
    80    16    18   ar
    81    28    27   ar
    82    19    20    1
    83   104   105    2
    84   104   101    1
    85    12    15   ar
    86    29    30    1
    87    29    21   am
    88    20    21    1
    89    20    23    1
    90   103   102    2
    91   100   101    1
    92    30    33    1
    93    21    22    2
    94   101   102    1
    95    24    23    1
    96    24    25   ar
    97   118   119   ar
    98   118   116   ar
    99     3     2    1
   100     3     4    2
   101    27    25   ar
   102   119   117   ar
   103    18    17   ar
   104    15    17   ar
   105     2     1    1
   106   116   114   ar
   107   117   115   ar
   108    33    34    1
   109   174   172    1
   110   114   115   ar
   111   114   113    1
   112    35    34    2
   113   173   172    1
   114    34    36   am
   115   172   171    1
   116   113   110    1
   117   149   148    2
   118   150   148   am
   119   171   168    1
   120   126   124    1
   121   148   147    1
   122   110   109    1
   123   110   111    1
   124   190   189    2
   125   178   177    2
   126   111   120   am
   127   111   112    2
   128   120   121    1
   129   184   183    1
   130   184   185    1
   131   125   124    1
   132   168   169    1
   133   168   167    1
   134   124   121    1
   135   147   146    1
   136   170   169    2
   137   187   185   am
   138   187   188    1
   139   189   192   am
   140   189   188    1
   141   195   194    2
   142   193   196    1
   143   193   194    1
   144   193   192    1
   145   169   175   am
   146   177   183   am
   147   177   176    1
   148   121   122    1
   149   196   197    1
   150   185   186    2
   151   194   198   am
   152   175   176    1
   153   188   191    1
   154   146   143    1
   155   176   179    1
   156   198   199    1
   157   133   127    1
   158   133   132    1
   159   122   127   am
   160   122   123    2
   161   143   142    1
   162   143   144    1
   163   199   200    1
   164   199   202    1
   165   180   179    1
   166   180   182    1
   167   127   128    1
   168   145   144    2
   169   179   181    1
   170   200   201    2
   171   144   151   am
   172   132   131    1
   173   202   203    1
   174   216   215    2
   175   128   131    1
   176   128   129    1
   177   203   204    1
   178   151   152    1
   179   134   129   am
   180   134   135    1
   181   215   217   am
   182   215   214    1
   183   129   130    2
   184   204   205    1
   185   136   135    1
   186   136   137    2
   187   152   153    1
   188   135   138    1
   189   213   214    1
   190   213   210    1
   191   207   206    1
   192   138   139    1
   193   140   139    1
   194   139   141    1
   195   234   232   am
   196   205   206    2
   197   211   210    1
   198   211   212    2
   199   153   154    2
   200   209   210    1
   201   206   208    1
   202   232   231    1
   203   232   233    2
   204   231   228    1
   205   161   159    1
   206   160   159    1
   207   228   229    1
   208   228   227    1
   209   229   230    2
   210   227   220   am
   211   159   156    1
   212   155   156    1
   213   218   219    1
   214   166   163    1
   215   220   219    1
   216   220   221    2
   217   156   157    1
   218   165   164    2
   219   219   222    1
   220   222   223    1
   221   163   164    1
   222   163   162    1
   223   157   158    2
   224   225   224   ar
   225   223   224    1
   226   224   226   ar
