@<TRIPOS>MOLECULE
tmp/4aueA03.pdb
 88 87 0 0 0
SMALL
GASTEIGER

@<TRIPOS>ATOM
      1  N         29.6240   74.7270   38.2750 N.3   276  ALA276     -0.1231
      2  CA        28.9850   75.8270   38.9930 C.3   276  ALA276      0.1694
      3  C         29.5890   77.1980   38.7110 C.2   276  ALA276      0.2592
      4  O         29.0710   78.2090   39.2120 O.2   276  ALA276     -0.2718
      5  CB        28.9800   75.5460   40.5000 C.3   276  ALA276      0.0304
      6  N         30.6750   77.2480   37.9320 N.am  277  PHE277     -0.1962
      7  CA        31.3420   78.5390   37.6510 C.3   277  PHE277      0.1771
      8  C         31.1770   79.0200   36.2100 C.2   277  PHE277      0.2620
      9  O         31.8560   79.9310   35.7800 O.2   277  PHE277     -0.2715
     10  CB        32.8250   78.5000   38.0320 C.3   277  PHE277      0.0574
     11  CG        33.0890   78.0460   39.4430 C.ar  277  PHE277     -0.0200
     12  CD1       32.8140   78.8920   40.5380 C.ar  277  PHE277     -0.0042
     13  CD2       33.6400   76.7760   39.6890 C.ar  277  PHE277     -0.0042
     14  CE1       33.0630   78.4750   41.8450 C.ar  277  PHE277     -0.0003
     15  CE2       33.8970   76.3570   40.9980 C.ar  277  PHE277     -0.0003
     16  CZ        33.6070   77.2050   42.0710 C.ar  277  PHE277     -0.0000
     17  N         30.2660   78.4090   35.4660 N.am  278  GLY278     -0.1954
     18  CA        30.0260   78.8140   34.0800 C.3   278  GLY278      0.1869
     19  C         30.9890   78.2080   33.0680 C.2   278  GLY278      0.2309
     20  O         31.1040   78.6980   31.9450 O.2   278  GLY278     -0.2863
     21  N         35.9810   83.4570   43.1400 N.3   292  TYR292     -0.1241
     22  CA        35.0290   82.3940   43.4360 C.3   292  TYR292      0.1605
     23  C         35.5940   81.2500   44.2880 C.2   292  TYR292      0.2264
     24  O         34.8360   80.4100   44.7770 O.2   292  TYR292     -0.2867
     25  CB        34.4760   81.7900   42.1440 C.3   292  TYR292      0.0534
     26  CG        33.9430   82.7560   41.1150 C.ar  292  TYR292     -0.0201
     27  CD1       33.4730   84.0340   41.4750 C.ar  292  TYR292     -0.0009
     28  CD2       33.8570   82.3710   39.7720 C.ar  292  TYR292     -0.0009
     29  CE1       32.9680   84.9050   40.5190 C.ar  292  TYR292      0.0417
     30  CE2       33.3490   83.2310   38.8120 C.ar  292  TYR292      0.0417
     31  CZ        32.9110   84.4930   39.1880 C.ar  292  TYR292      0.1957
     32  OH        32.4190   85.3350   38.2230 O.3   292  TYR292     -0.2866
     33  N         35.5100   83.7090   26.1860 N.3   434  SER434     -0.1217
     34  CA        35.2500   84.4950   27.4020 C.3   434  SER434      0.1889
     35  C         36.4800   84.7000   28.2690 C.2   434  SER434      0.2288
     36  O         36.8170   85.8410   28.6580 O.2   434  SER434     -0.2866
     37  CB        34.1620   83.8280   28.2270 C.3   434  SER434      0.2089
     38  OG        33.0600   83.5530   27.3890 O.3   434  SER434     -0.2183
     39  N         38.3910   87.9150   29.7840 N.3   438  LEU438     -0.1245
     40  CA        38.5900   88.0860   31.2250 C.3   438  LEU438      0.1561
     41  C         40.0430   88.4020   31.5660 C.2   438  LEU438      0.2260
     42  O         40.3360   89.3880   32.2870 O.2   438  LEU438     -0.2867
     43  CB        38.1460   86.8240   31.9610 C.3   438  LEU438      0.0270
     44  CG        38.3880   86.7240   33.4700 C.3   438  LEU438      0.0019
     45  CD1       37.9130   87.9760   34.2140 C.3   438  LEU438      0.0001
     46  CD2       37.7200   85.4610   34.0030 C.3   438  LEU438      0.0001
     47  N         30.8250   86.9670   23.1280 N.3   501  TYR501     -0.1227
     48  CA        31.6110   86.6790   24.3330 C.3   501  TYR501      0.1736
     49  C         32.2070   87.8910   25.0050 C.2   501  TYR501      0.2595
     50  O         32.7950   87.7650   26.0850 O.2   501  TYR501     -0.2718
     51  CB        32.6540   85.5550   24.0980 C.3   501  TYR501      0.0548
     52  CG        32.0160   84.2790   23.5500 C.ar  501  TYR501     -0.0200
     53  CD1       31.3950   83.3560   24.4090 C.ar  501  TYR501     -0.0009
     54  CD2       31.9870   84.0190   22.1660 C.ar  501  TYR501     -0.0009
     55  CE1       30.7780   82.2040   23.9080 C.ar  501  TYR501      0.0417
     56  CE2       31.3860   82.8670   21.6570 C.ar  501  TYR501      0.0417
     57  CZ        30.7780   81.9660   22.5300 C.ar  501  TYR501      0.1957
     58  OH        30.1620   80.8260   22.0580 O.3   501  TYR501     -0.2866
     59  N         32.0280   89.0740   24.4110 N.am  502  TYR502     -0.1962
     60  CA        32.4850   90.3160   25.0710 C.3   502  TYR502      0.1771
     61  C         31.8550   90.4910   26.4750 C.2   502  TYR502      0.2619
     62  O         30.7150   90.0630   26.7090 O.2   502  TYR502     -0.2715
     63  CB        32.1990   91.5670   24.2380 C.3   502  TYR502      0.0574
     64  CG        32.7340   91.5950   22.8260 C.ar  502  TYR502     -0.0198
     65  CD1       33.7790   90.7840   22.4240 C.ar  502  TYR502     -0.0009
     66  CD2       32.2070   92.4810   21.8960 C.ar  502  TYR502     -0.0009
     67  CE1       34.2460   90.8220   21.1230 C.ar  502  TYR502      0.0417
     68  CE2       32.6710   92.5260   20.5930 C.ar  502  TYR502      0.0417
     69  CZ        33.6920   91.6960   20.2120 C.ar  502  TYR502      0.1957
     70  OH        34.1580   91.7360   18.9110 O.3   502  TYR502     -0.2866
     71  N         32.6060   91.1060   27.3940 N.am  503  HIS503     -0.1973
     72  CA        32.1520   91.3930   28.7560 C.3   503  HIS503      0.1656
     73  C         33.2330   92.1990   29.4210 C.2   503  HIS503      0.2291
     74  O         34.3120   92.3570   28.8410 O.2   503  HIS503     -0.2864
     75  CB        31.8750   90.1070   29.5230 C.3   503  HIS503      0.0771
     76  CG        33.1090   89.2810   29.7950 C.ar  503  HIS503      0.0820
     77  ND1       33.9260   89.5250   30.8440 N.ar  503  HIS503     -0.2267
     78  CD2       33.6730   88.2070   29.0960 C.ar  503  HIS503      0.1154
     79  CE1       34.9490   88.6430   30.8260 C.ar  503  HIS503      0.1986
     80  NE2       34.7890   87.8350   29.7600 N.ar  503  HIS503     -0.2212
     81  N         34.1360   91.7670   32.9200 N.3   505  ASN505     -0.1240
     82  CA        34.6050   91.0880   34.1290 C.3   505  ASN505      0.1653
     83  C         36.1470   91.1340   34.2250 C.2   505  ASN505      0.2266
     84  O         36.8610   90.9590   33.2190 O.2   505  ASN505     -0.2867
     85  CB        34.0760   89.6220   34.1880 C.3   505  ASN505      0.1155
     86  CG        32.6060   89.5060   34.6590 C.2   505  ASN505      0.2627
     87  OD1       32.0030   90.4750   35.0800 O.2   505  ASN505     -0.2716
     88  ND2       32.0420   88.3020   34.5940 N.am  505  ASN505     -0.0877
@<TRIPOS>BOND
     1    70    69    1
     2    69    68   ar
     3    69    67   ar
     4    68    66   ar
     5    67    65   ar
     6    56    54   ar
     7    56    57   ar
     8    66    64   ar
     9    58    57    1
    10    54    52   ar
    11    65    64   ar
    12    57    55   ar
    13    64    63    1
    14    47    48    1
    15    52    51    1
    16    52    53   ar
    17    55    53   ar
    18    51    48    1
    19    63    60    1
    20    48    49    1
    21    59    49   am
    22    59    60    1
    23    49    50    2
    24    60    61    1
    25    33    34    1
    26    61    62    2
    27    61    71   am
    28    38    37    1
    29    71    72    1
    30    34    37    1
    31    34    35    1
    32    35    36    2
    33    72    73    1
    34    72    75    1
    35    74    73    2
    36    78    80   ar
    37    78    76   ar
    38    75    76    1
    39    80    79   ar
    40    39    40    1
    41    76    77   ar
    42    79    77   ar
    43    40    41    1
    44    40    43    1
    45    41    42    2
    46    20    19    2
    47    43    44    1
    48    81    82    1
    49    19    18    1
    50    84    83    2
    51    44    46    1
    52    44    45    1
    53    18    17    1
    54    82    85    1
    55    82    83    1
    56    85    86    1
    57    88    86   am
    58    86    87    2
    59    17     8   am
    60     9     8    2
    61     8     7    1
    62     7     6    1
    63     7    10    1
    64     6     3   am
    65    10    11    1
    66    32    31    1
    67     1     2    1
    68     3     2    1
    69     3     4    2
    70    30    31   ar
    71    30    28   ar
    72     2     5    1
    73    31    29   ar
    74    11    13   ar
    75    11    12   ar
    76    13    15   ar
    77    28    26   ar
    78    29    27   ar
    79    12    14   ar
    80    15    16   ar
    81    26    27   ar
    82    26    25    1
    83    14    16   ar
    84    25    22    1
    85    21    22    1
    86    22    23    1
    87    23    24    2
