@<TRIPOS>MOLECULE
tmp/4aueA01.pdb
 88 86 0 0 0
SMALL
GASTEIGER

@<TRIPOS>ATOM
      1  N         52.7900   73.4160   56.3150 N.3    69  TYR69      -0.1227
      2  CA        52.3480   74.3730   57.3350 C.3    69  TYR69       0.1736
      3  C         51.4090   73.7880   58.4170 C.2    69  TYR69       0.2595
      4  O         51.1420   74.4500   59.4280 O.2    69  TYR69      -0.2718
      5  CB        51.7050   75.5970   56.6800 C.3    69  TYR69       0.0548
      6  CG        52.6830   76.5460   56.0430 C.ar   69  TYR69      -0.0200
      7  CD1       53.9800   76.6860   56.5460 C.ar   69  TYR69      -0.0009
      8  CD2       52.3110   77.3150   54.9430 C.ar   69  TYR69      -0.0009
      9  CE1       54.8890   77.5760   55.9780 C.ar   69  TYR69       0.0417
     10  CE2       53.2100   78.2040   54.3590 C.ar   69  TYR69       0.0417
     11  CZ        54.4930   78.3370   54.8860 C.ar   69  TYR69       0.1957
     12  OH        55.3890   79.2190   54.3220 O.3    69  TYR69      -0.2866
     13  N         50.9560   72.5480   58.2270 N.am   70  ALA70      -0.1966
     14  CA        49.9100   71.9740   59.0650 C.3    70  ALA70       0.1728
     15  C         49.7010   70.4900   58.8400 C.2    70  ALA70       0.2616
     16  O         50.3530   69.8760   58.0070 O.2    70  ALA70      -0.2715
     17  CB        48.6000   72.6960   58.7990 C.3    70  ALA70       0.0334
     18  N         48.7820   69.9180   59.6020 N.am   71  ASP71      -0.1957
     19  CA        48.3070   68.5710   59.3730 C.3    71  ASP71       0.1840
     20  C         47.0280   68.6860   58.5470 C.2    71  ASP71       0.2622
     21  O         45.9650   69.0630   59.0670 O.2    71  ASP71      -0.2715
     22  CB        48.0500   67.8430   60.6970 C.3    71  ASP71       0.1450
     23  CG        47.3060   66.5110   60.5090 C.2    71  ASP71       0.3671
     24  OD1       46.8900   66.1980   59.3700 O.co2  71  ASP71      -0.2456
     25  OD2       47.1300   65.7710   61.5060 O.co2  71  ASP71      -0.2456
     26  N         47.1190   68.3340   57.2680 N.am   72  TRP72      -0.1974
     27  CA        46.0120   68.5490   56.3360 C.3    72  TRP72       0.1640
     28  C         45.1610   67.3360   56.1330 C.2    72  TRP72       0.2290
     29  O         44.5650   67.1520   55.0690 O.2    72  TRP72      -0.2864
     30  CB        46.5470   69.0630   55.0060 C.3    72  TRP72       0.0576
     31  CG        47.2370   70.3980   55.1100 C.ar   72  TRP72       0.0006
     32  CD1       48.5890   70.6470   55.1440 C.ar   72  TRP72       0.0946
     33  CD2       46.6040   71.7290   55.1960 C.ar   72  TRP72       0.0152
     34  NE1       48.8370   71.9980   55.2410 N.ar   72  TRP72      -0.2442
     35  CE2       47.6950   72.6980   55.2660 C.ar   72  TRP72       0.0810
     36  CE3       45.2800   72.1930   55.1910 C.ar   72  TRP72       0.0012
     37  CZ2       47.4670   74.0590   55.3730 C.ar   72  TRP72       0.0191
     38  CZ3       45.0570   73.5680   55.2950 C.ar   72  TRP72       0.0001
     39  CH2       46.1340   74.4810   55.3930 C.ar   72  TRP72       0.0015
     40  N         42.3660   66.7820   57.2640 N.3    74  ASN74      -0.1225
     41  CA        40.9770   67.2110   57.0040 C.3    74  ASN74       0.1785
     42  C         40.6410   67.3220   55.5230 C.2    74  ASN74       0.2597
     43  O         39.4740   67.1720   55.1540 O.2    74  ASN74      -0.2718
     44  CB        40.5800   68.4900   57.7720 C.3    74  ASN74       0.1169
     45  CG        41.5940   69.6230   57.6350 C.2    74  ASN74       0.2627
     46  OD1       42.7690   69.4090   57.3090 O.2    74  ASN74      -0.2716
     47  ND2       41.1270   70.8460   57.9020 N.am   74  ASN74      -0.0877
     48  N         41.6580   67.5510   54.6760 N.am   75  ILE75      -0.1980
     49  CA        41.4380   67.6220   53.2110 C.3    75  ILE75       0.1595
     50  C         42.0490   66.5080   52.3360 C.2    75  ILE75       0.2287
     51  O         41.5420   66.2580   51.2190 O.2    75  ILE75      -0.2864
     52  CB        41.7690   68.9990   52.6320 C.3    75  ILE75       0.0276
     53  CG1       43.1930   69.4210   53.0070 C.3    75  ILE75       0.0022
     54  CG2       40.7100   69.9990   53.0860 C.3    75  ILE75       0.0022
     55  CD1       43.6710   70.6770   52.2960 C.3    75  ILE75       0.0001
     56  N         37.5770   66.1010   47.3540 N.3   215  LYS215     -0.1245
     57  CA        37.3440   67.4480   46.8530 C.3   215  LYS215      0.1561
     58  C         38.0850   67.6460   45.4940 C.2   215  LYS215      0.2260
     59  O         39.0440   66.9310   45.2020 O.2   215  LYS215     -0.2867
     60  CB        37.8690   68.4490   47.8710 C.3   215  LYS215      0.0271
     61  CG        37.3410   68.2730   49.2800 C.3   215  LYS215      0.0035
     62  CD        36.2070   69.2530   49.5340 C.3   215  LYS215      0.0206
     63  CE        35.5800   69.0650   50.9010 C.3   215  LYS215      0.1093
     64  NZ        34.2100   69.6340   50.8610 N.3   215  LYS215     -0.1314
     65  N         40.2530   74.7680   46.6830 N.3   268  ILE268     -0.1245
     66  CA        39.4900   73.5620   47.0080 C.3   268  ILE268      0.1561
     67  C         38.0130   73.8160   46.7740 C.2   268  ILE268      0.2260
     68  O         37.4630   74.8140   47.2260 O.2   268  ILE268     -0.2867
     69  CB        39.7060   73.1010   48.4590 C.3   268  ILE268      0.0252
     70  CG1       41.1820   73.1680   48.8270 C.3   268  ILE268      0.0019
     71  CG2       39.1970   71.6870   48.6340 C.3   268  ILE268      0.0019
     72  CD1       41.4180   73.2500   50.3140 C.3   268  ILE268      0.0001
     73  N         44.3360   78.4160   49.4470 N.3   296  THR296     -0.1203
     74  CA        44.8470   78.0010   50.7530 C.3   296  THR296      0.1994
     75  C         46.3560   77.6720   50.6750 C.2   296  THR296      0.2617
     76  O         46.7670   76.7850   49.9070 O.2   296  THR296     -0.2717
     77  CB        44.1390   76.7290   51.2670 C.3   296  THR296      0.1784
     78  OG1       42.7090   76.8680   51.1820 O.3   296  THR296     -0.2211
     79  CG2       44.6070   76.3880   52.6930 C.3   296  THR296      0.0376
     80  N         47.1490   78.3770   51.4800 N.am  297  LYS297     -0.1979
     81  CA        48.5850   78.1120   51.5990 C.3   297  LYS297      0.1596
     82  C         48.8070   76.8160   52.3840 C.2   297  LYS297      0.2287
     83  O         48.4600   76.7090   53.5840 O.2   297  LYS297     -0.2864
     84  CB        49.3260   79.2760   52.2830 C.3   297  LYS297      0.0298
     85  CG        49.2760   80.5930   51.5350 C.3   297  LYS297      0.0038
     86  CD        50.0700   81.6710   52.2520 C.3   297  LYS297      0.0206
     87  CE        49.7330   81.6810   53.7340 C.3   297  LYS297      0.1093
     88  NZ        50.7460   82.4110   54.5510 N.3   297  LYS297     -0.1314
@<TRIPOS>BOND
     1    59    58    2
     2    58    57    1
     3    65    66    1
     4    67    66    1
     5    67    68    2
     6    57    56    1
     7    57    60    1
     8    66    69    1
     9    60    61    1
    10    69    71    1
    11    69    70    1
    12    70    72    1
    13    61    62    1
    14    73    74    1
    15    62    63    1
    16    76    75    2
    17    75    74    1
    18    75    80   am
    19    74    77    1
    20    64    63    1
    21    78    77    1
    22    51    50    2
    23    77    79    1
    24    80    81    1
    25    85    86    1
    26    85    84    1
    27    81    84    1
    28    81    82    1
    29    86    87    1
    30    55    53    1
    31    50    49    1
    32    82    83    2
    33    52    53    1
    34    52    54    1
    35    52    49    1
    36    49    48    1
    37    87    88    1
    38    12    11    1
    39    10    11   ar
    40    10     8   ar
    41    48    42   am
    42    11     9   ar
    43     8     6   ar
    44    30    31    1
    45    30    27    1
    46    29    28    2
    47    31    32   ar
    48    31    33   ar
    49    32    34   ar
    50    43    42    2
    51    36    33   ar
    52    36    38   ar
    53    33    35   ar
    54    34    35   ar
    55    35    37   ar
    56    38    39   ar
    57    37    39   ar
    58    42    41    1
    59     9     7   ar
    60     6     7   ar
    61     6     5    1
    62    28    27    1
    63     1     2    1
    64    27    26    1
    65     5     2    1
    66    41    40    1
    67    41    44    1
    68    26    20   am
    69    46    45    2
    70     2     3    1
    71    45    44    1
    72    45    47   am
    73    16    15    2
    74    13     3   am
    75    13    14    1
    76     3     4    2
    77    20    21    2
    78    20    19    1
    79    17    14    1
    80    15    14    1
    81    15    18   am
    82    24    23   ar
    83    19    18    1
    84    19    22    1
    85    23    22    1
    86    23    25   ar
