@<TRIPOS>MOLECULE
tmp/4auiC00.pdb
 142 129 0 0 0
SMALL
GASTEIGER

@<TRIPOS>ATOM
      1  N         18.0740   -6.8520   22.7860 N.3     5  TYR5       -0.1241
      2  CA        18.1240   -8.2770   22.7380 C.3     5  TYR5        0.1605
      3  C         19.4040   -8.7030   23.4490 C.2     5  TYR5        0.2264
      4  O         20.1410   -7.8850   23.9880 O.2     5  TYR5       -0.2867
      5  CB        18.1500   -8.7060   21.2740 C.3     5  TYR5        0.0534
      6  CG        19.5250   -8.5580   20.6850 C.ar    5  TYR5       -0.0201
      7  CD1       20.0900   -7.3080   20.5200 C.ar    5  TYR5       -0.0009
      8  CD2       20.2920   -9.6800   20.3370 C.ar    5  TYR5       -0.0009
      9  CE1       21.3790   -7.1730   19.9970 C.ar    5  TYR5        0.0417
     10  CE2       21.5780   -9.5500   19.8180 C.ar    5  TYR5        0.0417
     11  CZ        22.1140   -8.2920   19.6600 C.ar    5  TYR5        0.1957
     12  OH        23.3800   -8.1360   19.1640 O.3     5  TYR5       -0.2866
     13  N         21.4100  -12.4320   25.4960 N.3     7  THR7       -0.1218
     14  CA        21.1700  -13.6410   26.2680 C.3     7  THR7        0.1862
     15  C         22.0150  -13.6510   27.5520 C.2     7  THR7        0.2287
     16  O         23.1430  -13.1380   27.5790 O.2     7  THR7       -0.2866
     17  CB        21.4080  -14.9300   25.4320 C.3     7  THR7        0.1770
     18  OG1       20.9860  -16.0800   26.1850 O.3     7  THR7       -0.2211
     19  CG2       22.8810  -15.0720   25.0360 C.3     7  THR7        0.0375
     20  N         23.4260  -16.4000   30.4730 N.3     9  LYS9       -0.1245
     21  CA        23.6470  -17.7990   30.7850 C.3     9  LYS9        0.1561
     22  C         24.8300  -17.8060   31.7170 C.2     9  LYS9        0.2260
     23  O         25.8340  -17.1180   31.4480 O.2     9  LYS9       -0.2867
     24  CB        23.9770  -18.5980   29.5230 C.3     9  LYS9        0.0271
     25  CG        24.2810  -17.7010   28.3070 C.3     9  LYS9        0.0035
     26  CD        25.0520  -18.4140   27.2310 C.3     9  LYS9        0.0206
     27  CE        25.5000  -17.4490   26.1910 C.3     9  LYS9        0.1093
     28  NZ        26.4090  -18.1240   25.2230 N.3     9  LYS9       -0.1314
     29  N         29.4770  -17.0340   28.2890 N.3    38  GLY38      -0.1225
     30  CA        29.3370  -16.2330   27.0850 C.3    38  GLY38       0.1811
     31  C         28.2300  -15.1800   27.0720 C.2    38  GLY38       0.2280
     32  O         27.6610  -14.8670   26.0120 O.2    38  GLY38      -0.2866
     33  N         25.7950  -11.9170   27.1200 N.3    40  LYS40      -0.1245
     34  CA        25.9460  -10.6320   26.4020 C.3    40  LYS40       0.1561
     35  C         24.6660   -9.9260   25.9660 C.2    40  LYS40       0.2260
     36  O         23.5650  -10.4900   25.9440 O.2    40  LYS40      -0.2867
     37  CB        26.8700  -10.7590   25.1970 C.3    40  LYS40       0.0271
     38  CG        26.4650  -11.9640   24.4200 C.3    40  LYS40       0.0035
     39  CD        26.7720  -11.8070   22.9610 C.3    40  LYS40       0.0206
     40  CE        26.8630  -13.1620   22.3190 C.3    40  LYS40       0.1093
     41  NZ        27.1450  -13.1480   20.9080 N.3    40  LYS40      -0.1314
     42  N         23.8420   -2.4820   14.2930 N.3    58  GLN58      -0.1245
     43  CA        23.8120   -3.2050   15.5360 C.3    58  GLN58       0.1566
     44  C         24.9490   -2.8030   16.4240 C.2    58  GLN58       0.2260
     45  O         26.0390   -2.4470   15.9630 O.2    58  GLN58      -0.2867
     46  CB        23.9660   -4.6620   15.2380 C.3    58  GLN58       0.0367
     47  CG        23.8960   -5.5410   16.4790 C.3    58  GLN58       0.0905
     48  CD        24.1420   -7.0240   16.1620 C.2    58  GLN58       0.2608
     49  OE1       23.9420   -7.4600   15.2120 O.2    58  GLN58      -0.2717
     50  NE2       24.5500   -7.6720   16.9590 N.am   58  GLN58      -0.0878
     51  N         26.4530   -4.6440   19.8820 N.3    60  GLU60      -0.1245
     52  CA        26.3710   -5.7320   20.8390 C.3    60  GLU60       0.1567
     53  C         27.6820   -5.7540   21.6180 C.2    60  GLU60       0.2260
     54  O         28.7350   -5.5010   21.0350 O.2    60  GLU60      -0.2867
     55  CB        26.1160   -7.0690   20.1330 C.3    60  GLU60       0.0388
     56  CG        25.8330   -8.2220   21.0970 C.3    60  GLU60       0.1160
     57  CD        25.9470   -9.5860   20.4690 C.2    60  GLU60       0.3649
     58  OE1       26.8640   -9.8140   19.6660 O.co2  60  GLU60      -0.2457
     59  OE2       25.1230  -10.4540   20.7880 O.co2  60  GLU60      -0.2457
     60  N         29.8670   -7.5140   25.4040 N.3    62  LYS62      -0.1245
     61  CA        29.9230   -8.5800   26.3920 C.3    62  LYS62       0.1561
     62  C         29.3120   -8.0530   27.6820 C.2    62  LYS62       0.2260
     63  O         29.8210   -7.0930   28.2940 O.2    62  LYS62      -0.2867
     64  CB        31.3760   -8.9730   26.7030 C.3    62  LYS62       0.0271
     65  CG        32.1640   -9.6780   25.6170 C.3    62  LYS62       0.0035
     66  CD        33.5910   -9.9130   26.1090 C.3    62  LYS62       0.0206
     67  CE        34.5240  -10.3190   24.9510 C.3    62  LYS62       0.1093
     68  NZ        34.8230  -11.7950   25.0090 N.3    62  LYS62      -0.1314
     69  N         31.3950   -7.1690   20.9820 N.3    75  ARG75      -0.1231
     70  CA        30.5900   -8.1890   20.3410 C.3    75  ARG75       0.1694
     71  C         30.5800   -7.9370   18.8460 C.2    75  ARG75       0.2591
     72  O         31.3760   -7.1320   18.3310 O.2    75  ARG75      -0.2718
     73  CB        29.1530   -8.1060   20.8470 C.3    75  ARG75       0.0321
     74  CG        28.8760   -9.2140   21.7240 C.3    75  ARG75       0.0489
     75  CD        30.0610  -10.1180   21.4260 C.3    75  ARG75       0.2205
     76  NE        30.0830  -11.3070   22.2050 N.pl3  75  ARG75      -0.0865
     77  CZ        29.9030  -12.5160   21.6570 C.cat  75  ARG75       0.5346
     78  NH1       29.6830  -12.6820   20.3210 N.pl3  75  ARG75       0.1354
     79  NH2       29.9540  -13.6080   22.4410 N.pl3  75  ARG75       0.1354
     80  N         29.6940   -8.6180   18.1250 N.am   76  GLN76      -0.1979
     81  CA        29.5380   -8.2360   16.7340 C.3    76  GLN76       0.1601
     82  C         28.6420   -7.0050   16.6370 C.2    76  GLN76       0.2287
     83  O         27.4300   -7.0820   16.8680 O.2    76  GLN76      -0.2864
     84  CB        28.9570   -9.3790   15.8920 C.3    76  GLN76       0.0394
     85  CG        28.5170   -8.9110   14.5020 C.3    76  GLN76       0.0908
     86  CD        28.2290  -10.0390   13.5420 C.2    76  GLN76       0.2608
     87  OE1       29.1500  -10.6690   13.0090 O.2    76  GLN76      -0.2717
     88  NE2       26.9460  -10.2940   13.3000 N.am   76  GLN76      -0.0878
     89  N         32.0820  -10.6940   12.4340 N.3    94  ASN94      -0.1240
     90  CA        32.5100  -12.0680   12.5720 C.3    94  ASN94       0.1653
     91  C         33.2680  -12.6720   11.3740 C.2    94  ASN94       0.2266
     92  O         32.8590  -12.5590   10.2240 O.2    94  ASN94      -0.2867
     93  CB        31.3090  -12.9310   12.9460 C.3    94  ASN94       0.1155
     94  CG        30.8470  -12.6970   14.3510 C.2    94  ASN94       0.2627
     95  OD1       31.1320  -11.6620   14.9260 O.2    94  ASN94      -0.2716
     96  ND2       30.1380  -13.6650   14.9210 N.am   94  ASN94      -0.0877
     97  N         34.0950  -18.0000   11.6380 N.3    98  LYS98      -0.1231
     98  CA        33.2880  -17.8320   12.8480 C.3    98  LYS98       0.1693
     99  C         31.7930  -18.0930   12.6420 C.2    98  LYS98       0.2592
    100  O         31.1010  -18.6220   13.5170 O.2    98  LYS98      -0.2718
    101  CB        33.4980  -16.4460   13.4660 C.3    98  LYS98       0.0285
    102  CG        32.6230  -16.2300   14.7090 C.3    98  LYS98       0.0035
    103  CD        32.9890  -14.9830   15.4990 C.3    98  LYS98       0.0206
    104  CE        32.4560  -15.0440   16.9200 C.3    98  LYS98       0.1093
    105  NZ        33.0740  -16.1500   17.6840 N.3    98  LYS98      -0.1314
    106  N         31.2840  -17.7160   11.4830 N.am   99  ASP99      -0.1974
    107  CA        29.8610  -17.9170   11.1890 C.3    99  ASP99       0.1709
    108  C         29.5280  -19.2760   10.5420 C.2    99  ASP99       0.2293
    109  O         28.3590  -19.5340   10.2530 O.2    99  ASP99      -0.2864
    110  CB        29.2830  -16.7350   10.3610 C.3    99  ASP99       0.1436
    111  CG        28.9080  -15.5080   11.2270 C.2    99  ASP99       0.3671
    112  OD1       29.3780  -15.4080   12.3750 O.co2  99  ASP99      -0.2456
    113  OD2       28.1490  -14.6300   10.7610 O.co2  99  ASP99      -0.2456
    114  N         27.7650  -23.9410   25.1850 N.3   107  GLU107     -0.1245
    115  CA        27.8230  -22.7900   26.0790 C.3   107  GLU107      0.1567
    116  C         28.9710  -23.1060   27.0050 C.2   107  GLU107      0.2260
    117  O         29.1000  -24.2450   27.4420 O.2   107  GLU107     -0.2867
    118  CB        26.5310  -22.6530   26.8760 C.3   107  GLU107      0.0388
    119  CG        25.2670  -22.9510   26.0880 C.3   107  GLU107      0.1160
    120  CD        24.6140  -21.7070   25.5110 C.2   107  GLU107      0.3649
    121  OE1       25.3320  -20.8870   24.9040 O.co2 107  GLU107     -0.2457
    122  OE2       23.3800  -21.5480   25.6550 O.co2 107  GLU107     -0.2457
    123  N         36.3660  -11.9260   15.5050 N.3   124  ARG124     -0.1245
    124  CA        35.6650  -10.7090   15.1390 C.3   124  ARG124      0.1563
    125  C         36.7640   -9.6990   14.9110 C.2   124  ARG124      0.2260
    126  O         37.6370   -9.5430   15.7420 O.2   124  ARG124     -0.2867
    127  CB        34.7120  -10.2450   16.2460 C.3   124  ARG124      0.0307
    128  CG        33.4560  -11.1000   16.3770 C.3   124  ARG124      0.0489
    129  CD        32.5290  -10.6140   17.4650 C.3   124  ARG124      0.2205
    130  NE        32.5290  -11.5300   18.6000 N.pl3 124  ARG124     -0.0865
    131  CZ        33.4920  -11.5710   19.5220 C.cat 124  ARG124      0.5346
    132  NH1       34.5370  -10.7500   19.4460 N.pl3 124  ARG124      0.1354
    133  NH2       33.4140  -12.4340   20.5280 N.pl3 124  ARG124      0.1354
    134  N         17.4960  -16.4590   26.9190 N.3   307  LYS307     -0.1245
    135  CA        17.6530  -15.5870   25.7840 C.3   307  LYS307      0.1561
    136  C         16.5540  -14.5300   25.8060 C.2   307  LYS307      0.2260
    137  O         15.4220  -14.8280   26.2030 O.2   307  LYS307     -0.2867
    138  CB        17.5510  -16.4140   24.5020 C.3   307  LYS307      0.0271
    139  CG        18.7230  -17.3210   24.2120 C.3   307  LYS307      0.0035
    140  CD        18.4340  -18.1550   22.9880 C.3   307  LYS307      0.0206
    141  CE        19.6700  -18.9360   22.5540 C.3   307  LYS307      0.1093
    142  NZ        20.6520  -18.0050   21.8730 N.3   307  LYS307     -0.1314
@<TRIPOS>BOND
     1    92    91    2
     2   109   108    2
     3   110   107    1
     4   110   111    1
     5   108   107    1
     6   113   111   ar
     7   107   106    1
     8   111   112   ar
     9    91    90    1
    10   106    99   am
    11    97    98    1
    12    89    90    1
    13    90    93    1
    14    99    98    1
    15    99   100    2
    16    98   101    1
    17    93    94    1
    18    87    86    2
    19    88    86   am
    20   101   102    1
    21    86    85    1
    22    42    43    1
    23    94    96   am
    24    94    95    2
    25    85    84    1
    26   102   103    1
    27   125   124    1
    28   125   126    2
    29   124   123    1
    30   124   127    1
    31    49    48    2
    32    46    43    1
    33    46    47    1
    34   103   104    1
    35    43    44    1
    36    84    81    1
    37    45    44    2
    38    48    47    1
    39    48    50   am
    40   127   128    1
    41   128   129    1
    42    82    81    1
    43    82    83    2
    44    81    80    1
    45   104   105    1
    46   129   130    1
    47    80    71   am
    48    72    71    2
    49   130   131    2
    50    71    70    1
    51    12    11    1
    52   132   131    1
    53   131   133    1
    54    11    10   ar
    55    11     9   ar
    56    58    57   ar
    57    10     8   ar
    58    51    52    1
    59     9     7   ar
    60    55    52    1
    61    55    56    1
    62    78    77    1
    63     8     6   ar
    64    70    73    1
    65    70    69    1
    66    57    59   ar
    67    57    56    1
    68     7     6   ar
    69     6     5    1
    70    52    53    1
    71    73    74    1
    72    41    40    1
    73    54    53    2
    74     5     2    1
    75    75    74    1
    76    75    76    1
    77    77    76    2
    78    77    79    1
    79   142   141    1
    80    40    39    1
    81   141   140    1
    82     2     1    1
    83     2     3    1
    84    39    38    1
    85   140   139    1
    86     3     4    2
    87   139   138    1
    88    38    37    1
    89   138   135    1
    90   121   120   ar
    91    67    68    1
    92    67    66    1
    93    19    17    1
    94   114   115    1
    95    37    34    1
    96    28    27    1
    97    60    61    1
    98    17    18    1
    99    17    14    1
   100    13    14    1
   101   120   122   ar
   102   120   119    1
   103    65    66    1
   104    65    64    1
   105   135   136    1
   106   135   134    1
   107   136   137    2
   108    36    35    2
   109    35    34    1
   110    32    31    2
   111   115   118    1
   112   115   116    1
   113   119   118    1
   114    27    26    1
   115    14    15    1
   116    61    64    1
   117    61    62    1
   118    34    33    1
   119   116   117    2
   120    31    30    1
   121    30    29    1
   122    26    25    1
   123    15    16    2
   124    62    63    2
   125    25    24    1
   126    24    21    1
   127    20    21    1
   128    21    22    1
   129    23    22    2
