@<TRIPOS>MOLECULE
tmp/4aukA04.pdb
 94 88 0 0 0
SMALL
GASTEIGER

@<TRIPOS>ATOM
      1  N         22.8550  -38.8400   -0.8440 N.3    23  LYS23      -0.1245
      2  CA        21.7730  -38.8170   -1.8310 C.3    23  LYS23       0.1561
      3  C         22.2960  -38.8130   -3.2860 C.2    23  LYS23       0.2260
      4  O         21.6740  -39.3320   -4.1920 O.2    23  LYS23      -0.2867
      5  CB        20.8330  -37.6160   -1.5350 C.3    23  LYS23       0.0271
      6  CG        20.0540  -37.8880   -0.2330 C.3    23  LYS23       0.0035
      7  CD        19.1890  -36.6920    0.2510 C.3    23  LYS23       0.0206
      8  CE        18.5350  -37.0680    1.6230 C.3    23  LYS23       0.1093
      9  NZ        17.7100  -35.9390    2.2390 N.3    23  LYS23      -0.1314
     10  N         23.3360  -42.4530   -3.8380 N.3    26  GLN26      -0.1231
     11  CA        22.1860  -43.3030   -4.0310 C.3    26  GLN26       0.1698
     12  C         21.8030  -43.3030   -5.4970 C.2    26  GLN26       0.2592
     13  O         21.1920  -44.2570   -5.9540 O.2    26  GLN26      -0.2718
     14  CB        20.9890  -42.8520   -3.1950 C.3    26  GLN26       0.0381
     15  CG        21.0760  -43.2140   -1.7320 C.3    26  GLN26       0.0905
     16  CD        19.9180  -42.6290   -0.9230 C.2    26  GLN26       0.2608
     17  OE1       18.7880  -42.5160   -1.4170 O.2    26  GLN26      -0.2717
     18  NE2       20.2010  -42.2270    0.3100 N.am   26  GLN26      -0.0878
     19  N         22.1500  -42.2380   -6.2320 N.am   27  ARG27      -0.1980
     20  CA        21.8600  -42.1970   -7.6700 C.3    27  ARG27       0.1597
     21  C         23.0960  -42.5520   -8.4800 C.2    27  ARG27       0.2287
     22  O         23.1550  -42.2920   -9.6800 O.2    27  ARG27      -0.2864
     23  CB        21.3630  -40.7880   -8.0680 C.3    27  ARG27       0.0334
     24  CG        20.1190  -40.3540   -7.3150 C.3    27  ARG27       0.0492
     25  CD        19.4970  -39.0350   -7.8650 C.3    27  ARG27       0.2205
     26  NE        18.1580  -38.9220   -7.3000 N.pl3  27  ARG27      -0.0865
     27  CZ        17.0330  -39.2090   -7.9530 C.cat  27  ARG27       0.5346
     28  NH1       17.0690  -39.5830   -9.2200 N.pl3  27  ARG27       0.1354
     29  NH2       15.8740  -39.1200   -7.3200 N.pl3  27  ARG27       0.1354
     30  N         18.9430  -35.1330   -9.3040 N.3    59  LEU59      -0.1231
     31  CA        18.5640  -35.1950   -7.9000 C.3    59  LEU59       0.1678
     32  C         17.6150  -34.0380   -7.6180 C.2    59  LEU59       0.2434
     33  O         17.9570  -32.9020   -7.8630 O.2    59  LEU59      -0.2733
     34  CB        19.8210  -35.0650   -7.0070 C.3    59  LEU59       0.0284
     35  CG        19.7030  -35.3700   -5.5050 C.3    59  LEU59       0.0019
     36  CD1       21.0830  -35.5060   -4.8360 C.3    59  LEU59       0.0001
     37  CD2       18.9130  -34.3380   -4.7700 C.3    59  LEU59       0.0001
     38  N         16.4180  -34.3300   -7.0900 N.am   60  PRO60      -0.2729
     39  CA        15.4960  -33.2060   -6.8300 C.3    60  PRO60       0.1401
     40  C         16.0170  -32.3510   -5.6900 C.2    60  PRO60       0.2269
     41  O         16.2630  -32.8630   -4.5920 O.2    60  PRO60      -0.2865
     42  CB        14.1850  -33.8890   -6.3940 C.3    60  PRO60       0.0296
     43  CG        14.3090  -35.3210   -6.8220 C.3    60  PRO60       0.0237
     44  CD        15.7980  -35.6450   -6.8600 C.3    60  PRO60       0.0939
     45  N         14.3950  -30.3350   -3.9370 N.3    62  SER62      -0.1202
     46  CA        13.4400  -30.3940   -2.8180 C.3    62  SER62       0.2020
     47  C         13.7530  -31.5110   -1.8190 C.2    62  SER62       0.2619
     48  O         13.2750  -31.4740   -0.6840 O.2    62  SER62      -0.2717
     49  CB        12.0020  -30.5970   -3.3540 C.3    62  SER62       0.2103
     50  OG        11.9260  -31.8320   -4.0380 O.3    62  SER62      -0.2182
     51  N         14.5420  -32.5030   -2.2200 N.am   63  SER63      -0.1951
     52  CA        14.8330  -33.6160   -1.2990 C.3    63  SER63       0.1924
     53  C         16.0450  -33.3670   -0.3870 C.2    63  SER63       0.2314
     54  O         16.4280  -34.2380    0.3790 O.2    63  SER63      -0.2863
     55  CB        15.0290  -34.9280   -2.0890 C.3    63  SER63       0.2116
     56  OG        16.2570  -34.8930   -2.8270 O.3    63  SER63      -0.2180
     57  N         17.6620  -31.4810    2.6940 N.3    65  ILE65      -0.1245
     58  CA        17.2450  -30.8450    3.9230 C.3    65  ILE65       0.1561
     59  C         18.1770  -29.7300    4.3170 C.2    65  ILE65       0.2260
     60  O         17.7370  -28.6340    4.6960 O.2    65  ILE65      -0.2867
     61  CB        17.2230  -31.8970    5.0740 C.3    65  ILE65       0.0252
     62  CG1       16.2730  -33.0530    4.7010 C.3    65  ILE65       0.0019
     63  CG2       16.8370  -31.2260    6.4190 C.3    65  ILE65       0.0019
     64  CD1       16.3040  -34.1890    5.7220 C.3    65  ILE65       0.0001
     65  N         11.9210  -38.8390    9.7210 N.3   318  LEU318     -0.1245
     66  CA        11.2170  -38.8680    8.4630 C.3   318  LEU318      0.1561
     67  C         10.9050  -40.2790    7.9740 C.2   318  LEU318      0.2260
     68  O          9.8340  -40.5190    7.4040 O.2   318  LEU318     -0.2867
     69  CB        11.9520  -38.0780    7.3500 C.3   318  LEU318      0.0270
     70  CG        12.1090  -36.5740    7.6480 C.3   318  LEU318      0.0019
     71  CD1       12.8780  -35.8180    6.5380 C.3   318  LEU318      0.0001
     72  CD2       10.7510  -35.9240    7.8890 C.3   318  LEU318      0.0001
     73  N          6.6830  -35.9190    1.1050 N.3   334  ILE334     -0.1231
     74  CA         7.3300  -35.3750    2.2860 C.3   334  ILE334      0.1692
     75  C          8.5100  -34.5460    1.8010 C.2   334  ILE334      0.2592
     76  O          9.2620  -35.0040    0.9520 O.2   334  ILE334     -0.2718
     77  CB         7.9510  -36.4720    3.1570 C.3   334  ILE334      0.0266
     78  CG1        6.8740  -37.4130    3.7160 C.3   334  ILE334      0.0019
     79  CG2        8.7360  -35.8490    4.3180 C.3   334  ILE334      0.0020
     80  CD1        7.4420  -38.5960    4.5100 C.3   334  ILE334      0.0001
     81  N          8.6560  -33.3320    2.3110 N.am  335  GLN335     -0.1966
     82  CA         9.8720  -32.5650    2.0300 C.3   335  GLN335      0.1733
     83  C         10.2630  -31.8610    3.3250 C.2   335  GLN335      0.2616
     84  O          9.4090  -31.6510    4.2010 O.2   335  GLN335     -0.2715
     85  CB         9.6730  -31.6040    0.8480 C.3   335  GLN335      0.0408
     86  CG         8.6790  -30.5100    1.0830 C.3   335  GLN335      0.0908
     87  CD         8.3690  -29.6790   -0.1680 C.2   335  GLN335      0.2608
     88  OE1        9.2530  -29.3630   -0.9550 O.2   335  GLN335     -0.2717
     89  NE2        7.1100  -29.2780   -0.3150 N.am  335  GLN335     -0.0878
     90  N         11.5330  -31.4920    3.4580 N.am  336  ALA336     -0.1977
     91  CA        12.0040  -30.9370    4.7180 C.3   336  ALA336      0.1597
     92  C         13.1950  -30.0160    4.4420 C.2   336  ALA336      0.2287
     93  O         13.9000  -30.2080    3.4650 O.2   336  ALA336     -0.2864
     94  CB        12.4040  -32.0510    5.6690 C.3   336  ALA336      0.0319
@<TRIPOS>BOND
     1    22    21    2
     2    30    31    1
     3    28    27    1
     4    21    20    1
     5    23    20    1
     6    23    24    1
     7    27    29    1
     8    27    26    2
     9    31    32    1
    10    31    34    1
    11    25    24    1
    12    25    26    1
    13    33    32    2
    14    20    19    1
    15    32    38   am
    16    38    44    1
    17    38    39    1
    18    34    35    1
    19    44    43    1
    20    39    42    1
    21    39    40    1
    22    43    42    1
    23    19    12   am
    24    13    12    2
    25    40    41    2
    26    35    36    1
    27    35    37    1
    28    12    11    1
    29     4     3    2
    30    50    49    1
    31    11    10    1
    32    11    14    1
    33    45    46    1
    34    49    46    1
    35     3     2    1
    36    14    15    1
    37    56    55    1
    38    46    47    1
    39    51    47   am
    40    51    52    1
    41    55    52    1
    42     2     5    1
    43     2     1    1
    44    47    48    2
    45    15    16    1
    46     5     6    1
    47    17    16    2
    48    52    53    1
    49    88    87    2
    50    16    18   am
    51    53    54    2
    52    89    87   am
    53     6     7    1
    54    87    86    1
    55     7     8    1
    56    85    86    1
    57    85    82    1
    58    76    75    2
    59    73    74    1
    60     8     9    1
    61    75    74    1
    62    75    81   am
    63    82    81    1
    64    82    83    1
    65    74    77    1
    66    57    58    1
    67    77    78    1
    68    77    79    1
    69    83    90   am
    70    83    84    2
    71    90    91    1
    72    93    92    2
    73    78    80    1
    74    58    59    1
    75    58    61    1
    76    59    60    2
    77    92    91    1
    78    62    61    1
    79    62    64    1
    80    91    94    1
    81    61    63    1
    82    71    70    1
    83    69    70    1
    84    69    66    1
    85    68    67    2
    86    70    72    1
    87    67    66    1
    88    66    65    1
