@<TRIPOS>MOLECULE
tmp/4auxA00.pdb
 177 168 0 0 0
SMALL
GASTEIGER

@<TRIPOS>ATOM
      1  N         19.0450   28.3540   28.5180 N.3    59  LEU59      -0.1245
      2  CA        18.6370   28.4700   29.9270 C.3    59  LEU59       0.1561
      3  C         17.2270   27.9750   30.1860 C.2    59  LEU59       0.2260
      4  O         16.9850   27.2950   31.1890 O.2    59  LEU59      -0.2867
      5  CB        18.7940   29.8900   30.4460 C.3    59  LEU59       0.0270
      6  CG        20.2320   30.4160   30.4850 C.3    59  LEU59       0.0019
      7  CD1       20.2480   31.7030   31.2890 C.3    59  LEU59       0.0001
      8  CD2       21.2260   29.4400   31.0970 C.3    59  LEU59       0.0001
      9  N         18.3170   25.0920   32.4820 N.3    63  HIS63      -0.1241
     10  CA        18.6540   25.7420   33.7560 C.3    63  HIS63       0.1621
     11  C         17.4440   25.6300   34.6300 C.2    63  HIS63       0.2264
     12  O         16.5040   26.4010   34.4860 O.2    63  HIS63      -0.2867
     13  CB        19.0740   27.1770   33.4990 C.3    63  HIS63       0.0745
     14  CG        19.4410   27.9650   34.7360 C.ar   63  HIS63       0.0817
     15  ND1       19.9960   27.4160   35.8220 N.ar   63  HIS63      -0.2268
     16  CD2       19.3230   29.3090   35.0010 C.ar   63  HIS63       0.1154
     17  CE1       20.2070   28.3610   36.7310 C.ar   63  HIS63       0.1986
     18  NE2       19.7940   29.5180   36.2260 N.ar   63  HIS63      -0.2212
     19  N         16.4480   27.9800   38.7730 N.3    66  SER66      -0.1217
     20  CA        16.4440   29.4470   38.6670 C.3    66  SER66       0.1889
     21  C         15.7060   30.1210   39.8510 C.2    66  SER66       0.2288
     22  O         15.9150   31.2950   40.1110 O.2    66  SER66      -0.2866
     23  CB        15.8940   29.9030   37.2940 C.3    66  SER66       0.2089
     24  OG        14.8640   29.0500   36.8440 O.3    66  SER66      -0.2183
     25  N         20.5800   28.6840   47.9800 N.3    77  PHE77      -0.1227
     26  CA        20.0450   29.0570   46.6690 C.3    77  PHE77       0.1736
     27  C         21.1650   29.4360   45.6980 C.2    77  PHE77       0.2595
     28  O         21.1950   28.9860   44.5370 O.2    77  PHE77      -0.2718
     29  CB        19.0730   30.2410   46.7630 C.3    77  PHE77       0.0547
     30  CG        18.6770   30.7540   45.4130 C.ar   77  PHE77      -0.0202
     31  CD1       17.9270   29.9430   44.5540 C.ar   77  PHE77      -0.0042
     32  CD2       19.1270   31.9800   44.9520 C.ar   77  PHE77      -0.0042
     33  CE1       17.6080   30.3830   43.2770 C.ar   77  PHE77      -0.0003
     34  CE2       18.7920   32.4260   43.6840 C.ar   77  PHE77      -0.0003
     35  CZ        18.0450   31.6250   42.8440 C.ar   77  PHE77      -0.0000
     36  N         22.0870   30.2550   46.1820 N.am   78  LEU78      -0.1980
     37  CA        23.2070   30.6890   45.3560 C.3    78  LEU78       0.1596
     38  C         24.0610   29.5300   44.8840 C.2    78  LEU78       0.2287
     39  O         24.5580   29.5430   43.7420 O.2    78  LEU78      -0.2864
     40  CB        24.0630   31.7080   46.1040 C.3    78  LEU78       0.0297
     41  CG        23.9200   33.1850   45.7240 C.3    78  LEU78       0.0022
     42  CD1       22.5220   33.5570   45.2680 C.3    78  LEU78       0.0001
     43  CD2       24.4150   34.0730   46.8370 C.3    78  LEU78       0.0001
     44  N         21.9350   27.3730   42.3500 N.3    81  ASN81      -0.1225
     45  CA        21.7160   28.1730   41.1750 C.3    81  ASN81       0.1785
     46  C         23.0040   28.2630   40.3670 C.2    81  ASN81       0.2597
     47  O         22.9830   28.1510   39.1330 O.2    81  ASN81      -0.2718
     48  CB        21.2370   29.5720   41.5860 C.3    81  ASN81       0.1169
     49  CG        21.0450   30.5060   40.4020 C.2    81  ASN81       0.2627
     50  OD1       21.8730   31.3830   40.1420 O.2    81  ASN81      -0.2716
     51  ND2       19.9650   30.3180   39.6770 N.am   81  ASN81      -0.0877
     52  N         24.1340   28.4560   41.0500 N.am   82  ALA82      -0.1979
     53  CA        25.4230   28.4430   40.3510 C.3    82  ALA82       0.1597
     54  C         25.6570   27.0860   39.6870 C.2    82  ALA82       0.2287
     55  O         26.0340   27.0180   38.5200 O.2    82  ALA82      -0.2864
     56  CB        26.5530   28.7800   41.2920 C.3    82  ALA82       0.0319
     57  N         23.3340   26.8750   36.6070 N.3    85  PHE85      -0.1241
     58  CA        23.8420   27.7310   35.5600 C.3    85  PHE85       0.1605
     59  C         25.0220   27.0840   34.8520 C.2    85  PHE85       0.2264
     60  O         25.0840   27.0650   33.6040 O.2    85  PHE85      -0.2867
     61  CB        24.2220   29.1050   36.1480 C.3    85  PHE85       0.0534
     62  CG        24.5520   30.1530   35.1380 C.ar   85  PHE85      -0.0203
     63  CD1       23.7950   30.3160   33.9950 C.ar   85  PHE85      -0.0042
     64  CD2       25.5780   31.0440   35.3800 C.ar   85  PHE85      -0.0042
     65  CE1       24.0880   31.3130   33.0810 C.ar   85  PHE85      -0.0003
     66  CE2       25.8700   32.0600   34.4800 C.ar   85  PHE85      -0.0003
     67  CZ        25.1230   32.1900   33.3270 C.ar   85  PHE85      -0.0000
     68  N         26.2090   32.8970   25.7340 N.3    99  HIS99      -0.1241
     69  CA        25.6280   33.7130   26.7830 C.3    99  HIS99       0.1621
     70  C         26.2140   35.0870   26.8500 C.2    99  HIS99       0.2264
     71  O         25.4860   36.0580   27.0670 O.2    99  HIS99      -0.2867
     72  CB        25.8360   33.0810   28.1430 C.3    99  HIS99       0.0745
     73  CG        25.0020   33.6990   29.2340 C.ar   99  HIS99       0.0817
     74  ND1       23.7080   33.4370   29.3730 N.ar   99  HIS99      -0.2268
     75  CD2       25.3230   34.5840   30.2400 C.ar   99  HIS99       0.1154
     76  CE1       23.2100   34.1170   30.4210 C.ar   99  HIS99       0.1986
     77  NE2       24.1890   34.8230   30.9430 N.ar   99  HIS99      -0.2212
     78  N         24.9100   39.0410   26.8390 N.3   102  THR102     -0.1203
     79  CA        23.4580   39.1510   26.8540 C.3   102  THR102      0.1994
     80  C         22.9930   39.7900   28.1830 C.2   102  THR102      0.2618
     81  O         23.7390   39.8290   29.1720 O.2   102  THR102     -0.2717
     82  CB        22.7380   37.7990   26.6370 C.3   102  THR102      0.1784
     83  OG1       22.9410   36.9400   27.7620 O.3   102  THR102     -0.2211
     84  CG2       23.2030   37.1050   25.3430 C.3   102  THR102      0.0376
     85  N         21.7710   40.3160   28.1640 N.am  103  ARG103     -0.1965
     86  CA        21.1040   40.8000   29.3580 C.3   103  ARG103      0.1714
     87  C         19.8060   40.0330   29.4380 C.2   103  ARG103      0.2458
     88  O         19.4100   39.4390   28.4500 O.2   103  ARG103     -0.2730
     89  CB        20.8440   42.2880   29.2510 C.3   103  ARG103      0.0347
     90  CG        22.1060   43.1300   29.3910 C.3   103  ARG103      0.0492
     91  CD        22.5520   43.2160   30.8410 C.3   103  ARG103      0.2205
     92  NE        23.8170   43.9290   31.0330 N.pl3 103  ARG103     -0.0865
     93  CZ        23.9810   45.2560   30.9900 C.cat 103  ARG103      0.5346
     94  NH1       22.9700   46.0860   30.7190 N.pl3 103  ARG103      0.1354
     95  NH2       25.1880   45.7590   31.2100 N.pl3 103  ARG103      0.1354
     96  N         19.1520   40.0200   30.6150 N.am  104  PRO104     -0.2727
     97  CA        17.8730   39.2990   30.7280 C.3   104  PRO104      0.1402
     98  C         16.8730   39.6510   29.6200 C.2   104  PRO104      0.2269
     99  O         16.6720   40.8080   29.2880 O.2   104  PRO104     -0.2865
    100  CB        17.3540   39.7200   32.1120 C.3   104  PRO104      0.0296
    101  CG        18.6190   39.8900   32.9030 C.3   104  PRO104      0.0237
    102  CD        19.6130   40.5030   31.9350 C.3   104  PRO104      0.0939
    103  N         12.6100   36.3760   30.6850 N.3   108  GLN108     -0.1245
    104  CA        13.2770   36.1210   31.9460 C.3   108  GLN108      0.1566
    105  C         13.0390   37.2000   33.0050 C.2   108  GLN108      0.2260
    106  O         13.4900   37.0490   34.1310 O.2   108  GLN108     -0.2867
    107  CB        14.7700   36.0090   31.7070 C.3   108  GLN108      0.0367
    108  CG        15.1870   34.8210   30.8390 C.3   108  GLN108      0.0905
    109  CD        16.6440   34.9000   30.4100 C.2   108  GLN108      0.2608
    110  OE1       17.1780   35.9900   30.2030 O.2   108  GLN108     -0.2717
    111  NE2       17.2920   33.7440   30.2790 N.am  108  GLN108     -0.0878
    112  N         11.4620   35.9910   36.5990 N.3   111  THR111     -0.1203
    113  CA        12.4480   35.1210   37.2470 C.3   111  THR111      0.1994
    114  C         13.6140   35.9100   37.9040 C.2   111  THR111      0.2617
    115  O         13.9290   35.7180   39.0930 O.2   111  THR111     -0.2717
    116  CB        13.0230   34.1120   36.2090 C.3   111  THR111      0.1784
    117  OG1       11.9410   33.4510   35.5360 O.3   111  THR111     -0.2211
    118  CG2       13.8710   33.0980   36.8650 C.3   111  THR111      0.0376
    119  N         14.2480   36.7840   37.1250 N.am  112  VAL112     -0.1979
    120  CA        15.3650   37.5630   37.6270 C.3   112  VAL112      0.1595
    121  C         14.9490   38.5850   38.7080 C.2   112  VAL112      0.2287
    122  O         15.7130   38.8620   39.6300 O.2   112  VAL112     -0.2864
    123  CB        16.0660   38.3350   36.4950 C.3   112  VAL112      0.0276
    124  CG1       17.2190   39.1670   37.0750 C.3   112  VAL112      0.0022
    125  CG2       16.5630   37.3760   35.4220 C.3   112  VAL112      0.0022
    126  N         14.6240   36.7470   41.9760 N.3   115  GLN115     -0.1231
    127  CA        15.9430   36.5360   42.5800 C.3   115  GLN115      0.1698
    128  C         16.4310   37.7650   43.3330 C.2   115  GLN115      0.2592
    129  O         17.0370   37.6470   44.3970 O.2   115  GLN115     -0.2718
    130  CB        16.9750   36.1300   41.5440 C.3   115  GLN115      0.0381
    131  CG        16.6410   34.7940   40.8900 C.3   115  GLN115      0.0905
    132  CD        17.6290   34.4460   39.7900 C.2   115  GLN115      0.2608
    133  OE1       18.4630   35.2720   39.4180 O.2   115  GLN115     -0.2717
    134  NE2       17.5590   33.1980   39.2850 N.am  115  GLN115     -0.0878
    135  N         16.1790   38.9410   42.7760 N.am  116  LEU116     -0.1980
    136  CA        16.5960   40.1840   43.4450 C.3   116  LEU116      0.1596
    137  C         15.7640   40.4590   44.6960 C.2   116  LEU116      0.2287
    138  O         16.3000   40.8720   45.7320 O.2   116  LEU116     -0.2864
    139  CB        16.4850   41.3570   42.4900 C.3   116  LEU116      0.0297
    140  CG        17.3970   41.3010   41.2670 C.3   116  LEU116      0.0022
    141  CD1       16.8510   42.2470   40.2100 C.3   116  LEU116      0.0001
    142  CD2       18.8360   41.6320   41.6660 C.3   116  LEU116      0.0001
    143  N         22.5640   42.4020   44.2610 N.3   130  LEU130     -0.1245
    144  CA        23.0560   42.4790   42.8670 C.3   130  LEU130      0.1561
    145  C         24.5350   42.0420   42.7250 C.2   130  LEU130      0.2260
    146  O         24.8660   41.2330   41.8560 O.2   130  LEU130     -0.2867
    147  CB        22.8590   43.9060   42.3310 C.3   130  LEU130      0.0270
    148  CG        23.3920   44.2840   40.9380 C.3   130  LEU130      0.0019
    149  CD1       22.8230   43.3920   39.8370 C.3   130  LEU130      0.0001
    150  CD2       23.0880   45.7270   40.6210 C.3   130  LEU130      0.0001
    151  N         24.8660   38.3200   43.3600 N.3   133  ILE133     -0.1231
    152  CA        24.3860   37.6470   42.1560 C.3   133  ILE133      0.1692
    153  C         25.3790   37.7630   40.9980 C.2   133  ILE133      0.2592
    154  O         25.6090   36.7940   40.2850 O.2   133  ILE133     -0.2718
    155  CB        22.9960   38.1940   41.7870 C.3   133  ILE133      0.0266
    156  CG1       21.9760   37.5080   42.6910 C.3   133  ILE133      0.0019
    157  CG2       22.6620   38.0170   40.2960 C.3   133  ILE133      0.0020
    158  CD1       20.7030   38.2800   42.8780 C.3   133  ILE133      0.0001
    159  N         25.9390   38.9540   40.8010 N.am  134  SER134     -0.1952
    160  CA        26.8310   39.1840   39.6900 C.3   134  SER134      0.1924
    161  C         28.1390   38.4260   39.8630 C.2   134  SER134      0.2314
    162  O         28.6590   37.8510   38.8750 O.2   134  SER134     -0.2863
    163  CB        27.0910   40.6630   39.5100 C.3   134  SER134      0.2116
    164  OG        25.8710   41.3060   39.1840 O.3   134  SER134     -0.2180
    165  N         28.7140   35.6230   41.4960 N.3   136  VAL136     -0.1231
    166  CA        28.4830   34.2150   41.1880 C.3   136  VAL136      0.1692
    167  C         28.4160   33.9760   39.6820 C.2   136  VAL136      0.2592
    168  O         28.9630   32.9890   39.1810 O.2   136  VAL136     -0.2718
    169  CB        27.1880   33.6970   41.8470 C.3   136  VAL136      0.0266
    170  CG1       27.0220   32.2280   41.5690 C.3   136  VAL136      0.0020
    171  CG2       27.2800   33.8500   43.3570 C.3   136  VAL136      0.0020
    172  N         27.7230   34.8700   38.9680 N.am  137  SER137     -0.1952
    173  CA        27.5440   34.7130   37.5410 C.3   137  SER137      0.1924
    174  C         28.8690   34.7910   36.8370 C.2   137  SER137      0.2314
    175  O         29.1480   33.9680   35.9800 O.2   137  SER137     -0.2863
    176  CB        26.6060   35.7720   36.9680 C.3   137  SER137      0.2116
    177  OG        25.3350   35.6310   37.5710 O.3   137  SER137     -0.2180
@<TRIPOS>BOND
     1    84    82    1
     2    68    69    1
     3    82    79    1
     4    82    83    1
     5    69    70    1
     6    69    72    1
     7    78    79    1
     8    70    71    2
     9    79    80    1
    10    72    73    1
    11    85    80   am
    12    85    86    1
    13    80    81    2
    14    88    87    2
    15     1     2    1
    16    73    74   ar
    17    73    75   ar
    18    89    86    1
    19    89    90    1
    20    99    98    2
    21    86    87    1
    22    74    76   ar
    23    90    91    1
    24    87    96   am
    25    98    97    1
    26     2     3    1
    27     2     5    1
    28     3     4    2
    29   110   109    2
    30    75    77   ar
    31   111   109   am
    32   109   108    1
    33    76    77   ar
    34     5     6    1
    35     6     8    1
    36     6     7    1
    37    96    97    1
    38    96   102    1
    39   103   104    1
    40    94    93    1
    41    97   100    1
    42   108   107    1
    43    91    92    1
    44    93    92    2
    45    93    95    1
    46   107   104    1
    47   102   101    1
    48   104   105    1
    49   100   101    1
    50     9    10    1
    51   105   106    2
    52    65    67   ar
    53    65    63   ar
    54    67    66   ar
    55    13    10    1
    56    13    14    1
    57    60    59    2
    58    10    11    1
    59    63    62   ar
    60    66    64   ar
    61    12    11    2
    62    14    16   ar
    63    14    15   ar
    64    59    58    1
    65    16    18   ar
    66    62    64   ar
    67    62    61    1
    68   125   123    1
    69   117   116    1
    70    58    61    1
    71    58    57    1
    72    15    17   ar
    73   175   174    2
    74   116   118    1
    75   116   113    1
    76    18    17   ar
    77   123   124    1
    78   123   120    1
    79   112   113    1
    80   174   173    1
    81    24    23    1
    82   176   173    1
    83   176   177    1
    84   119   120    1
    85   119   114   am
    86   113   114    1
    87    23    20    1
    88   173   172    1
    89   120   121    1
    90   114   115    2
    91    55    54    2
    92    20    19    1
    93    20    21    1
    94   121   122    2
    95   162   161    2
    96   172   167   am
    97    47    46    2
    98   168   167    2
    99   164   163    1
   100   134   132   am
   101   133   132    2
   102   163   160    1
   103    51    49   am
   104   167   166    1
   105    54    53    1
   106   160   161    1
   107   160   159    1
   108   132   131    1
   109   149   148    1
   110    21    22    2
   111    50    49    2
   112   141   140    1
   113   154   153    2
   114   157   155    1
   115    53    52    1
   116    53    56    1
   117    46    52   am
   118    46    45    1
   119    49    48    1
   120   150   148    1
   121   159   153   am
   122   131   130    1
   123   148   147    1
   124   153   152    1
   125    45    48    1
   126    45    44    1
   127   166   165    1
   128   166   169    1
   129   140   142    1
   130   140   139    1
   131   130   127    1
   132   170   169    1
   133   155   152    1
   134   155   156    1
   135   169   171    1
   136   146   145    2
   137   126   127    1
   138   152   151    1
   139   147   144    1
   140   139   136    1
   141   127   128    1
   142   156   158    1
   143   145   144    1
   144   135   128   am
   145   135   136    1
   146    35    33   ar
   147    35    34   ar
   148   144   143    1
   149    33    31   ar
   150   128   129    2
   151   136   137    1
   152    34    32   ar
   153    39    38    2
   154    28    27    2
   155    31    30   ar
   156   137   138    2
   157    38    37    1
   158    32    30   ar
   159    42    41    1
   160    37    40    1
   161    37    36    1
   162    30    29    1
   163    27    36   am
   164    27    26    1
   165    41    40    1
   166    41    43    1
   167    26    29    1
   168    26    25    1
