@<TRIPOS>MOLECULE
tmp/4auyB00.pdb
 119 113 0 0 0
SMALL
GASTEIGER

@<TRIPOS>ATOM
      1  N        -11.2870  -42.6450   -7.4400 N.3     1  PHE1       -0.1241
      2  CA       -10.1520  -41.6840   -7.5500 C.3     1  PHE1        0.1605
      3  C         -8.8970  -42.3730   -7.0660 C.2     1  PHE1        0.2264
      4  O         -8.8700  -42.9260   -5.9500 O.2     1  PHE1       -0.2867
      5  CB       -10.3860  -40.4220   -6.7180 C.3     1  PHE1        0.0534
      6  CG        -9.2240  -39.4430   -6.7620 C.ar    1  PHE1       -0.0203
      7  CD1       -8.1530  -39.5770   -5.8670 C.ar    1  PHE1       -0.0042
      8  CD2       -9.1900  -38.4260   -7.6780 C.ar    1  PHE1       -0.0042
      9  CE1       -7.0920  -38.7170   -5.9000 C.ar    1  PHE1       -0.0003
     10  CE2       -8.1270  -37.5430   -7.7120 C.ar    1  PHE1       -0.0003
     11  CZ        -7.0730  -37.6910   -6.8240 C.ar    1  PHE1       -0.0000
     12  N         -7.4240  -46.3280   -4.7830 N.3    13  ILE13      -0.1245
     13  CA        -8.6610  -45.8530   -4.1560 C.3    13  ILE13       0.1561
     14  C         -8.5300  -46.0120   -2.6810 C.2    13  ILE13       0.2260
     15  O         -8.0960  -47.0610   -2.1900 O.2    13  ILE13      -0.2867
     16  CB        -9.8670  -46.6680   -4.6900 C.3    13  ILE13       0.0252
     17  CG1      -10.1740  -46.2410   -6.1420 C.3    13  ILE13       0.0019
     18  CG2      -11.0900  -46.5280   -3.7990 C.3    13  ILE13       0.0019
     19  CD1      -11.1160  -47.1680   -6.9050 C.3    13  ILE13       0.0001
     20  N        -10.4270  -39.5190  -11.9760 N.3    46  ASN46      -0.1225
     21  CA       -11.7260  -39.6980  -11.3430 C.3    46  ASN46       0.1785
     22  C        -12.3040  -41.0250  -11.8560 C.2    46  ASN46       0.2597
     23  O        -12.2570  -41.3090  -13.0530 O.2    46  ASN46      -0.2718
     24  CB       -12.5990  -38.5030  -11.7690 C.3    46  ASN46       0.1169
     25  CG       -14.0170  -38.5610  -11.2190 C.2    46  ASN46       0.2627
     26  OD1      -14.6300  -39.6300  -11.1310 O.2    46  ASN46      -0.2716
     27  ND2      -14.5550  -37.4050  -10.8850 N.am   46  ASN46      -0.0877
     28  N        -12.7710  -41.9060  -10.9810 N.am   47  ASP47      -0.1960
     29  CA       -13.2260  -43.2090  -11.5030 C.3    47  ASP47       0.1840
     30  C        -14.6640  -43.3330  -11.9980 C.2    47  ASP47       0.2622
     31  O        -15.0410  -44.3840  -12.5230 O.2    47  ASP47      -0.2715
     32  CB       -12.9770  -44.3080  -10.4870 C.3    47  ASP47       0.1450
     33  CG       -11.5680  -44.7870  -10.5260 C.2    47  ASP47       0.3671
     34  OD1      -11.1260  -45.1360  -11.6190 O.co2  47  ASP47      -0.2456
     35  OD2      -10.8870  -44.7890   -9.4720 O.co2  47  ASP47      -0.2456
     36  N        -15.4750  -42.3080  -11.8040 N.am   48  TYR48      -0.1974
     37  CA       -16.8630  -42.3770  -12.2510 C.3    48  TYR48       0.1639
     38  C        -17.3420  -40.9610  -12.5000 C.2    48  TYR48       0.2290
     39  O        -18.2410  -40.4740  -11.8330 O.2    48  TYR48      -0.2864
     40  CB       -17.7250  -43.0800  -11.1990 C.3    48  TYR48       0.0560
     41  CG       -19.1160  -43.4570  -11.6820 C.ar   48  TYR48      -0.0198
     42  CD1      -19.3430  -43.8360  -13.0050 C.ar   48  TYR48      -0.0009
     43  CD2      -20.2080  -43.4390  -10.8100 C.ar   48  TYR48      -0.0009
     44  CE1      -20.6090  -44.1840  -13.4480 C.ar   48  TYR48       0.0417
     45  CE2      -21.4880  -43.7870  -11.2420 C.ar   48  TYR48       0.0417
     46  CZ       -21.6840  -44.1540  -12.5610 C.ar   48  TYR48       0.1957
     47  OH       -22.9550  -44.4990  -12.9850 O.3    48  TYR48      -0.2866
     48  N        -19.8790  -38.3510  -10.5120 N.3    52  ILE52      -0.1245
     49  CA       -19.1140  -37.9140   -9.3290 C.3    52  ILE52       0.1561
     50  C        -18.0980  -36.8320   -9.7190 C.2    52  ILE52       0.2260
     51  O        -17.4020  -36.9460  -10.7390 O.2    52  ILE52      -0.2867
     52  CB       -18.3800  -39.0930   -8.6180 C.3    52  ILE52       0.0252
     53  CG1      -19.3800  -40.1690   -8.2060 C.3    52  ILE52       0.0019
     54  CG2      -17.6010  -38.5900   -7.3880 C.3    52  ILE52       0.0019
     55  CD1      -18.7320  -41.3990   -7.5530 C.3    52  ILE52       0.0001
     56  N        -14.7290  -35.1940   -8.1160 N.3    54  ASP54      -0.1239
     57  CA       -13.6900  -35.3080   -7.0770 C.3    54  ASP54       0.1674
     58  C        -13.0410  -33.9540   -6.7860 C.2    54  ASP54       0.2266
     59  O        -12.6340  -33.2170   -7.7170 O.2    54  ASP54      -0.2867
     60  CB       -12.6160  -36.3250   -7.5200 C.3    54  ASP54       0.1410
     61  CG       -13.1130  -37.7810   -7.4830 C.2    54  ASP54       0.3668
     62  OD1      -13.8620  -38.1670   -6.5410 O.co2  54  ASP54      -0.2456
     63  OD2      -12.7360  -38.5330   -8.4080 O.co2  54  ASP54      -0.2456
     64  N         -8.3920  -35.7650   -0.9520 N.3   133  GLN133     -0.1245
     65  CA        -9.4040  -35.9620   -1.9770 C.3   133  GLN133      0.1566
     66  C        -10.7610  -36.1900   -1.3170 C.2   133  GLN133      0.2260
     67  O        -10.9280  -37.0820   -0.4470 O.2   133  GLN133     -0.2867
     68  CB        -9.0550  -37.1500   -2.8830 C.3   133  GLN133      0.0367
     69  CG       -10.1600  -37.5230   -3.8940 C.3   133  GLN133      0.0905
     70  CD       -10.8820  -38.7960   -3.4740 C.2   133  GLN133      0.2608
     71  OE1      -10.2580  -39.7330   -2.9630 O.2   133  GLN133     -0.2717
     72  NE2      -12.1960  -38.8550   -3.7210 N.am  133  GLN133     -0.0878
     73  N        -15.3120  -35.6380   -2.2880 N.3   135  ASN135     -0.1240
     74  CA       -16.1990  -35.6560   -3.4400 C.3   135  ASN135      0.1653
     75  C        -17.5750  -35.0850   -3.1500 C.2   135  ASN135      0.2266
     76  O        -17.8220  -34.5850   -2.0570 O.2   135  ASN135     -0.2867
     77  CB       -16.3000  -37.0810   -3.9930 C.3   135  ASN135      0.1155
     78  CG       -16.9460  -38.0320   -3.0310 C.2   135  ASN135      0.2627
     79  OD1      -17.8880  -37.6690   -2.3380 O.2   135  ASN135     -0.2716
     80  ND2      -16.4300  -39.2660   -2.9670 N.am  135  ASN135     -0.0877
     81  N        -20.3700  -36.9210   -3.3850 N.3   137  TYR137     -0.1227
     82  CA       -21.0960  -38.1700   -3.5370 C.3   137  TYR137      0.1736
     83  C        -21.3480  -38.8920   -2.2260 C.2   137  TYR137      0.2595
     84  O        -22.4200  -39.4340   -2.0080 O.2   137  TYR137     -0.2718
     85  CB       -20.3200  -39.0780   -4.4780 C.3   137  TYR137      0.0548
     86  CG       -20.8830  -40.4610   -4.6420 C.ar  137  TYR137     -0.0200
     87  CD1      -22.0250  -40.6930   -5.4080 C.ar  137  TYR137     -0.0009
     88  CD2      -20.2690  -41.5430   -4.0300 C.ar  137  TYR137     -0.0009
     89  CE1      -22.5370  -41.9880   -5.5680 C.ar  137  TYR137      0.0417
     90  CE2      -20.7600  -42.8400   -4.1940 C.ar  137  TYR137      0.0417
     91  CZ       -21.8940  -43.0560   -4.9550 C.ar  137  TYR137      0.1957
     92  OH       -22.3680  -44.3500   -5.0910 O.3   137  TYR137     -0.2866
     93  N        -20.3170  -38.9650   -1.3910 N.am  138  ASN138     -0.1974
     94  CA       -20.4140  -39.6630   -0.1380 C.3   138  ASN138      0.1688
     95  C        -19.4790  -38.9990    0.8660 C.2   138  ASN138      0.2292
     96  O        -19.1290  -37.8240    0.7040 O.2   138  ASN138     -0.2864
     97  CB       -20.1350  -41.1760   -0.3330 C.3   138  ASN138      0.1181
     98  CG       -18.7190  -41.4690   -0.8190 C.2   138  ASN138      0.2629
     99  OD1      -17.8470  -40.6240   -0.7340 O.2   138  ASN138     -0.2716
    100  ND2      -18.4870  -42.6920   -1.2910 N.am  138  ASN138     -0.0877
    101  N        -16.4160  -39.9200    1.6780 N.3   140  ASP140     -0.1239
    102  CA       -15.0010  -40.1610    1.4180 C.3   140  ASP140      0.1674
    103  C        -14.1490  -38.9420    1.6350 C.2   140  ASP140      0.2266
    104  O        -14.4470  -37.8490    1.1400 O.2   140  ASP140     -0.2867
    105  CB       -14.7750  -40.6590   -0.0110 C.3   140  ASP140      0.1410
    106  CG       -15.2270  -42.1120   -0.2020 C.2   140  ASP140      0.3668
    107  OD1      -15.6040  -42.7820    0.8090 O.co2 140  ASP140     -0.2456
    108  OD2      -15.2100  -42.5590   -1.3610 O.co2 140  ASP140     -0.2456
    109  N         -9.9530  -38.7760    1.7350 N.3   142  PHE142     -0.1241
    110  CA        -8.7280  -39.6150    1.7190 C.3   142  PHE142      0.1605
    111  C         -7.4630  -38.8010    1.5040 C.2   142  PHE142      0.2264
    112  O         -7.4590  -37.8080    0.7740 O.2   142  PHE142     -0.2867
    113  CB        -8.8200  -40.6300    0.5850 C.3   142  PHE142      0.0534
    114  CG        -9.9690  -41.5980    0.7370 C.ar  142  PHE142     -0.0203
    115  CD1      -10.2040  -42.2200    1.9470 C.ar  142  PHE142     -0.0042
    116  CD2      -10.8040  -41.8820   -0.3280 C.ar  142  PHE142     -0.0042
    117  CE1      -11.2580  -43.1350    2.0940 C.ar  142  PHE142     -0.0003
    118  CE2      -11.8360  -42.8090   -0.2140 C.ar  142  PHE142     -0.0003
    119  CZ       -12.0800  -43.4150    1.0060 C.ar  142  PHE142     -0.0000
@<TRIPOS>BOND
     1    44    42   ar
     2    44    46   ar
     3    23    22    2
     4    42    41   ar
     5    47    46    1
     6    46    45   ar
     7    31    30    2
     8    38    37    1
     9    38    39    2
    10    37    36    1
    11    37    40    1
    12    30    36   am
    13    30    29    1
    14    20    21    1
    15    22    21    1
    16    22    28   am
    17    24    21    1
    18    24    25    1
    19    41    40    1
    20    41    43   ar
    21    34    33   ar
    22    29    28    1
    23    29    32    1
    24    45    43   ar
    25    25    26    2
    26    25    27   am
    27    51    50    2
    28    33    32    1
    29    33    35   ar
    30    48    49    1
    31    50    49    1
    32    49    52    1
    33    52    53    1
    34    52    54    1
    35    63    61   ar
    36    53    55    1
    37    56    57    1
    38    59    58    2
    39    10     8   ar
    40    10    11   ar
    41     8     6   ar
    42     2     1    1
    43     2     3    1
    44     2     5    1
    45    60    61    1
    46    60    57    1
    47    61    62   ar
    48    57    58    1
    49     3     4    2
    50    19    17    1
    51    11     9   ar
    52     6     5    1
    53     6     7   ar
    54    17    16    1
    55     9     7   ar
    56    89    87   ar
    57    89    91   ar
    58    87    86   ar
    59    92    91    1
    60    91    90   ar
    61    12    13    1
    62    16    13    1
    63    16    18    1
    64    86    85    1
    65    86    88   ar
    66    85    82    1
    67    90    88   ar
    68    13    14    1
    69    77    74    1
    70    77    78    1
    71    69    70    1
    72    69    68    1
    73    72    70   am
    74    82    81    1
    75    82    83    1
    76    70    71    2
    77    74    75    1
    78    74    73    1
    79    75    76    2
    80    78    80   am
    81    78    79    2
    82    68    65    1
    83    14    15    2
    84    83    84    2
    85    83    93   am
    86    65    66    1
    87    65    64    1
    88    93    94    1
    89   108   106   ar
    90    66    67    2
    91   100    98   am
    92    98    99    2
    93    98    97    1
    94    97    94    1
    95   116   118   ar
    96   116   114   ar
    97   118   119   ar
    98   106   105    1
    99   106   107   ar
   100    94    95    1
   101   105   102    1
   102   113   114    1
   103   113   110    1
   104    96    95    2
   105   114   115   ar
   106   112   111    2
   107   119   117   ar
   108   104   103    2
   109   102   103    1
   110   102   101    1
   111   111   110    1
   112   110   109    1
   113   115   117   ar
