@<TRIPOS>MOLECULE
tmp/4av5C00.pdb
 130 124 0 0 0
SMALL
GASTEIGER

@<TRIPOS>ATOM
      1  N        -32.2790  -48.0930   45.0210 N.3     1  PHE1       -0.1241
      2  CA       -31.6660  -47.3110   43.9120 C.3     1  PHE1        0.1605
      3  C        -32.5480  -47.4210   42.6970 C.2     1  PHE1        0.2264
      4  O        -32.8580  -48.5190   42.2480 O.2     1  PHE1       -0.2867
      5  CB       -30.2790  -47.8480   43.5790 C.3     1  PHE1        0.0534
      6  CG       -29.5810  -47.0810   42.4850 C.ar    1  PHE1       -0.0203
      7  CD1      -28.7960  -45.9710   42.7860 C.ar    1  PHE1       -0.0042
      8  CD2      -29.7350  -47.4490   41.1540 C.ar    1  PHE1       -0.0042
      9  CE1      -28.1630  -45.2610   41.7660 C.ar    1  PHE1       -0.0003
     10  CE2      -29.1110  -46.7360   40.1540 C.ar    1  PHE1       -0.0003
     11  CZ       -28.3280  -45.6560   40.4430 C.ar    1  PHE1       -0.0000
     12  N        -36.0880  -50.0670   41.0460 N.3    13  ILE13      -0.1231
     13  CA       -35.1830  -50.9630   41.7350 C.3    13  ILE13       0.1692
     14  C        -35.0470  -52.2690   40.9510 C.2    13  ILE13       0.2592
     15  O        -36.0410  -52.8510   40.5320 O.2    13  ILE13      -0.2718
     16  CB       -35.7330  -51.2660   43.1550 C.3    13  ILE13       0.0266
     17  CG1      -35.5670  -50.0460   44.0530 C.3    13  ILE13       0.0019
     18  CG2      -35.0330  -52.4520   43.7430 C.3    13  ILE13       0.0020
     19  CD1      -36.3950  -50.1230   45.3280 C.3    13  ILE13       0.0001
     20  N        -33.8150  -52.7430   40.7660 N.am   14  GLY14      -0.1957
     21  CA       -33.5700  -53.9670   40.0290 C.3    14  GLY14       0.1869
     22  C        -33.1710  -53.7290   38.5820 C.2    14  GLY14       0.2309
     23  O        -32.7320  -54.6580   37.9020 O.2    14  GLY14      -0.2863
     24  N        -30.3880  -43.0160   45.7280 N.3    46  ASN46      -0.1225
     25  CA       -30.2300  -44.1080   46.6760 C.3    46  ASN46       0.1785
     26  C        -31.4820  -44.1270   47.5410 C.2    46  ASN46       0.2597
     27  O        -31.9180  -43.0770   48.0100 O.2    46  ASN46      -0.2718
     28  CB       -28.9710  -43.8030   47.4820 C.3    46  ASN46       0.1169
     29  CG       -28.6540  -44.8150   48.5700 C.2    46  ASN46       0.2627
     30  OD1      -29.5350  -45.4670   49.1480 O.2    46  ASN46      -0.2716
     31  ND2      -27.3790  -44.9210   48.8800 N.am   46  ASN46      -0.0877
     32  N        -32.1060  -45.2920   47.6770 N.am   47  ASP47      -0.1960
     33  CA       -33.3750  -45.4340   48.3860 C.3    47  ASP47       0.1840
     34  C        -33.2500  -45.5890   49.9070 C.2    47  ASP47       0.2622
     35  O        -34.2540  -45.4710   50.6140 O.2    47  ASP47      -0.2715
     36  CB       -34.1600  -46.6040   47.8040 C.3    47  ASP47       0.1450
     37  CG       -34.8650  -46.2430   46.5090 C.2    47  ASP47       0.3671
     38  OD1      -35.6230  -45.2560   46.5190 O.co2  47  ASP47      -0.2456
     39  OD2      -34.6680  -46.9460   45.4750 O.co2  47  ASP47      -0.2456
     40  N        -32.0650  -45.9250   50.3990 N.am   48  TYR48      -0.1974
     41  CA       -31.8740  -46.0590   51.8440 C.3    48  TYR48       0.1639
     42  C        -30.4580  -45.6710   52.2530 C.2    48  TYR48       0.2290
     43  O        -29.6860  -46.4990   52.7230 O.2    48  TYR48      -0.2864
     44  CB       -32.2140  -47.4810   52.3000 C.3    48  TYR48       0.0560
     45  CG       -32.7350  -47.5200   53.7180 C.ar   48  TYR48      -0.0198
     46  CD1      -33.9690  -46.9760   54.0380 C.ar   48  TYR48      -0.0009
     47  CD2      -31.9770  -48.0690   54.7400 C.ar   48  TYR48      -0.0009
     48  CE1      -34.4460  -47.0030   55.3430 C.ar   48  TYR48       0.0417
     49  CE2      -32.4400  -48.0960   56.0440 C.ar   48  TYR48       0.0417
     50  CZ       -33.6730  -47.5700   56.3370 C.ar   48  TYR48       0.1957
     51  OH       -34.1200  -47.6110   57.6320 O.3    48  TYR48      -0.2866
     52  N        -28.3490  -46.5260   55.5500 N.3    51  THR51      -0.1203
     53  CA       -27.6950  -47.7980   55.8130 C.3    51  THR51       0.1994
     54  C        -26.8590  -48.3110   54.6490 C.2    51  THR51       0.2617
     55  O        -25.9740  -49.1250   54.8390 O.2    51  THR51      -0.2717
     56  CB       -28.7170  -48.8840   56.1900 C.3    51  THR51       0.1784
     57  OG1      -29.4410  -48.4630   57.3550 O.3    51  THR51      -0.2211
     58  CG2      -28.0040  -50.1800   56.5080 C.3    51  THR51       0.0376
     59  N        -27.1740  -47.8680   53.4360 N.am   52  ILE52      -0.1979
     60  CA       -26.5550  -48.4490   52.2490 C.3    52  ILE52       0.1595
     61  C        -25.9090  -47.3610   51.4110 C.2    52  ILE52       0.2287
     62  O        -26.4620  -46.2740   51.2770 O.2    52  ILE52      -0.2864
     63  CB       -27.6040  -49.1790   51.4010 C.3    52  ILE52       0.0276
     64  CG1      -28.3260  -50.2380   52.2500 C.3    52  ILE52       0.0022
     65  CG2      -26.9580  -49.7950   50.1630 C.3    52  ILE52       0.0022
     66  CD1      -29.4770  -50.9400   51.5470 C.3    52  ILE52       0.0001
     67  N        -24.5930  -46.8230   47.4750 N.3    54  ASP54      -0.1239
     68  CA       -24.7090  -47.3620   46.1140 C.3    54  ASP54       0.1674
     69  C        -23.5190  -46.9340   45.2670 C.2    54  ASP54       0.2266
     70  O        -23.0390  -45.8040   45.3910 O.2    54  ASP54      -0.2867
     71  CB       -26.0060  -46.8710   45.4700 C.3    54  ASP54       0.1410
     72  CG       -27.2340  -47.4990   46.0840 C.2    54  ASP54       0.3668
     73  OD1      -27.1640  -48.7060   46.3960 O.co2  54  ASP54      -0.2456
     74  OD2      -28.2690  -46.8050   46.2350 O.co2  54  ASP54      -0.2456
     75  N        -25.1240  -50.8220   38.7260 N.3   133  GLN133     -0.1245
     76  CA       -25.2740  -50.4280   40.1080 C.3   133  GLN133      0.1566
     77  C        -25.0910  -51.6050   41.0440 C.2   133  GLN133      0.2260
     78  O        -25.7610  -52.6360   40.9180 O.2   133  GLN133     -0.2867
     79  CB       -26.6540  -49.8140   40.3480 C.3   133  GLN133      0.0367
     80  CG       -26.9420  -49.4690   41.8210 C.3   133  GLN133      0.0905
     81  CD       -27.9620  -50.4090   42.4510 C.2   133  GLN133      0.2608
     82  OE1      -28.9110  -50.8180   41.8080 O.2   133  GLN133     -0.2717
     83  NE2      -27.7830  -50.7130   43.7390 N.am  133  GLN133     -0.0878
     84  N        -23.7870  -52.1520   45.5360 N.3   135  ASN135     -0.1240
     85  CA       -23.8510  -51.4760   46.8260 C.3   135  ASN135      0.1653
     86  C        -22.8840  -52.1020   47.8100 C.2   135  ASN135      0.2266
     87  O        -22.1650  -53.0310   47.4670 O.2   135  ASN135     -0.2867
     88  CB       -25.2850  -51.4780   47.3660 C.3   135  ASN135      0.1155
     89  CG       -25.8000  -52.8650   47.6300 C.2   135  ASN135      0.2627
     90  OD1      -25.0570  -53.7180   48.0900 O.2   135  ASN135     -0.2716
     91  ND2      -27.0640  -53.0950   47.3430 N.am  135  ASN135     -0.0877
     92  N        -23.8900  -53.5120   50.6350 N.3   137  TYR137     -0.1227
     93  CA       -24.8000  -54.2350   51.5320 C.3   137  TYR137      0.1736
     94  C        -25.0600  -55.7020   51.1510 C.2   137  TYR137      0.2595
     95  O        -25.0180  -56.5940   52.0140 O.2   137  TYR137     -0.2718
     96  CB       -26.1250  -53.4980   51.6310 C.3   137  TYR137      0.0548
     97  CG       -27.0790  -54.1950   52.5460 C.ar  137  TYR137     -0.0200
     98  CD1      -26.8200  -54.2520   53.9050 C.ar  137  TYR137     -0.0009
     99  CD2      -28.2220  -54.8040   52.0640 C.ar  137  TYR137     -0.0009
    100  CE1      -27.6700  -54.8920   54.7590 C.ar  137  TYR137      0.0417
    101  CE2      -29.0920  -55.4510   52.9230 C.ar  137  TYR137      0.0417
    102  CZ       -28.7990  -55.4890   54.2640 C.ar  137  TYR137      0.1957
    103  OH       -29.6500  -56.1240   55.1410 O.3   137  TYR137     -0.2866
    104  N        -25.3550  -55.9720   49.8800 N.am  138  ASN138     -0.1974
    105  CA       -25.6940  -57.3380   49.4620 C.3   138  ASN138      0.1688
    106  C        -25.1060  -57.6050   48.0710 C.2   138  ASN138      0.2292
    107  O        -24.1640  -56.9300   47.6730 O.2   138  ASN138     -0.2864
    108  CB       -27.2040  -57.5590   49.5160 C.3   138  ASN138      0.1181
    109  CG       -27.9610  -56.6050   48.6080 C.2   138  ASN138      0.2629
    110  OD1      -27.3690  -55.9970   47.7070 O.2   138  ASN138     -0.2716
    111  ND2      -29.2640  -56.4740   48.8280 N.am  138  ASN138     -0.0877
    112  N        -26.5840  -57.3430   45.1160 N.3   140  ASP140     -0.1239
    113  CA       -27.2940  -56.6810   44.0110 C.3   140  ASP140      0.1674
    114  C        -26.3200  -56.1420   42.9770 C.2   140  ASP140      0.2266
    115  O        -25.3680  -55.4350   43.3060 O.2   140  ASP140     -0.2867
    116  CB       -28.1260  -55.5050   44.5180 C.3   140  ASP140      0.1410
    117  CG       -29.3380  -55.9300   45.3190 C.2   140  ASP140      0.3668
    118  OD1      -29.6460  -57.1420   45.3940 O.co2 140  ASP140     -0.2456
    119  OD2      -29.9860  -55.0230   45.8950 O.co2 140  ASP140     -0.2456
    120  N        -27.1240  -54.5660   39.2720 N.3   142  PHE142     -0.1241
    121  CA       -28.2320  -54.3080   38.3670 C.3   142  PHE142      0.1605
    122  C        -27.8200  -53.3990   37.2430 C.2   142  PHE142      0.2264
    123  O        -27.0880  -52.4420   37.4610 O.2   142  PHE142     -0.2867
    124  CB       -29.3840  -53.6500   39.1270 C.3   142  PHE142      0.0534
    125  CG       -30.0050  -54.5330   40.2140 C.ar  142  PHE142     -0.0203
    126  CD1      -30.3750  -55.8430   39.9580 C.ar  142  PHE142     -0.0042
    127  CD2      -30.2340  -54.0180   41.4780 C.ar  142  PHE142     -0.0042
    128  CE1      -30.9710  -56.6230   40.9570 C.ar  142  PHE142     -0.0003
    129  CE2      -30.8300  -54.7920   42.4840 C.ar  142  PHE142     -0.0003
    130  CZ       -31.1900  -56.0920   42.2170 C.ar  142  PHE142     -0.0000
@<TRIPOS>BOND
     1   122   123    2
     2   122   121    1
     3    23    22    2
     4   121   124    1
     5   121   120    1
     6    22    21    1
     7    75    76    1
     8   124   125    1
     9   126   125   ar
    10   126   128   ar
    11    21    20    1
    12    76    79    1
    13    76    77    1
    14    10    11   ar
    15    10     8   ar
    16   125   127   ar
    17    79    80    1
    18    11     9   ar
    19    15    14    2
    20    20    14   am
    21    78    77    2
    22    14    13    1
    23   128   130   ar
    24    12    13    1
    25     8     6   ar
    26   127   129   ar
    27    13    16    1
    28     9     7   ar
    29    82    81    2
    30    80    81    1
    31   130   129   ar
    32     4     3    2
    33    81    83   am
    34     6     7   ar
    35     6     5    1
    36     3     2    1
    37   114   115    2
    38   114   113    1
    39    16    18    1
    40    16    17    1
    41     5     2    1
    42     2     1    1
    43   113   116    1
    44   113   112    1
    45    17    19    1
    46   116   117    1
    47    69    70    2
    48    69    68    1
    49   117   118   ar
    50   117   119   ar
    51    71    72    1
    52    71    68    1
    53    39    37   ar
    54    84    85    1
    55    24    25    1
    56    72    74   ar
    57    72    73   ar
    58    68    67    1
    59    37    38   ar
    60    37    36    1
    61    25    28    1
    62    25    26    1
    63    85    88    1
    64    85    86    1
    65    91    89   am
    66    88    89    1
    67    87    86    2
    68    28    29    1
    69    26    32   am
    70    26    27    2
    71    89    90    2
    72   107   106    2
    73    32    33    1
    74   110   109    2
    75    36    33    1
    76   106   105    1
    77    33    34    1
    78    29    31   am
    79    29    30    2
    80   109   111   am
    81   109   108    1
    82   105   108    1
    83   105   104    1
    84   104    94   am
    85    34    40   am
    86    34    35    2
    87    65    63    1
    88    40    41    1
    89    92    93    1
    90    94    93    1
    91    94    95    2
    92    62    61    2
    93    63    60    1
    94    63    64    1
    95    61    60    1
    96    93    96    1
    97    66    64    1
    98    96    97    1
    99    41    42    1
   100    41    44    1
   101    99    97   ar
   102    99   101   ar
   103    60    59    1
   104    42    43    2
   105    44    45    1
   106    97    98   ar
   107   101   102   ar
   108    59    54   am
   109    45    46   ar
   110    45    47   ar
   111    98   100   ar
   112    46    48   ar
   113   102   100   ar
   114   102   103    1
   115    54    55    2
   116    54    53    1
   117    47    49   ar
   118    48    50   ar
   119    52    53    1
   120    53    56    1
   121    49    50   ar
   122    56    58    1
   123    56    57    1
   124    50    51    1
