@<TRIPOS>MOLECULE
tmp/4avaA00.pdb
 186 183 0 0 0
SMALL
GASTEIGER

@<TRIPOS>ATOM
      1  N         61.2630   57.6530   35.9720 N.3   172  HIS172     -0.1241
      2  CA        60.6270   58.9790   35.9600 C.3   172  HIS172      0.1621
      3  C         59.3660   59.1050   36.8170 C.2   172  HIS172      0.2264
      4  O         59.1190   60.1480   37.4060 O.2   172  HIS172     -0.2867
      5  CB        60.2920   59.3810   34.5260 C.3   172  HIS172      0.0745
      6  CG        59.6300   60.7160   34.4240 C.ar  172  HIS172      0.0817
      7  ND1       60.3170   61.8970   34.6040 N.ar  172  HIS172     -0.2268
      8  CD2       58.3480   61.0640   34.1590 C.ar  172  HIS172      0.1154
      9  CE1       59.4840   62.9160   34.4900 C.ar  172  HIS172      0.1986
     10  NE2       58.2810   62.4400   34.2200 N.ar  172  HIS172     -0.2212
     11  N         52.4430   60.3060   32.2500 N.3   230  ILE230     -0.1231
     12  CA        53.1890   59.7580   31.1150 C.3   230  ILE230      0.1692
     13  C         54.6980   59.9110   31.2690 C.2   230  ILE230      0.2592
     14  O         55.1930   60.8040   31.9880 O.2   230  ILE230     -0.2718
     15  CB        52.7100   60.3790   29.7680 C.3   230  ILE230      0.0266
     16  CG1       52.9940   61.8970   29.7180 C.3   230  ILE230      0.0019
     17  CG2       51.2100   60.1300   29.5490 C.3   230  ILE230      0.0020
     18  CD1       52.4860   62.5720   28.4200 C.3   230  ILE230      0.0001
     19  N         55.4360   59.0250   30.6080 N.am  231  ALA231     -0.1966
     20  CA        56.8770   59.1310   30.6280 C.3   231  ALA231      0.1728
     21  C         57.4560   58.5520   29.3330 C.2   231  ALA231      0.2616
     22  O         56.8690   57.6650   28.6990 O.2   231  ALA231     -0.2715
     23  CB        57.4510   58.4090   31.8830 C.3   231  ALA231      0.0334
     24  N         58.6110   59.0810   28.9470 N.am  232  PHE232     -0.1960
     25  CA        59.2780   58.6810   27.6960 C.3   232  PHE232      0.1771
     26  C         60.7640   58.5830   27.9310 C.2   232  PHE232      0.2620
     27  O         61.3520   59.4070   28.6490 O.2   232  PHE232     -0.2715
     28  CB        59.0650   59.7610   26.6140 C.3   232  PHE232      0.0574
     29  CG        57.6390   60.1240   26.3820 C.ar  232  PHE232     -0.0200
     30  CD1       56.9810   60.9920   27.2460 C.ar  232  PHE232     -0.0042
     31  CD2       56.9380   59.6030   25.2960 C.ar  232  PHE232     -0.0042
     32  CE1       55.6610   61.3420   27.0310 C.ar  232  PHE232     -0.0003
     33  CE2       55.6130   59.9340   25.0880 C.ar  232  PHE232     -0.0003
     34  CZ        54.9670   60.8110   25.9550 C.ar  232  PHE232     -0.0000
     35  N         61.4000   57.6090   27.2830 N.am  233  THR233     -0.1937
     36  CA        62.8550   57.5470   27.2700 C.3   233  THR233      0.2028
     37  C         63.3450   57.0500   25.9200 C.2   233  THR233      0.2642
     38  O         62.8670   56.0320   25.4190 O.2   233  THR233     -0.2714
     39  CB        63.4020   56.6350   28.3820 C.3   233  THR233      0.1808
     40  OG1       62.8270   57.0150   29.6360 O.3   233  THR233     -0.2208
     41  CG2       64.9150   56.7410   28.4760 C.3   233  THR233      0.0379
     42  N         64.3080   57.7690   25.3500 N.am  234  VAL234     -0.1977
     43  CA        64.8540   57.4410   24.0350 C.3   234  VAL234      0.1596
     44  C         66.3450   57.3380   24.2440 C.2   234  VAL234      0.2287
     45  O         66.9440   58.2050   24.8890 O.2   234  VAL234     -0.2864
     46  CB        64.5530   58.5450   22.9920 C.3   234  VAL234      0.0276
     47  CG1       65.2120   58.2070   21.6300 C.3   234  VAL234      0.0022
     48  CG2       63.0650   58.7590   22.8300 C.3   234  VAL234      0.0022
     49  N         69.6650   57.8920   19.6060 N.3   238  TYR238     -0.1227
     50  CA        68.4050   57.9170   18.8400 C.3   238  TYR238      0.1736
     51  C         67.5680   59.1620   19.0560 C.2   238  TYR238      0.2595
     52  O         66.4850   59.3140   18.4800 O.2   238  TYR238     -0.2718
     53  CB        67.5860   56.6740   19.1370 C.3   238  TYR238      0.0548
     54  CG        68.1710   55.4460   18.4590 C.ar  238  TYR238     -0.0200
     55  CD1       69.2420   54.7810   19.0210 C.ar  238  TYR238     -0.0009
     56  CD2       67.6640   54.9880   17.2490 C.ar  238  TYR238     -0.0009
     57  CE1       69.7970   53.6590   18.4270 C.ar  238  TYR238      0.0417
     58  CE2       68.2110   53.8570   16.6250 C.ar  238  TYR238      0.0417
     59  CZ        69.2800   53.2000   17.2240 C.ar  238  TYR238      0.1957
     60  OH        69.8480   52.0830   16.6290 O.3   238  TYR238     -0.2866
     61  N         68.0610   60.0460   19.9050 N.am  239  GLN239     -0.1965
     62  CA        67.2850   61.2340   20.2460 C.3   239  GLN239      0.1733
     63  C         67.2380   62.2250   19.1010 C.2   239  GLN239      0.2617
     64  O         68.1310   62.2520   18.2340 O.2   239  GLN239     -0.2715
     65  CB        67.8440   61.8860   21.5150 C.3   239  GLN239      0.0408
     66  CG        67.4830   61.1050   22.8040 C.3   239  GLN239      0.0908
     67  CD        68.2910   61.5650   24.0180 C.2   239  GLN239      0.2608
     68  OE1       68.9390   62.6280   23.9980 O.2   239  GLN239     -0.2717
     69  NE2       68.2640   60.7560   25.0790 N.am  239  GLN239     -0.0878
     70  N         66.1900   63.0410   19.0930 N.am  240  GLY240     -0.1940
     71  CA        66.0850   64.1290   18.1280 C.3   240  GLY240      0.2014
     72  C         65.6700   63.7270   16.7270 C.2   240  GLY240      0.2639
     73  O         65.7990   64.5110   15.7630 O.2   240  GLY240     -0.2714
     74  N         65.2630   62.4690   16.6130 N.am  241  ARG241     -0.1963
     75  CA        64.7760   61.9300   15.3500 C.3   241  ARG241      0.1729
     76  C         63.2740   61.8690   15.2110 C.2   241  ARG241      0.2617
     77  O         62.7810   61.2970   14.2420 O.2   241  ARG241     -0.2715
     78  CB        65.3450   60.5220   15.1450 C.3   241  ARG241      0.0348
     79  CG        66.8460   60.4380   15.2160 C.3   241  ARG241      0.0492
     80  CD        67.2530   59.0500   14.7020 C.3   241  ARG241      0.2205
     81  NE        68.5970   58.7290   15.1250 N.pl3 241  ARG241     -0.0865
     82  CZ        69.2710   57.6600   14.7230 C.cat 241  ARG241      0.5346
     83  NH1       68.7230   56.7940   13.8700 N.pl3 241  ARG241      0.1354
     84  NH2       70.4940   57.4650   15.1850 N.pl3 241  ARG241      0.1354
     85  N         62.5420   62.3480   16.2150 N.am  242  GLY242     -0.1940
     86  CA        61.0890   62.3120   16.1470 C.3   242  GLY242      0.2014
     87  C         60.4400   61.1280   16.8680 C.2   242  GLY242      0.2639
     88  O         59.2340   60.9330   16.8020 O.2   242  GLY242     -0.2714
     89  N         61.2400   60.3370   17.5620 N.am  243  ILE243     -0.1963
     90  CA        60.6740   59.1710   18.2280 C.3   243  ILE243      0.1727
     91  C         59.7450   59.6090   19.3590 C.2   243  ILE243      0.2617
     92  O         58.6680   59.0970   19.5040 O.2   243  ILE243     -0.2715
     93  CB        61.7620   58.2060   18.7590 C.3   243  ILE243      0.0290
     94  CG1       62.5670   57.6140   17.5900 C.3   243  ILE243      0.0022
     95  CG2       61.1230   57.0960   19.5550 C.3   243  ILE243      0.0023
     96  CD1       63.8080   56.8360   18.0240 C.3   243  ILE243      0.0001
     97  N         60.1930   60.5420   20.1940 N.am  244  GLY244     -0.1940
     98  CA        59.3550   61.0200   21.2900 C.3   244  GLY244      0.2014
     99  C         58.0360   61.5890   20.7660 C.2   244  GLY244      0.2639
    100  O         56.9650   61.3000   21.3260 O.2   244  GLY244     -0.2714
    101  N         58.1290   62.4110   19.7160 N.am  245  SER245     -0.1949
    102  CA        56.9440   62.9850   19.0650 C.3   245  SER245      0.1924
    103  C         56.0100   61.8690   18.5870 C.2   245  SER245      0.2314
    104  O         54.7830   61.9740   18.7270 O.2   245  SER245     -0.2863
    105  CB        57.3410   63.8930   17.9060 C.3   245  SER245      0.2116
    106  OG        58.1780   64.9190   18.4130 O.3   245  SER245     -0.2180
    107  N         52.0510   65.3710   32.9830 N.3   265  ALA265     -0.1231
    108  CA        53.4860   65.2190   32.7190 C.3   265  ALA265      0.1694
    109  C         54.2670   66.1610   33.6330 C.2   265  ALA265      0.2592
    110  O         53.8390   67.2910   33.8760 O.2   265  ALA265     -0.2718
    111  CB        53.8300   65.5090   31.2650 C.3   265  ALA265      0.0304
    112  N         55.3950   65.6750   34.1450 N.am  266  ARG266     -0.1966
    113  CA        56.3450   66.4820   34.9030 C.3   266  ARG266      0.1729
    114  C         57.7340   66.3260   34.2930 C.2   266  ARG266      0.2616
    115  O         58.0600   65.2700   33.7540 O.2   266  ARG266     -0.2715
    116  CB        56.4130   66.0040   36.3500 C.3   266  ARG266      0.0348
    117  CG        55.1050   65.5290   36.9430 C.3   266  ARG266      0.0492
    118  CD        55.3490   64.8830   38.3190 C.3   266  ARG266      0.2205
    119  NE        56.0640   65.7650   39.2500 N.pl3 266  ARG266     -0.0865
    120  CZ        57.3220   65.5870   39.6580 C.cat 266  ARG266      0.5346
    121  NH1       58.0320   64.5500   39.2310 N.pl3 266  ARG266      0.1354
    122  NH2       57.8690   66.4430   40.5160 N.pl3 266  ARG266      0.1354
    123  N         58.5660   67.3590   34.3940 N.am  267  MET267     -0.1977
    124  CA        59.9150   67.3020   33.8200 C.3   267  MET267      0.1605
    125  C         60.6890   68.4810   34.3960 C.2   267  MET267      0.2287
    126  O         60.1030   69.3450   35.0240 O.2   267  MET267     -0.2864
    127  CB        59.8380   67.4410   32.2890 C.3   267  MET267      0.0413
    128  CG        59.3230   68.8170   31.7700 C.3   267  MET267      0.0598
    129  SD        58.5540   68.6400   30.1090 S.3   267  MET267     -0.1393
    130  CE        57.2170   67.5460   30.5830 C.3   267  MET267      0.0692
    131  N         64.0530   70.8430   30.0030 N.3   271  ASN271     -0.1225
    132  CA        64.0880   69.7340   29.0880 C.3   271  ASN271      0.1785
    133  C         63.3080   70.2260   27.8620 C.2   271  ASN271      0.2597
    134  O         62.0950   70.0810   27.7330 O.2   271  ASN271     -0.2718
    135  CB        63.3390   68.5880   29.7630 C.3   271  ASN271      0.1169
    136  CG        63.4870   67.2920   29.0230 C.2   271  ASN271      0.2627
    137  OD1       63.7430   67.3050   27.8310 O.2   271  ASN271     -0.2716
    138  ND2       63.3350   66.1520   29.7330 N.am  271  ASN271     -0.0877
    139  N         64.0820   70.6680   26.8860 N.am  272  VAL272     -0.1966
    140  CA        63.5140   71.3840   25.7560 C.3   272  VAL272      0.1712
    141  C         62.7150   70.4660   24.8400 C.2   272  VAL272      0.2458
    142  O         61.6050   70.7900   24.4240 O.2   272  VAL272     -0.2730
    143  CB        64.5860   72.1690   24.9770 C.3   272  VAL272      0.0289
    144  CG1       64.0460   72.5510   23.6100 C.3   272  VAL272      0.0023
    145  CG2       65.0090   73.4090   25.7570 C.3   272  VAL272      0.0023
    146  N         63.2890   69.3110   24.5030 N.am  273  PRO273     -0.2716
    147  CA        62.5340   68.4280   23.5950 C.3   273  PRO273      0.1536
    148  C         61.2200   67.9530   24.2410 C.2   273  PRO273      0.2598
    149  O         60.2000   67.8670   23.5660 O.2   273  PRO273     -0.2715
    150  CB        63.4720   67.2380   23.3880 C.3   273  PRO273      0.0310
    151  CG        64.8360   67.7160   23.8570 C.3   273  PRO273      0.0237
    152  CD        64.6150   68.7790   24.8580 C.3   273  PRO273      0.0939
    153  N         61.2380   67.6480   25.5320 N.am  274  MET274     -0.1978
    154  CA        60.0270   67.1570   26.1940 C.3   274  MET274      0.1605
    155  C         58.9760   68.2610   26.3570 C.2   274  MET274      0.2287
    156  O         57.7850   68.0270   26.0850 O.2   274  MET274     -0.2864
    157  CB        60.3680   66.5360   27.5530 C.3   274  MET274      0.0413
    158  CG        59.2140   65.7200   28.1490 C.3   274  MET274      0.0598
    159  SD        58.8240   64.2140   27.2530 S.3   274  MET274     -0.1393
    160  CE        57.2660   64.6560   26.4550 C.3   274  MET274      0.0692
    161  N         58.7650   70.8050   24.3310 N.3   276  THR276     -0.1203
    162  CA        58.2780   71.0770   22.9970 C.3   276  THR276      0.1994
    163  C         57.2300   70.0680   22.6060 C.2   276  THR276      0.2617
    164  O         56.2220   70.4230   22.0050 O.2   276  THR276     -0.2717
    165  CB        59.4110   71.0760   21.9620 C.3   276  THR276      0.1784
    166  OG1       60.3580   72.0850   22.3230 O.3   276  THR276     -0.2211
    167  CG2       58.8480   71.3840   20.5840 C.3   276  THR276      0.0376
    168  N         57.4520   68.8060   22.9510 N.am  277  ILE277     -0.1979
    169  CA        56.4790   67.7740   22.5970 C.3   277  ILE277      0.1595
    170  C         55.1070   68.1250   23.2090 C.2   277  ILE277      0.2287
    171  O         54.0650   68.0610   22.5360 O.2   277  ILE277     -0.2864
    172  CB        56.9450   66.3880   23.0710 C.3   277  ILE277      0.0276
    173  CG1       58.0680   65.8630   22.1490 C.3   277  ILE277      0.0022
    174  CG2       55.7790   65.4230   23.1160 C.3   277  ILE277      0.0022
    175  CD1       58.7910   64.6100   22.7370 C.3   277  ILE277      0.0001
    176  N         53.0410   71.0840   21.7120 N.3   280  ARG280     -0.1245
    177  CA        52.2520   70.8120   20.5120 C.3   280  ARG280      0.1563
    178  C         50.8200   70.4250   20.8540 C.2   280  ARG280      0.2260
    179  O         49.9150   70.5000   20.0240 O.2   280  ARG280     -0.2867
    180  CB        52.9030   69.7040   19.6820 C.3   280  ARG280      0.0307
    181  CG        54.3280   70.0190   19.2380 C.3   280  ARG280      0.0489
    182  CD        54.4100   71.3940   18.6570 C.3   280  ARG280      0.2205
    183  NE        55.7310   71.6890   18.1040 N.pl3 280  ARG280     -0.0865
    184  CZ        56.2180   72.9190   17.9390 C.cat 280  ARG280      0.5346
    185  NH1       55.4960   73.9820   18.3060 N.pl3 280  ARG280      0.1354
    186  NH2       57.4340   73.0900   17.4310 N.pl3 280  ARG280      0.1354
@<TRIPOS>BOND
     1    83    82    1
     2    77    76    2
     3    80    81    1
     4    80    79    1
     5    82    81    2
     6    82    84    1
     7    78    79    1
     8    78    75    1
     9    76    75    1
    10    76    85   am
    11    75    74    1
    12    73    72    2
    13    86    85    1
    14    86    87    1
    15    74    72   am
    16    58    59   ar
    17    58    56   ar
    18    60    59    1
    19    72    71    1
    20    88    87    2
    21    87    89   am
    22    59    57   ar
    23    56    54   ar
    24   186   184    1
    25    89    90    1
    26    94    96    1
    27    94    93    1
    28   105   106    1
    29   105   102    1
    30   184   183    2
    31   184   185    1
    32   183   182    1
    33    71    70    1
    34    90    93    1
    35    90    91    1
    36    64    63    2
    37    57    55   ar
    38    54    55   ar
    39    54    53    1
    40    52    51    2
    41   103   104    2
    42   103   102    1
    43   182   181    1
    44    93    95    1
    45    50    51    1
    46    50    53    1
    47    50    49    1
    48    51    61   am
    49   102   101    1
    50    70    63   am
    51    63    62    1
    52   181   180    1
    53    91    92    2
    54    91    97   am
    55   180   177    1
    56   101    99   am
    57    61    62    1
    58   179   178    2
    59    97    98    1
    60    62    65    1
    61   177   178    1
    62   177   176    1
    63   167   165    1
    64    99    98    1
    65    99   100    2
    66    65    66    1
    67    47    46    1
    68   165   166    1
    69   165   162    1
    70   164   163    2
    71   173   175    1
    72   173   172    1
    73   171   170    2
    74   169   168    1
    75   169   172    1
    76   169   170    1
    77   163   168   am
    78   163   162    1
    79    66    67    1
    80    48    46    1
    81    46    43    1
    82   162   161    1
    83   172   174    1
    84   150   147    1
    85   150   151    1
    86   149   148    2
    87   147   148    1
    88   147   146    1
    89   144   143    1
    90   151   152    1
    91    68    67    2
    92    67    69   am
    93    43    44    1
    94    43    42    1
    95   148   153   am
    96    44    45    2
    97   142   141    2
    98   146   141   am
    99   146   152    1
   100   141   140    1
   101   143   140    1
   102   143   145    1
   103    33    31   ar
   104    33    34   ar
   105    31    29   ar
   106    42    37   am
   107    38    37    2
   108   153   154    1
   109   140   139    1
   110    37    36    1
   111    34    32   ar
   112   156   155    2
   113   154   155    1
   114   154   157    1
   115    29    28    1
   116    29    30   ar
   117   160   159    1
   118    28    25    1
   119   139   133   am
   120    32    30   ar
   121   159   158    1
   122    36    35    1
   123    36    39    1
   124    35    26   am
   125   157   158    1
   126    25    26    1
   127    25    24    1
   128   134   133    2
   129   137   136    2
   130   133   132    1
   131    26    27    2
   132    39    41    1
   133    39    40    1
   134    18    16    1
   135    22    21    2
   136    24    21   am
   137   136   138   am
   138   136   135    1
   139   132   135    1
   140   132   131    1
   141    21    20    1
   142    17    15    1
   143    16    15    1
   144    15    12    1
   145   129   130    1
   146   129   128    1
   147    19    20    1
   148    19    13   am
   149    20    23    1
   150    12    13    1
   151    12    11    1
   152   111   108    1
   153    13    14    2
   154   128   127    1
   155   127   124    1
   156   108   107    1
   157   108   109    1
   158   109   110    2
   159   109   112   am
   160   115   114    2
   161   124   123    1
   162   124   125    1
   163   112   113    1
   164     8    10   ar
   165     8     6   ar
   166    10     9   ar
   167   114   123   am
   168   114   113    1
   169   125   126    2
   170     6     5    1
   171     6     7   ar
   172     9     7   ar
   173     5     2    1
   174   113   116    1
   175     2     1    1
   176     2     3    1
   177   116   117    1
   178     3     4    2
   179   117   118    1
   180   118   119    1
   181   121   120    1
   182   119   120    2
   183   120   122    1
