@<TRIPOS>MOLECULE
tmp/4avbB04.pdb
 87 84 0 0 0
SMALL
GASTEIGER

@<TRIPOS>ATOM
      1  N        -21.1480    3.0870   38.3120 N.3   175  ARG175     -0.1231
      2  CA       -21.3880    4.1930   37.3970 C.3   175  ARG175      0.1694
      3  C        -21.5830    3.7170   35.9540 C.2   175  ARG175      0.2591
      4  O        -22.3660    4.3030   35.2160 O.2   175  ARG175     -0.2718
      5  CB       -20.2570    5.2140   37.4810 C.3   175  ARG175      0.0321
      6  CG       -20.2760    6.0260   38.7800 C.3   175  ARG175      0.0489
      7  CD       -18.9660    6.7950   38.9610 C.3   175  ARG175      0.2205
      8  NE       -18.8000    7.8330   37.9480 N.pl3 175  ARG175     -0.0865
      9  CZ       -17.6390    8.4100   37.6390 C.cat 175  ARG175      0.5346
     10  NH1      -16.5270    8.0490   38.2640 N.pl3 175  ARG175      0.1354
     11  NH2      -17.5900    9.3430   36.6970 N.pl3 175  ARG175      0.1354
     12  N        -20.8180    2.7070   35.5470 N.am  176  ARG176     -0.1980
     13  CA       -20.9010    2.1950   34.1820 C.3   176  ARG176      0.1597
     14  C        -22.0670    1.2280   33.9500 C.2   176  ARG176      0.2287
     15  O        -22.7880    1.3200   32.9450 O.2   176  ARG176     -0.2864
     16  CB       -19.5640    1.5260   33.8190 C.3   176  ARG176      0.0334
     17  CG       -19.5390    0.7510   32.4970 C.3   176  ARG176      0.0492
     18  CD       -19.5960    1.6250   31.2510 C.3   176  ARG176      0.2205
     19  NE       -19.4630    0.7660   30.0720 N.pl3 176  ARG176     -0.0865
     20  CZ       -20.4770    0.1270   29.4870 C.cat 176  ARG176      0.5346
     21  NH1      -21.7210    0.2770   29.9350 N.pl3 176  ARG176      0.1354
     22  NH2      -20.2540   -0.6610   28.4400 N.pl3 176  ARG176      0.1354
     23  N        -24.5640    0.1330   36.4620 N.3   178  MET178     -0.1245
     24  CA       -25.6020    0.1190   37.5000 C.3   178  MET178      0.1570
     25  C        -25.4660   -1.0570   38.4740 C.2   178  MET178      0.2261
     26  O        -26.4350   -1.4300   39.1350 O.2   178  MET178     -0.2867
     27  CB       -26.9970    0.0530   36.8700 C.3   178  MET178      0.0387
     28  CG       -27.3010    1.1130   35.8350 C.3   178  MET178      0.0595
     29  SD       -27.4720    2.7540   36.5450 S.3   178  MET178     -0.1393
     30  CE       -25.7660    3.3020   36.5130 C.3   178  MET178      0.0692
     31  N        -26.2450    3.8220   20.5820 N.3   227  GLU227     -0.1231
     32  CA       -26.1080    4.1120   22.0060 C.3   227  GLU227      0.1699
     33  C        -24.6450    4.0340   22.4000 C.2   227  GLU227      0.2592
     34  O        -23.9410    3.1160   21.9890 O.2   227  GLU227     -0.2718
     35  CB       -26.9160    3.0910   22.8190 C.3   227  GLU227      0.0402
     36  CG       -26.8110    3.2450   24.3220 C.3   227  GLU227      0.1161
     37  CD       -28.0660    3.8380   24.9090 C.2   227  GLU227      0.3649
     38  OE1      -29.0760    3.9000   24.1770 O.co2 227  GLU227     -0.2457
     39  OE2      -28.0430    4.2450   26.0860 O.co2 227  GLU227     -0.2457
     40  N        -24.1770    4.9830   23.2080 N.am  228  ILE228     -0.1966
     41  CA       -22.7530    5.0070   23.5330 C.3   228  ILE228      0.1727
     42  C        -22.5020    4.7620   25.0120 C.2   228  ILE228      0.2616
     43  O        -23.3620    5.0310   25.8350 O.2   228  ILE228     -0.2715
     44  CB       -22.0780    6.3310   23.1000 C.3   228  ILE228      0.0290
     45  CG1      -22.6530    7.5270   23.8590 C.3   228  ILE228      0.0022
     46  CG2      -22.2250    6.5470   21.6010 C.3   228  ILE228      0.0023
     47  CD1      -21.9910    8.8490   23.4620 C.3   228  ILE228      0.0001
     48  N        -21.3180    4.2430   25.3320 N.am  229  ALA229     -0.1963
     49  CA       -20.8920    4.0580   26.7130 C.3   229  ALA229      0.1728
     50  C        -19.3680    4.1440   26.8380 C.2   229  ALA229      0.2616
     51  O        -18.6390    3.7880   25.9090 O.2   229  ALA229     -0.2715
     52  CB       -21.3930    2.7280   27.2490 C.3   229  ALA229      0.0334
     53  N        -18.9010    4.5810   28.0050 N.am  230  PHE230     -0.1974
     54  CA       -17.4770    4.8300   28.2570 C.3   230  PHE230      0.1639
     55  C        -17.0560    4.2540   29.6160 C.2   230  PHE230      0.2290
     56  O        -17.8220    4.3190   30.5770 O.2   230  PHE230     -0.2864
     57  CB       -17.2050    6.3430   28.2790 C.3   230  PHE230      0.0560
     58  CG       -17.5010    7.0440   26.9840 C.ar  230  PHE230     -0.0200
     59  CD1      -18.7720    7.5340   26.7200 C.ar  230  PHE230     -0.0042
     60  CD2      -16.5100    7.2100   26.0260 C.ar  230  PHE230     -0.0042
     61  CE1      -19.0540    8.1860   25.5290 C.ar  230  PHE230     -0.0003
     62  CE2      -16.7830    7.8520   24.8170 C.ar  230  PHE230     -0.0003
     63  CZ       -18.0600    8.3370   24.5660 C.ar  230  PHE230     -0.0000
     64  N        -27.3570    8.5460   24.8230 N.3   263  ALA263     -0.1231
     65  CA       -26.6470    8.2560   26.0610 C.3   263  ALA263      0.1694
     66  C        -27.6000    8.2880   27.2450 C.2   263  ALA263      0.2592
     67  O        -28.4780    9.1460   27.3150 O.2   263  ALA263     -0.2718
     68  CB       -25.5070    9.2600   26.2750 C.3   263  ALA263      0.0304
     69  N        -27.4310    7.3440   28.1660 N.am  264  ARG264     -0.1966
     70  CA       -28.1320    7.3990   29.4490 C.3   264  ARG264      0.1729
     71  C        -27.1520    7.2160   30.6020 C.2   264  ARG264      0.2616
     72  O        -26.1800    6.4840   30.4850 O.2   264  ARG264     -0.2715
     73  CB       -29.2510    6.3580   29.5120 C.3   264  ARG264      0.0348
     74  CG       -28.8020    4.9460   29.8010 C.3   264  ARG264      0.0492
     75  CD       -29.9960    4.0060   29.7300 C.3   264  ARG264      0.2205
     76  NE       -30.6850    4.1410   28.4510 N.pl3 264  ARG264     -0.0865
     77  CZ       -30.3880    3.4320   27.3670 C.cat 264  ARG264      0.5346
     78  NH1      -29.4180    2.5280   27.4120 N.pl3 264  ARG264      0.1354
     79  NH2      -31.0610    3.6240   26.2400 N.pl3 264  ARG264      0.1354
     80  N        -27.3980    7.9060   31.7100 N.am  265  MET265     -0.1977
     81  CA       -26.4500    7.9020   32.8140 C.3   265  MET265      0.1605
     82  C        -27.1240    8.2810   34.1240 C.2   265  MET265      0.2287
     83  O        -28.2200    8.8350   34.1270 O.2   265  MET265     -0.2864
     84  CB       -25.3030    8.8650   32.5190 C.3   265  MET265      0.0413
     85  CG       -25.7660   10.2970   32.3220 C.3   265  MET265      0.0598
     86  SD       -24.4730   11.3970   31.7030 S.3   265  MET265     -0.1393
     87  CE       -25.1830   12.9750   32.1390 C.3   265  MET265      0.0692
@<TRIPOS>BOND
     1    31    32    1
     2    46    44    1
     3    34    33    2
     4    32    33    1
     5    32    35    1
     6    33    40   am
     7    35    36    1
     8    44    41    1
     9    44    45    1
    10    40    41    1
    11    47    45    1
    12    41    42    1
    13    38    37   ar
    14    36    37    1
    15    63    62   ar
    16    63    61   ar
    17    62    60   ar
    18    64    65    1
    19    37    39   ar
    20    42    48   am
    21    42    43    2
    22    48    49    1
    23    61    59   ar
    24    51    50    2
    25    60    58   ar
    26    65    68    1
    27    65    66    1
    28    79    77    1
    29    49    50    1
    30    49    52    1
    31    59    58   ar
    32    50    53   am
    33    58    57    1
    34    66    67    2
    35    66    69   am
    36    77    78    1
    37    77    76    2
    38    53    54    1
    39    69    70    1
    40    54    57    1
    41    54    55    1
    42    22    20    1
    43    76    75    1
    44    70    73    1
    45    70    71    1
    46    20    21    1
    47    20    19    2
    48    73    74    1
    49    55    56    2
    50    75    74    1
    51    19    18    1
    52    72    71    2
    53    71    80   am
    54    18    17    1
    55    86    87    1
    56    86    85    1
    57    80    81    1
    58    85    84    1
    59    17    16    1
    60    84    81    1
    61    81    82    1
    62    15    14    2
    63    16    13    1
    64    14    13    1
    65    82    83    2
    66    13    12    1
    67     4     3    2
    68    12     3   am
    69    28    29    1
    70    28    27    1
    71     3     2    1
    72    23    24    1
    73    30    29    1
    74    11     9    1
    75    27    24    1
    76     2     5    1
    77     2     1    1
    78     5     6    1
    79    24    25    1
    80     9     8    2
    81     9    10    1
    82     8     7    1
    83    25    26    2
    84     6     7    1
