@<TRIPOS>MOLECULE
tmp/4avcA00.pdb
 143 136 0 0 0
SMALL
GASTEIGER

@<TRIPOS>ATOM
      1  N        -49.2910   49.9100   81.7300 N.3    40  LEU40      -0.1245
      2  CA       -48.1980   50.1680   80.7900 C.3    40  LEU40       0.1561
      3  C        -47.1260   49.0800   80.8420 C.2    40  LEU40       0.2260
      4  O        -47.1010   48.2730   81.7710 O.2    40  LEU40      -0.2867
      5  CB       -47.5730   51.5370   81.0570 C.3    40  LEU40       0.0270
      6  CG       -48.4500   52.7170   80.6470 C.3    40  LEU40       0.0019
      7  CD1      -47.9350   54.0320   81.2010 C.3    40  LEU40       0.0001
      8  CD2      -48.5400   52.7760   79.1410 C.3    40  LEU40       0.0001
      9  N        -44.5960   51.0870   89.9160 N.3    59  VAL59      -0.1245
     10  CA       -43.7200   51.3060   88.7760 C.3    59  VAL59       0.1561
     11  C        -42.5300   50.3620   88.8780 C.2    59  VAL59       0.2260
     12  O        -41.8220   50.3580   89.8770 O.2    59  VAL59      -0.2867
     13  CB       -43.1870   52.7510   88.7280 C.3    59  VAL59       0.0252
     14  CG1      -42.1950   52.9140   87.5790 C.3    59  VAL59       0.0019
     15  CG2      -44.3230   53.7250   88.5820 C.3    59  VAL59       0.0019
     16  N        -40.8360   51.9560   92.0510 N.3    71  ALA71      -0.1231
     17  CA       -41.3520   53.2030   92.5990 C.3    71  ALA71       0.1694
     18  C        -42.8790   53.1180   92.6460 C.2    71  ALA71       0.2592
     19  O        -43.4580   52.0780   92.3430 O.2    71  ALA71      -0.2718
     20  CB       -40.9140   54.3870   91.7510 C.3    71  ALA71       0.0304
     21  N        -43.5250   54.2070   93.0420 N.am   72  ARG72      -0.1966
     22  CA       -44.9740   54.2400   93.0960 C.3    72  ARG72       0.1729
     23  C        -45.4950   55.5000   92.4000 C.2    72  ARG72       0.2616
     24  O        -44.8480   56.5600   92.4080 O.2    72  ARG72      -0.2715
     25  CB       -45.4720   54.1750   94.5470 C.3    72  ARG72       0.0348
     26  CG       -44.9960   52.9540   95.3540 C.3    72  ARG72       0.0492
     27  CD       -46.0830   51.8800   95.5190 C.3    72  ARG72       0.2205
     28  NE       -45.5890   50.5650   95.0990 N.pl3  72  ARG72      -0.0865
     29  CZ       -45.7770   49.4140   95.7540 C.cat  72  ARG72       0.5346
     30  NH1      -46.4670   49.3750   96.8880 N.pl3  72  ARG72       0.1354
     31  NH2      -45.2670   48.2890   95.2670 N.pl3  72  ARG72       0.1354
     32  N        -46.6550   55.3570   91.7650 N.am   73  ALA73      -0.1977
     33  CA       -47.3690   56.4670   91.1580 C.3    73  ALA73       0.1597
     34  C        -48.6730   56.6500   91.9200 C.2    73  ALA73       0.2287
     35  O        -49.4040   55.6920   92.1660 O.2    73  ALA73      -0.2864
     36  CB       -47.6280   56.1980   89.6850 C.3    73  ALA73       0.0319
     37  N        -48.6510   59.7690   84.5350 N.3    78  VAL78      -0.1231
     38  CA       -47.7700   58.6590   84.2060 C.3    78  VAL78       0.1692
     39  C        -47.9020   58.3530   82.7090 C.2    78  VAL78       0.2593
     40  O        -48.9740   58.5110   82.1360 O.2    78  VAL78      -0.2718
     41  CB       -48.1050   57.4330   85.0420 C.3    78  VAL78       0.0266
     42  CG1      -49.4580   56.8880   84.6370 C.3    78  VAL78       0.0020
     43  CG2      -47.0220   56.3800   84.8820 C.3    78  VAL78       0.0020
     44  N        -46.8190   57.9170   82.0760 N.am   79  GLY79      -0.1942
     45  CA       -46.7970   57.7840   80.6320 C.3    79  GLY79       0.2014
     46  C        -46.2810   59.0360   79.9350 C.2    79  GLY79       0.2639
     47  O        -46.1430   59.0580   78.7140 O.2    79  GLY79      -0.2714
     48  N        -45.9810   60.0850   80.6970 N.am   80  GLU80      -0.1963
     49  CA       -45.5280   61.3400   80.0930 C.3    80  GLU80       0.1733
     50  C        -44.1330   61.2420   79.5130 C.2    80  GLU80       0.2616
     51  O        -43.8220   61.8990   78.5280 O.2    80  GLU80      -0.2715
     52  CB       -45.5590   62.4990   81.0870 C.3    80  GLU80       0.0429
     53  CG       -44.3850   62.5260   82.0190 C.3    80  GLU80       0.1163
     54  CD       -44.4510   61.4110   83.0380 C.2    80  GLU80       0.3649
     55  OE1      -45.5110   60.7640   83.1360 O.co2  80  GLU80      -0.2457
     56  OE2      -43.4560   61.1900   83.7530 O.co2  80  GLU80      -0.2457
     57  N        -43.2990   60.4150   80.1270 N.am   81  ILE81      -0.1963
     58  CA       -41.8770   60.4010   79.8060 C.3    81  ILE81       0.1727
     59  C        -41.5950   59.8900   78.4060 C.2    81  ILE81       0.2616
     60  O        -40.8270   60.4980   77.6610 O.2    81  ILE81      -0.2715
     61  CB       -41.0800   59.5640   80.8170 C.3    81  ILE81       0.0290
     62  CG1      -41.5450   59.8750   82.2380 C.3    81  ILE81       0.0022
     63  CG2      -39.5950   59.8190   80.6540 C.3    81  ILE81       0.0023
     64  CD1      -40.6730   59.2870   83.2930 C.3    81  ILE81       0.0001
     65  N        -42.2040   58.7660   78.0540 N.am   82  ALA82      -0.1977
     66  CA       -41.9930   58.1850   76.7340 C.3    82  ALA82       0.1597
     67  C        -42.4930   59.1530   75.6670 C.2    82  ALA82       0.2287
     68  O        -41.9090   59.2590   74.5890 O.2    82  ALA82      -0.2864
     69  CB       -42.6930   56.8460   76.6250 C.3    82  ALA82       0.0319
     70  N        -39.7490   61.9400   75.3720 N.3    85  ARG85      -0.1245
     71  CA       -38.5400   61.5770   74.6490 C.3    85  ARG85       0.1563
     72  C        -38.8750   61.0110   73.2890 C.2    85  ARG85       0.2260
     73  O        -37.9810   60.7420   72.4910 O.2    85  ARG85      -0.2867
     74  CB       -37.7440   60.5220   75.4240 C.3    85  ARG85       0.0307
     75  CG       -37.1630   60.9820   76.7470 C.3    85  ARG85       0.0489
     76  CD       -36.2890   59.8980   77.3570 C.3    85  ARG85       0.2205
     77  NE       -37.0190   58.6440   77.5280 N.pl3  85  ARG85      -0.0865
     78  CZ       -36.5960   57.6150   78.2610 C.cat  85  ARG85       0.5346
     79  NH1      -35.4380   57.6800   78.9060 N.pl3  85  ARG85       0.1354
     80  NH2      -37.3360   56.5180   78.3580 N.pl3  85  ARG85       0.1354
     81  N        -39.6250   54.4610   73.9310 N.3    88  PRO88      -0.2102
     82  CA       -40.4360   53.4220   74.5720 C.3    88  PRO88       0.1504
     83  C        -40.7450   53.7390   76.0330 C.2    88  PRO88       0.2576
     84  O        -40.1050   54.6140   76.6240 O.2    88  PRO88      -0.2718
     85  CB       -39.5390   52.1770   74.4890 C.3    88  PRO88       0.0282
     86  CG       -38.5360   52.4760   73.4370 C.3    88  PRO88       0.0208
     87  CD       -38.3080   53.9490   73.5170 C.3    88  PRO88       0.0893
     88  N        -41.7260   53.0370   76.5990 N.am   89  ARG89      -0.1966
     89  CA       -42.0430   53.1190   78.0270 C.3    89  ARG89       0.1729
     90  C        -40.8020   52.8640   78.8780 C.2    89  ARG89       0.2617
     91  O        -40.0820   51.8980   78.6660 O.2    89  ARG89      -0.2715
     92  CB       -43.1210   52.0930   78.3860 C.3    89  ARG89       0.0348
     93  CG       -44.5690   52.6010   78.3800 C.3    89  ARG89       0.0492
     94  CD       -44.9000   53.4100   77.1500 C.3    89  ARG89       0.2205
     95  NE       -45.3850   54.7410   77.5130 N.pl3  89  ARG89      -0.0865
     96  CZ       -46.6220   55.1850   77.3030 C.cat  89  ARG89       0.5346
     97  NH1      -47.5360   54.4190   76.7090 N.pl3  89  ARG89       0.1354
     98  NH2      -46.9420   56.4130   77.6770 N.pl3  89  ARG89       0.1354
     99  N        -40.5470   53.7350   79.8440 N.am   90  SER90      -0.1936
    100  CA       -39.3630   53.5940   80.6880 C.3    90  SER90       0.2055
    101  C        -39.5470   52.4680   81.6960 C.2    90  SER90       0.2642
    102  O        -38.5820   51.9680   82.2790 O.2    90  SER90      -0.2714
    103  CB       -39.0660   54.9050   81.4260 C.3    90  SER90       0.2130
    104  OG       -40.1000   55.2350   82.3410 O.3    90  SER90      -0.2179
    105  N        -40.7960   52.0830   81.9120 N.am   91  ALA91      -0.1977
    106  CA       -41.1120   51.1840   83.0030 C.3    91  ALA91       0.1597
    107  C        -42.4130   50.4660   82.7420 C.2    91  ALA91       0.2287
    108  O        -43.1570   50.8280   81.8370 O.2    91  ALA91      -0.2864
    109  CB       -41.1860   51.9530   84.3080 C.3    91  ALA91       0.0319
    110  N        -46.0510   49.7360   84.5030 N.3    93  VAL93      -0.1245
    111  CA       -46.8890   50.3220   85.5350 C.3    93  VAL93       0.1561
    112  C        -48.1180   49.4610   85.8160 C.2    93  VAL93       0.2260
    113  O        -48.9270   49.1770   84.9230 O.2    93  VAL93      -0.2867
    114  CB       -47.3470   51.7300   85.1690 C.3    93  VAL93       0.0252
    115  CG1      -48.2250   52.2730   86.2780 C.3    93  VAL93       0.0019
    116  CG2      -46.1460   52.6440   84.9140 C.3    93  VAL93       0.0019
    117  N        -37.5230   61.4130   87.7810 N.3   128  ARG128     -0.1245
    118  CA       -37.9060   60.0000   87.8560 C.3   128  ARG128      0.1563
    119  C        -36.8750   59.0980   87.1890 C.2   128  ARG128      0.2260
    120  O        -36.5820   58.0000   87.6690 O.2   128  ARG128     -0.2867
    121  CB       -39.2740   59.7580   87.2130 C.3   128  ARG128      0.0307
    122  CG       -40.4500   60.3690   87.9380 C.3   128  ARG128      0.0489
    123  CD       -41.7130   60.2280   87.1200 C.3   128  ARG128      0.2205
    124  NE       -42.8970   60.6000   87.8910 N.pl3 128  ARG128     -0.0865
    125  CZ       -44.1350   60.6560   87.3970 C.cat 128  ARG128      0.5346
    126  NH1      -44.3700   60.3760   86.1210 N.pl3 128  ARG128      0.1354
    127  NH2      -45.1440   61.0010   88.1790 N.pl3 128  ARG128      0.1354
    128  N        -33.6960   57.4590   88.9970 N.3   131  ALA131     -0.1231
    129  CA       -33.7820   56.2220   89.7640 C.3   131  ALA131      0.1694
    130  C        -33.3000   55.0230   88.9620 C.2   131  ALA131      0.2592
    131  O        -32.9680   53.9900   89.5310 O.2   131  ALA131     -0.2718
    132  CB       -35.2040   55.9870   90.2230 C.3   131  ALA131      0.0304
    133  N        -33.2990   55.1430   87.6410 N.am  132  PHE132     -0.1976
    134  CA       -32.9640   54.0000   86.8000 C.3   132  PHE132      0.1639
    135  C        -31.5020   54.0100   86.4030 C.2   132  PHE132      0.2290
    136  O        -31.0030   53.0740   85.7720 O.2   132  PHE132     -0.2864
    137  CB       -33.8600   53.9580   85.5630 C.3   132  PHE132      0.0560
    138  CG       -35.3190   53.9450   85.8870 C.ar  132  PHE132     -0.0200
    139  CD1      -35.7670   53.4000   87.0750 C.ar  132  PHE132     -0.0042
    140  CD2      -36.2420   54.4980   85.0160 C.ar  132  PHE132     -0.0042
    141  CE1      -37.1090   53.3970   87.3890 C.ar  132  PHE132     -0.0003
    142  CE2      -37.5860   54.4970   85.3210 C.ar  132  PHE132     -0.0003
    143  CZ       -38.0210   53.9460   86.5090 C.ar  132  PHE132     -0.0000
@<TRIPOS>BOND
     1    73    72    2
     2    72    71    1
     3    86    87    1
     4    86    85    1
     5    87    81    1
     6    81    82    1
     7    85    82    1
     8    82    83    1
     9    68    67    2
    10    71    70    1
    11    71    74    1
    12    74    75    1
    13    67    66    1
    14    83    88   am
    15    83    84    2
    16    88    89    1
    17    69    66    1
    18    97    96    1
    19    66    65    1
    20    75    76    1
    21    94    95    1
    22    94    93    1
    23    96    95    2
    24    96    98    1
    25    76    77    1
    26    77    78    2
    27    60    59    2
    28    89    92    1
    29    89    90    1
    30    65    59   am
    31    78    80    1
    32    78    79    1
    33    93    92    1
    34    59    58    1
    35    51    50    2
    36    91    90    2
    37    47    46    2
    38    90    99   am
    39     8     6    1
    40    50    49    1
    41    50    57   am
    42    58    57    1
    43    58    61    1
    44    99   100    1
    45    46    45    1
    46    46    48   am
    47    49    48    1
    48    49    52    1
    49    45    44    1
    50     6     5    1
    51     6     7    1
    52    63    61    1
    53   100   103    1
    54   100   101    1
    55     2     3    1
    56     2     5    1
    57     2     1    1
    58    61    62    1
    59     3     4    2
    60    52    53    1
    61   103   104    1
    62   101   105   am
    63   101   102    2
    64   108   107    2
    65   105   106    1
    66    53    54    1
    67    44    39   am
    68    40    39    2
    69    62    64    1
    70    39    38    1
    71   107   106    1
    72   106   109    1
    73    54    55   ar
    74    54    56   ar
    75    38    37    1
    76    38    41    1
    77   110   111    1
    78    42    41    1
    79    43    41    1
    80   116   114    1
    81   113   112    2
    82   140   142   ar
    83   140   138   ar
    84   114   111    1
    85   114   115    1
    86   142   143   ar
    87   111   112    1
    88   137   138    1
    89   137   134    1
    90   136   135    2
    91   138   139   ar
    92   126   125    1
    93   135   134    1
    94   143   141   ar
    95   134   133    1
    96   139   141   ar
    97   123   124    1
    98   123   122    1
    99   119   120    2
   100   119   118    1
   101   121   118    1
   102   121   122    1
   103   125   124    2
   104   125   127    1
   105    14    13    1
   106   133   130   am
   107   117   118    1
   108    15    13    1
   109    13    10    1
   110    10    11    1
   111    10     9    1
   112    11    12    2
   113   130   131    2
   114   130   129    1
   115   128   129    1
   116    36    33    1
   117   129   132    1
   118    33    32    1
   119    33    34    1
   120    20    17    1
   121    32    23   am
   122    34    35    2
   123    16    17    1
   124    19    18    2
   125    23    24    2
   126    23    22    1
   127    17    18    1
   128    18    21   am
   129    21    22    1
   130    22    25    1
   131    25    26    1
   132    28    27    1
   133    28    29    2
   134    31    29    1
   135    26    27    1
   136    29    30    1
