@<TRIPOS>MOLECULE
tmp/4avcB03.pdb
 86 83 0 0 0
SMALL
GASTEIGER

@<TRIPOS>ATOM
      1  N        -14.6370   35.4130   53.3850 N.3   158  THR158     -0.1203
      2  CA       -15.7020   35.8770   52.5040 C.3   158  THR158      0.1994
      3  C        -15.1360   36.1650   51.1230 C.2   158  THR158      0.2617
      4  O        -15.7990   35.9390   50.1050 O.2   158  THR158     -0.2717
      5  CB       -16.4950   37.0950   53.0560 C.3   158  THR158      0.1784
      6  OG1      -15.7650   38.2970   52.8170 O.3   158  THR158     -0.2211
      7  CG2      -16.7660   36.9490   54.5490 C.3   158  THR158      0.0376
      8  N        -13.8930   36.6310   51.0910 N.am  159  VAL159     -0.1979
      9  CA       -13.2940   37.0120   49.8290 C.3   159  VAL159      0.1595
     10  C        -13.1520   35.7980   48.9260 C.2   159  VAL159      0.2287
     11  O        -13.6210   35.8050   47.7900 O.2   159  VAL159     -0.2864
     12  CB       -11.9210   37.6690   50.0170 C.3   159  VAL159      0.0276
     13  CG1      -11.2080   37.7560   48.6920 C.3   159  VAL159      0.0022
     14  CG2      -12.0680   39.0470   50.6410 C.3   159  VAL159      0.0022
     15  N        -14.2650   32.7200   49.4350 N.3   161  GLY161     -0.1210
     16  CA       -15.2910   31.7130   49.6560 C.3   161  GLY161      0.1956
     17  C        -16.3280   31.5670   48.5570 C.2   161  GLY161      0.2612
     18  O        -16.2830   32.2640   47.5420 O.2   161  GLY161     -0.2717
     19  N        -17.2670   30.6470   48.7590 N.am  162  HIS162     -0.1961
     20  CA       -18.2610   30.3260   47.7350 C.3   162  HIS162      0.1787
     21  C        -19.6030   31.0550   47.8770 C.2   162  HIS162      0.2620
     22  O        -20.4640   30.9300   47.0060 O.2   162  HIS162     -0.2715
     23  CB       -18.5050   28.8150   47.7080 C.3   162  HIS162      0.0785
     24  CG       -19.0530   28.2740   48.9950 C.ar  162  HIS162      0.0821
     25  ND1      -20.3870   27.9810   49.1700 N.ar  162  HIS162     -0.2267
     26  CD2      -18.4440   27.9940   50.1730 C.ar  162  HIS162      0.1154
     27  CE1      -20.5790   27.5320   50.4010 C.ar  162  HIS162      0.1986
     28  NE2      -19.4180   27.5310   51.0290 N.ar  162  HIS162     -0.2212
     29  N        -19.7780   31.8260   48.9490 N.am  163  ILE163     -0.1963
     30  CA       -21.0380   32.5390   49.1820 C.3   163  ILE163      0.1727
     31  C        -21.0520   33.8930   48.4730 C.2   163  ILE163      0.2616
     32  O        -20.0740   34.6440   48.5280 O.2   163  ILE163     -0.2715
     33  CB       -21.3200   32.7430   50.6870 C.3   163  ILE163      0.0290
     34  CG1      -21.2880   31.4070   51.4160 C.3   163  ILE163      0.0022
     35  CG2      -22.6690   33.4350   50.9020 C.3   163  ILE163      0.0023
     36  CD1      -22.2610   30.4090   50.8630 C.3   163  ILE163      0.0001
     37  N        -22.1670   34.2130   47.8230 N.am  164  GLN164     -0.1963
     38  CA       -22.1960   35.3720   46.9360 C.3   164  GLN164      0.1733
     39  C        -22.9110   36.6190   47.4680 C.2   164  GLN164      0.2616
     40  O        -24.0530   36.5490   47.9420 O.2   164  GLN164     -0.2715
     41  CB       -22.7670   34.9790   45.5760 C.3   164  GLN164      0.0408
     42  CG       -21.8920   34.0000   44.8110 C.3   164  GLN164      0.0908
     43  CD       -22.2390   33.9460   43.3360 C.2   164  GLN164      0.2608
     44  OE1      -23.3670   34.2460   42.9430 O.2   164  GLN164     -0.2717
     45  NE2      -21.2680   33.5700   42.5090 N.am  164  GLN164     -0.0878
     46  N        -22.2090   37.7530   47.3900 N.am  165  PHE165     -0.1960
     47  CA       -22.7780   39.0620   47.6850 C.3   165  PHE165      0.1771
     48  C        -22.8040   39.8350   46.3680 C.2   165  PHE165      0.2620
     49  O        -21.7570   40.1500   45.8010 O.2   165  PHE165     -0.2715
     50  CB       -21.9580   39.7810   48.7590 C.3   165  PHE165      0.0574
     51  CG       -21.9180   39.0490   50.0870 C.ar  165  PHE165     -0.0200
     52  CD1      -20.9840   38.0430   50.3170 C.ar  165  PHE165     -0.0042
     53  CD2      -22.8250   39.3530   51.0930 C.ar  165  PHE165     -0.0042
     54  CE1      -20.9500   37.3590   51.5210 C.ar  165  PHE165     -0.0003
     55  CE2      -22.8010   38.6750   52.2970 C.ar  165  PHE165     -0.0003
     56  CZ       -21.8550   37.6730   52.5130 C.ar  165  PHE165     -0.0000
     57  N        -24.0130   40.1370   45.8940 N.am  166  SER166     -0.1936
     58  CA       -24.2680   40.4110   44.4780 C.3   166  SER166      0.2055
     59  C        -23.5270   41.5900   43.8540 C.2   166  SER166      0.2643
     60  O        -23.1110   41.5190   42.6980 O.2   166  SER166     -0.2714
     61  CB       -25.7670   40.5840   44.2380 C.3   166  SER166      0.2130
     62  OG       -26.1750   41.9010   44.5480 O.3   166  SER166     -0.2179
     63  N        -23.3570   42.6640   44.6120 N.am  167  GLY167     -0.1954
     64  CA       -22.8560   43.9020   44.0480 C.3   167  GLY167      0.1869
     65  C        -24.0220   44.8510   43.8850 C.2   167  GLY167      0.2309
     66  O        -23.8530   46.0670   43.8340 O.2   167  GLY167     -0.2863
     67  N        -23.8460   44.8570   47.4530 N.3   170  LEU170     -0.1245
     68  CA       -22.7290   45.7440   47.7660 C.3   170  LEU170      0.1561
     69  C        -23.0830   47.2180   47.6400 C.2   170  LEU170      0.2260
     70  O        -22.5950   48.0340   48.4120 O.2   170  LEU170     -0.2867
     71  CB       -21.5140   45.4220   46.8990 C.3   170  LEU170      0.0270
     72  CG       -20.8620   44.0890   47.2510 C.3   170  LEU170      0.0019
     73  CD1      -19.8070   43.7390   46.2330 C.3   170  LEU170      0.0001
     74  CD2      -20.2720   44.1540   48.6400 C.3   170  LEU170      0.0001
     75  N        -21.3980   49.4100   43.9250 N.3   176  ALA176     -0.1245
     76  CA       -21.5570   48.0610   43.4110 C.3   176  ALA176      0.1562
     77  C        -20.2230   47.3190   43.3450 C.2   176  ALA176      0.2260
     78  O        -20.1940   46.0960   43.1890 O.2   176  ALA176     -0.2867
     79  CB       -22.2100   48.0990   42.0420 C.3   176  ALA176      0.0290
     80  N        -16.6250   45.5800   44.3170 N.3   178  VAL178     -0.1245
     81  CA       -16.1200   44.7340   45.3890 C.3   178  VAL178      0.1561
     82  C        -15.1250   45.5350   46.2350 C.2   178  VAL178      0.2260
     83  O        -14.2660   46.2350   45.6940 O.2   178  VAL178     -0.2867
     84  CB       -15.4750   43.4460   44.8230 C.3   178  VAL178      0.0252
     85  CG1      -14.5290   43.7770   43.6820 C.3   178  VAL178      0.0019
     86  CG2      -14.7660   42.6780   45.9100 C.3   178  VAL178      0.0019
@<TRIPOS>BOND
     1    79    76    1
     2    45    43   am
     3    60    59    2
     4    44    43    2
     5    78    77    2
     6    43    42    1
     7    77    76    1
     8    76    75    1
     9    85    84    1
    10    66    65    2
    11    59    58    1
    12    59    63   am
    13    65    64    1
    14    64    63    1
    15    61    58    1
    16    61    62    1
    17    80    81    1
    18    58    57    1
    19    42    41    1
    20    84    81    1
    21    84    86    1
    22    81    82    1
    23    41    38    1
    24    83    82    2
    25    49    48    2
    26    57    48   am
    27    73    72    1
    28    48    47    1
    29    71    72    1
    30    71    68    1
    31    38    39    1
    32    38    37    1
    33    22    21    2
    34    72    74    1
    35    46    39   am
    36    46    47    1
    37    67    68    1
    38    39    40    2
    39    18    17    2
    40    69    68    1
    41    69    70    2
    42    47    50    1
    43    23    20    1
    44    23    24    1
    45    20    21    1
    46    20    19    1
    47    11    10    2
    48    37    31   am
    49    21    29   am
    50    31    32    2
    51    31    30    1
    52    17    19   am
    53    17    16    1
    54    13    12    1
    55    50    51    1
    56    10     9    1
    57    29    30    1
    58    24    25   ar
    59    24    26   ar
    60    25    27   ar
    61    30    33    1
    62    15    16    1
    63     9    12    1
    64     9     8    1
    65    12    14    1
    66    51    52   ar
    67    51    53   ar
    68     4     3    2
    69    26    28   ar
    70    52    54   ar
    71    27    28   ar
    72    33    35    1
    73    33    34    1
    74    36    34    1
    75     8     3   am
    76    53    55   ar
    77     3     2    1
    78    54    56   ar
    79    55    56   ar
    80     2     5    1
    81     2     1    1
    82     6     5    1
    83     5     7    1
