@<TRIPOS>MOLECULE
tmp/4avcA02.pdb
 85 79 0 0 0
SMALL
GASTEIGER

@<TRIPOS>ATOM
      1  N        -50.9400   67.5740   90.4170 N.3    11  ASP11      -0.1225
      2  CA       -49.7420   68.3310   90.7680 C.3    11  ASP11       0.1805
      3  C        -49.2460   69.2360   89.6260 C.2    11  ASP11       0.2597
      4  O        -48.9370   70.4080   89.8420 O.2    11  ASP11      -0.2718
      5  CB       -48.6190   67.3630   91.1830 C.3    11  ASP11       0.1424
      6  CG       -49.0990   66.2630   92.1410 C.2    11  ASP11       0.3668
      7  OD1      -50.1560   66.4410   92.7870 O.co2  11  ASP11      -0.2456
      8  OD2      -48.4150   65.2150   92.2480 O.co2  11  ASP11      -0.2456
      9  N        -49.1930   68.6960   88.4110 N.am   12  VAL12      -0.1980
     10  CA       -48.6560   69.4220   87.2540 C.3    12  VAL12       0.1595
     11  C        -49.4390   70.6920   86.8790 C.2    12  VAL12       0.2287
     12  O        -48.9200   71.5670   86.1830 O.2    12  VAL12      -0.2864
     13  CB       -48.5700   68.5000   86.0080 C.3    12  VAL12       0.0276
     14  CG1      -49.8970   68.4950   85.2320 C.3    12  VAL12       0.0022
     15  CG2      -47.4100   68.9260   85.1090 C.3    12  VAL12       0.0022
     16  N        -49.1330   62.4520   86.9030 N.3    77  ILE77      -0.1245
     17  CA       -49.1790   61.8930   85.5650 C.3    77  ILE77       0.1561
     18  C        -48.3870   60.5950   85.5370 C.2    77  ILE77       0.2260
     19  O        -47.5900   60.3260   86.4280 O.2    77  ILE77      -0.2867
     20  CB       -48.6100   62.8690   84.4990 C.3    77  ILE77       0.0252
     21  CG1      -49.1290   62.5040   83.0940 C.3    77  ILE77       0.0019
     22  CG2      -47.0920   62.8960   84.5430 C.3    77  ILE77       0.0019
     23  CD1      -48.8790   63.5570   82.0140 C.3    77  ILE77       0.0001
     24  N        -45.9810   60.0850   80.6970 N.3    80  GLU80      -0.1245
     25  CA       -45.5280   61.3400   80.0930 C.3    80  GLU80       0.1567
     26  C        -44.1330   61.2420   79.5130 C.2    80  GLU80       0.2260
     27  O        -43.8220   61.8990   78.5280 O.2    80  GLU80      -0.2867
     28  CB       -45.5590   62.4990   81.0870 C.3    80  GLU80       0.0388
     29  CG       -44.3850   62.5260   82.0190 C.3    80  GLU80       0.1160
     30  CD       -44.4510   61.4110   83.0380 C.2    80  GLU80       0.3649
     31  OE1      -45.5110   60.7640   83.1360 O.co2  80  GLU80      -0.2457
     32  OE2      -43.4560   61.1900   83.7530 O.co2  80  GLU80      -0.2457
     33  N        -42.6100   71.6780   83.9710 N.3   120  ARG120     -0.1231
     34  CA       -42.8370   70.8110   85.1190 C.3   120  ARG120      0.1694
     35  C        -42.6110   69.3780   84.6890 C.2   120  ARG120      0.2591
     36  O        -41.8300   68.6470   85.3070 O.2   120  ARG120     -0.2718
     37  CB       -44.2560   70.9740   85.6570 C.3   120  ARG120      0.0321
     38  CG       -44.6100   72.4120   85.9610 C.3   120  ARG120      0.0489
     39  CD       -45.8730   72.5560   86.7870 C.3   120  ARG120      0.2205
     40  NE       -45.7650   73.7220   87.6630 N.pl3 120  ARG120     -0.0865
     41  CZ       -46.7450   74.2000   88.4280 C.cat 120  ARG120      0.5346
     42  NH1      -47.9390   73.6220   88.4320 N.pl3 120  ARG120      0.1354
     43  NH2      -46.5250   75.2650   89.1900 N.pl3 120  ARG120      0.1354
     44  N        -43.2800   68.9940   83.6050 N.am  121  LEU121     -0.1980
     45  CA       -43.1920   67.6390   83.0720 C.3   121  LEU121      0.1596
     46  C        -41.7560   67.1860   82.8470 C.2   121  LEU121      0.2287
     47  O        -41.4080   66.0600   83.1760 O.2   121  LEU121     -0.2864
     48  CB       -43.9910   67.5110   81.7720 C.3   121  LEU121      0.0297
     49  CG       -45.5210   67.4550   81.8550 C.3   121  LEU121      0.0022
     50  CD1      -46.1450   67.6490   80.4760 C.3   121  LEU121      0.0001
     51  CD2      -45.9810   66.1450   82.4750 C.3   121  LEU121      0.0001
     52  N        -38.9180   68.5020   84.2430 N.3   123  ARG123     -0.1231
     53  CA       -38.2650   68.4410   85.5360 C.3   123  ARG123      0.1694
     54  C        -38.5490   67.0850   86.1610 C.2   123  ARG123      0.2593
     55  O        -37.6470   66.2590   86.3410 O.2   123  ARG123     -0.2718
     56  CB       -38.7770   69.5610   86.4430 C.3   123  ARG123      0.0321
     57  CG       -37.9200   69.7890   87.6680 C.3   123  ARG123      0.0489
     58  CD       -38.7210   70.3770   88.8120 C.3   123  ARG123      0.2205
     59  NE       -39.9270   69.6000   89.0810 N.pl3 123  ARG123     -0.0865
     60  CZ       -41.1640   70.0630   88.9120 C.cat 123  ARG123      0.5346
     61  NH1      -41.3580   71.3090   88.4850 N.pl3 123  ARG123      0.1354
     62  NH2      -42.2080   69.2860   89.1780 N.pl3 123  ARG123      0.1354
     63  N        -39.8220   66.8560   86.4650 N.am  124  THR124     -0.1939
     64  CA       -40.2600   65.6150   87.0910 C.3   124  THR124      0.2028
     65  C        -39.8320   64.3760   86.3180 C.2   124  THR124      0.2642
     66  O        -39.5340   63.3310   86.9010 O.2   124  THR124     -0.2714
     67  CB       -41.7690   65.5910   87.2150 C.3   124  THR124      0.1808
     68  OG1      -42.1890   66.7110   88.0050 O.3   124  THR124     -0.2208
     69  CG2      -42.2370   64.2870   87.8600 C.3   124  THR124      0.0379
     70  N        -39.8170   64.4880   84.9980 N.am  125  ALA125     -0.1977
     71  CA       -39.4210   63.3590   84.1770 C.3   125  ALA125      0.1597
     72  C        -37.9970   62.9500   84.5340 C.2   125  ALA125      0.2287
     73  O        -37.7500   61.8150   84.9390 O.2   125  ALA125     -0.2864
     74  CB       -39.5330   63.6950   82.6950 C.3   125  ALA125      0.0319
     75  N        -37.5230   61.4130   87.7810 N.3   128  ARG128     -0.1245
     76  CA       -37.9060   60.0000   87.8560 C.3   128  ARG128      0.1563
     77  C        -36.8750   59.0980   87.1890 C.2   128  ARG128      0.2260
     78  O        -36.5820   58.0000   87.6690 O.2   128  ARG128     -0.2867
     79  CB       -39.2740   59.7580   87.2130 C.3   128  ARG128      0.0307
     80  CG       -40.4500   60.3690   87.9380 C.3   128  ARG128      0.0489
     81  CD       -41.7130   60.2280   87.1200 C.3   128  ARG128      0.2205
     82  NE       -42.8970   60.6000   87.8910 N.pl3 128  ARG128     -0.0865
     83  CZ       -44.1350   60.6560   87.3970 C.cat 128  ARG128      0.5346
     84  NH1      -44.3700   60.3760   86.1210 N.pl3 128  ARG128      0.1354
     85  NH2      -45.1440   61.0010   88.1790 N.pl3 128  ARG128      0.1354
@<TRIPOS>BOND
     1    27    26    2
     2    26    25    1
     3    25    24    1
     4    25    28    1
     5    50    49    1
     6    28    29    1
     7    48    49    1
     8    48    45    1
     9    49    51    1
    10    23    21    1
    11    29    30    1
    12    74    71    1
    13    46    45    1
    14    46    47    2
    15    30    31   ar
    16    30    32   ar
    17    45    44    1
    18    21    20    1
    19    44    35   am
    20    33    34    1
    21    71    72    1
    22    71    70    1
    23    52    53    1
    24    20    22    1
    25    20    17    1
    26    72    73    2
    27    35    34    1
    28    35    36    2
    29    70    65   am
    30    15    13    1
    31    34    37    1
    32    14    13    1
    33    53    54    1
    34    53    56    1
    35    18    17    1
    36    18    19    2
    37    17    16    1
    38    37    38    1
    39    38    39    1
    40    13    10    1
    41    84    83    1
    42    54    55    2
    43    54    63   am
    44    12    11    2
    45    65    66    2
    46    65    64    1
    47    56    57    1
    48    63    64    1
    49    39    40    1
    50    11    10    1
    51    64    67    1
    52    81    82    1
    53    81    80    1
    54    77    78    2
    55    77    76    1
    56    79    76    1
    57    79    80    1
    58    67    69    1
    59    67    68    1
    60    10     9    1
    61    83    82    2
    62    83    85    1
    63    40    41    2
    64    57    58    1
    65    75    76    1
    66     9     3   am
    67    41    42    1
    68    41    43    1
    69    61    60    1
    70    58    59    1
    71    60    59    2
    72    60    62    1
    73     3     4    2
    74     3     2    1
    75     1     2    1
    76     2     5    1
    77     5     6    1
    78     6     8   ar
    79     6     7   ar
