@<TRIPOS>MOLECULE
tmp/4avgD00.pdb
 166 158 0 0 0
SMALL
GASTEIGER

@<TRIPOS>ATOM
      1  N         18.9820   26.3650   25.5880 N.3    21  ALA21      -0.1245
      2  CA        19.2350   24.9950   26.0700 C.3    21  ALA21       0.1562
      3  C         20.4940   24.9910   26.9180 C.2    21  ALA21       0.2260
      4  O         20.5750   24.3420   27.9590 O.2    21  ALA21      -0.2867
      5  CB        19.4230   23.9940   24.9070 C.3    21  ALA21       0.0290
      6  N         21.0180   23.9900   30.8990 N.3    25  TYR25      -0.1241
      7  CA        21.9920   23.0210   31.3730 C.3    25  TYR25       0.1605
      8  C         23.1910   23.6580   32.0290 C.2    25  TYR25       0.2264
      9  O         24.1420   22.9700   32.3270 O.2    25  TYR25      -0.2867
     10  CB        22.4440   22.1690   30.1920 C.3    25  TYR25       0.0534
     11  CG        21.3330   21.2380   29.7820 C.ar   25  TYR25      -0.0201
     12  CD1       21.1120   20.0420   30.4760 C.ar   25  TYR25      -0.0009
     13  CD2       20.4700   21.5680   28.7620 C.ar   25  TYR25      -0.0009
     14  CE1       20.0650   19.1910   30.1330 C.ar   25  TYR25       0.0417
     15  CE2       19.4170   20.7470   28.4070 C.ar   25  TYR25       0.0417
     16  CZ        19.2200   19.5490   29.0880 C.ar   25  TYR25       0.1957
     17  OH        18.1770   18.7230   28.7140 O.3    25  TYR25      -0.2866
     18  N         25.5000   25.6890   30.8230 N.3    27  GLU27      -0.1245
     19  CA        26.6920   25.8420   30.0470 C.3    27  GLU27       0.1567
     20  C         26.6130   27.2130   29.4300 C.2    27  GLU27       0.2260
     21  O         25.5210   27.7870   29.3200 O.2    27  GLU27      -0.2867
     22  CB        26.7800   24.7220   29.0180 C.3    27  GLU27       0.0388
     23  CG        26.7520   23.3520   29.6890 C.3    27  GLU27       0.1160
     24  CD        26.4840   22.1970   28.7380 C.2    27  GLU27       0.3649
     25  OE1       25.6690   22.3710   27.7860 O.co2  27  GLU27      -0.2457
     26  OE2       27.0770   21.0980   28.9590 O.co2  27  GLU27      -0.2457
     27  N         30.2320   22.8480   21.7660 N.3    35  LYS35      -0.1245
     28  CA        28.9860   22.3060   22.2160 C.3    35  LYS35       0.1561
     29  C         27.8000   23.1630   21.7200 C.2    35  LYS35       0.2260
     30  O         26.7370   22.6430   21.3810 O.2    35  LYS35      -0.2867
     31  CB        29.0390   22.2480   23.7340 C.3    35  LYS35       0.0271
     32  CG        28.1080   21.2740   24.3880 C.3    35  LYS35       0.0035
     33  CD        28.2440   21.3270   25.9290 C.3    35  LYS35       0.0206
     34  CE        29.4300   20.5320   26.4690 C.3    35  LYS35       0.1093
     35  NZ        29.4980   20.5560   27.9500 N.3    35  LYS35      -0.1314
     36  N         24.8100   21.7030   19.3480 N.3    39  ILE39      -0.1245
     37  CA        23.4010   21.8590   19.7150 C.3    39  ILE39       0.1561
     38  C         22.6210   22.4750   18.5670 C.2    39  ILE39       0.2260
     39  O         21.5610   22.0170   18.2430 O.2    39  ILE39      -0.2867
     40  CB        23.2680   22.6930   21.0010 C.3    39  ILE39       0.0252
     41  CG1       23.7240   21.8310   22.1860 C.3    39  ILE39       0.0019
     42  CG2       21.8230   23.1590   21.2820 C.3    39  ILE39       0.0019
     43  CD1       23.7970   22.6260   23.5000 C.3    39  ILE39       0.0001
     44  N         22.2950   19.7690   15.7300 N.3    42  HIS42      -0.1241
     45  CA        21.3390   18.7530   16.1270 C.3    42  HIS42       0.1621
     46  C         19.8980   19.2850   16.0580 C.2    42  HIS42       0.2264
     47  O         18.9770   18.6270   15.4670 O.2    42  HIS42      -0.2867
     48  CB        21.6900   18.2260   17.4990 C.3    42  HIS42       0.0745
     49  CG        20.6870   17.2420   18.0270 C.ar   42  HIS42       0.0817
     50  ND1       19.6400   17.6100   18.7540 N.ar   42  HIS42      -0.2268
     51  CD2       20.6190   15.8530   17.9010 C.ar   42  HIS42       0.1154
     52  CE1       18.9050   16.5110   19.0700 C.ar   42  HIS42       0.1986
     53  NE2       19.5070   15.4400   18.5190 N.ar   42  HIS42      -0.2212
     54  N         12.4950   17.9020   20.8530 N.3    81  GLU81      -0.1245
     55  CA        13.7080   18.7160   20.8760 C.3    81  GLU81       0.1567
     56  C         13.3970   20.2090   20.7220 C.2    81  GLU81       0.2260
     57  O         12.4280   20.6020   20.0540 O.2    81  GLU81      -0.2867
     58  CB        14.6980   18.2840   19.7780 C.3    81  GLU81       0.0388
     59  CG        16.1520   18.7700   19.9470 C.3    81  GLU81       0.1160
     60  CD        16.6970   18.5760   21.3750 C.2    81  GLU81       0.3649
     61  OE1       16.2810   19.4000   22.2080 O.co2  81  GLU81      -0.2457
     62  OE2       17.5290   17.6410   21.7070 O.co2  81  GLU81      -0.2457
     63  N         13.2470   20.8540   29.1520 N.3    85  ARG85      -0.1245
     64  CA        12.9640   19.4830   29.5760 C.3    85  ARG85       0.1563
     65  C         11.6220   19.2980   30.2500 C.2    85  ARG85       0.2260
     66  O         10.9890   18.2580   30.0280 O.2    85  ARG85      -0.2867
     67  CB        14.0210   18.9730   30.5090 C.3    85  ARG85       0.0307
     68  CG        15.3170   18.5890   29.8580 C.3    85  ARG85       0.0489
     69  CD        16.3500   18.3110   30.9230 C.3    85  ARG85       0.2205
     70  NE        16.6700   19.5290   31.6890 N.pl3  85  ARG85      -0.0865
     71  CZ        17.6070   19.5930   32.6190 C.cat  85  ARG85       0.5346
     72  NH1       18.2830   18.5020   32.9480 N.pl3  85  ARG85       0.1354
     73  NH2       17.8160   20.7370   33.2580 N.pl3  85  ARG85       0.1354
     74  N         14.4530    7.9930   28.4470 N.3   106  PHE106     -0.1227
     75  CA        15.1630    9.1890   28.0690 C.3   106  PHE106      0.1736
     76  C         14.2640   10.0060   27.1400 C.2   106  PHE106      0.2595
     77  O         13.3830    9.4570   26.4440 O.2   106  PHE106     -0.2718
     78  CB        16.4720    8.8390   27.3770 C.3   106  PHE106      0.0547
     79  CG        17.5370    8.2750   28.3040 C.ar  106  PHE106     -0.0202
     80  CD1       17.6200    6.9080   28.5460 C.ar  106  PHE106     -0.0042
     81  CD2       18.4420    9.1270   28.9440 C.ar  106  PHE106     -0.0042
     82  CE1       18.5850    6.3920   29.4220 C.ar  106  PHE106     -0.0003
     83  CE2       19.4120    8.6200   29.8220 C.ar  106  PHE106     -0.0003
     84  CZ        19.4900    7.2510   30.0500 C.ar  106  PHE106     -0.0000
     85  N         14.4370   11.3190   27.1590 N.am  107  LEU107     -0.1966
     86  CA        13.6460   12.1720   26.3190 C.3   107  LEU107      0.1713
     87  C         14.0700   11.8740   24.8900 C.2   107  LEU107      0.2458
     88  O         15.2500   11.9190   24.6220 O.2   107  LEU107     -0.2730
     89  CB        14.0020   13.6450   26.5640 C.3   107  LEU107      0.0310
     90  CG        13.3050   14.4320   27.6480 C.3   107  LEU107      0.0022
     91  CD1       13.8170   15.8680   27.5050 C.3   107  LEU107      0.0001
     92  CD2       11.8030   14.3530   27.4480 C.3   107  LEU107      0.0001
     93  N         13.1210   11.5890   23.9910 N.am  108  PRO108     -0.2716
     94  CA        13.3300   11.5400   22.5460 C.3   108  PRO108      0.1536
     95  C         13.3360   12.9020   21.8560 C.2   108  PRO108      0.2598
     96  O         13.0030   13.9290   22.4700 O.2   108  PRO108     -0.2715
     97  CB        12.0920   10.7690   22.0580 C.3   108  PRO108      0.0310
     98  CG        11.0620   11.0840   23.0850 C.3   108  PRO108      0.0237
     99  CD        11.7070   11.6140   24.3150 C.3   108  PRO108      0.0939
    100  N         13.5760   12.8860   20.5600 N.am  109  ASP109     -0.1972
    101  CA        13.5590   14.0970   19.7320 C.3   109  ASP109      0.1709
    102  C         12.2410   14.4010   19.0700 C.2   109  ASP109      0.2293
    103  O         11.8560   15.5590   18.9710 O.2   109  ASP109     -0.2864
    104  CB        14.6550   14.0170   18.6960 C.3   109  ASP109      0.1436
    105  CG        16.0490   14.0760   19.3330 C.2   109  ASP109      0.3671
    106  OD1       16.2500   14.9700   20.1690 O.co2 109  ASP109     -0.2456
    107  OD2       16.9460   13.2870   19.0060 O.co2 109  ASP109     -0.2456
    108  N         14.5880    9.0270   18.1220 N.3   120  GLU120     -0.1231
    109  CA        15.8020    9.6760   18.5870 C.3   120  GLU120      0.1699
    110  C         16.6430    9.9540   17.3820 C.2   120  GLU120      0.2592
    111  O         16.8640    9.0480   16.6050 O.2   120  GLU120     -0.2718
    112  CB        16.5690    8.7100   19.4700 C.3   120  GLU120      0.0402
    113  CG        17.9960    9.1520   19.7110 C.3   120  GLU120      0.1161
    114  CD        18.0880   10.4640   20.5090 C.2   120  GLU120      0.3649
    115  OE1       17.2830   10.6730   21.4630 O.co2 120  GLU120     -0.2457
    116  OE2       18.9760   11.2770   20.1930 O.co2 120  GLU120     -0.2457
    117  N         17.1490   11.1680   17.2400 N.am  121  ILE121     -0.1966
    118  CA        18.0160   11.5530   16.1440 C.3   121  ILE121      0.1727
    119  C         19.4060   11.8270   16.6460 C.2   121  ILE121      0.2616
    120  O         19.5940   12.5620   17.5670 O.2   121  ILE121     -0.2715
    121  CB        17.5180   12.8680   15.4470 C.3   121  ILE121      0.0290
    122  CG1       16.0690   12.7120   14.9060 C.3   121  ILE121      0.0022
    123  CG2       18.5270   13.3710   14.3810 C.3   121  ILE121      0.0023
    124  CD1       15.8820   12.0330   13.5850 C.3   121  ILE121      0.0001
    125  N         20.4200   11.3120   15.9810 N.am  122  GLY122     -0.1955
    126  CA        21.8010   11.5520   16.4020 C.3   122  GLY122      0.1869
    127  C         22.5720   12.0860   15.2380 C.2   122  GLY122      0.2309
    128  O         22.3050   11.7370   14.0860 O.2   122  GLY122     -0.2863
    129  N         29.3640    5.5170   17.1550 N.3   131  TYR131     -0.1241
    130  CA        28.4060    6.3860   17.8220 C.3   131  TYR131      0.1605
    131  C         27.2280    5.6090   18.3840 C.2   131  TYR131      0.2264
    132  O         26.9330    5.6950   19.5800 O.2   131  TYR131     -0.2867
    133  CB        27.9210    7.4570   16.8970 C.3   131  TYR131      0.0534
    134  CG        26.9750    8.4080   17.6020 C.ar  131  TYR131     -0.0201
    135  CD1       27.4650    9.4840   18.3350 C.ar  131  TYR131     -0.0009
    136  CD2       25.5930    8.2410   17.5170 C.ar  131  TYR131     -0.0009
    137  CE1       26.6060   10.3700   18.9870 C.ar  131  TYR131      0.0417
    138  CE2       24.7370    9.1190   18.1650 C.ar  131  TYR131      0.0417
    139  CZ        25.2450   10.1710   18.9110 C.ar  131  TYR131      0.1957
    140  OH        24.3860   11.0440   19.5450 O.3   131  TYR131     -0.2866
    141  N         24.9360    5.0520   22.2870 N.3   135  LYS135     -0.1245
    142  CA        23.5010    5.4260   22.2770 C.3   135  LYS135      0.1561
    143  C         22.5020    4.2770   22.4810 C.2   135  LYS135      0.2260
    144  O         21.5370    4.4290   23.2370 O.2   135  LYS135     -0.2867
    145  CB        23.1330    6.1510   20.9600 C.3   135  LYS135      0.0271
    146  CG        22.9530    7.6610   21.0540 C.3   135  LYS135      0.0035
    147  CD        21.5270    8.1070   20.6840 C.3   135  LYS135      0.0206
    148  CE        21.4600    9.5860   20.2660 C.3   135  LYS135      0.1093
    149  NZ        21.1720   10.4860   21.4140 N.3   135  LYS135     -0.1314
    150  N         22.1230    2.8740   26.1110 N.3   138  LYS138     -0.1231
    151  CA        21.3060    3.6550   27.0440 C.3   138  LYS138      0.1693
    152  C         19.8740    3.2120   26.8150 C.2   138  LYS138      0.2591
    153  O         19.2700    2.6050   27.6940 O.2   138  LYS138     -0.2718
    154  CB        21.4850    5.1700   26.8630 C.3   138  LYS138      0.0285
    155  CG        22.6730    5.7830   27.6170 C.3   138  LYS138      0.0035
    156  CD        23.9710    5.6920   26.8300 C.3   138  LYS138      0.0206
    157  CE        25.1440    6.3400   27.5560 C.3   138  LYS138      0.1093
    158  NZ        26.2850    6.6140   26.6310 N.3   138  LYS138     -0.1314
    159  N         19.3630    3.4370   25.6140 N.am  139  ILE139     -0.1980
    160  CA        18.0320    2.9620   25.2410 C.3   139  ILE139      0.1595
    161  C         18.0290    1.4110   25.1530 C.2   139  ILE139      0.2287
    162  O         17.6320    0.8220   24.1380 O.2   139  ILE139     -0.2864
    163  CB        17.5430    3.6150   23.9030 C.3   139  ILE139      0.0276
    164  CG1       17.9950    5.0790   23.7920 C.3   139  ILE139      0.0022
    165  CG2       16.0240    3.5070   23.7700 C.3   139  ILE139      0.0022
    166  CD1       17.2180    5.9110   22.7910 C.3   139  ILE139      0.0001
@<TRIPOS>BOND
     1   124   122    1
     2   128   127    2
     3   123   121    1
     4   122   121    1
     5   127   126    1
     6   121   118    1
     7    47    46    2
     8    44    45    1
     9   125   126    1
    10   125   119   am
    11    46    45    1
    12    45    48    1
    13   118   119    1
    14   118   117    1
    15   111   110    2
    16   119   120    2
    17   133   134    1
    18   133   130    1
    19   129   130    1
    20   117   110   am
    21   110   109    1
    22    48    49    1
    23   136   134   ar
    24   136   138   ar
    25   134   135   ar
    26   130   131    1
    27    51    49   ar
    28    51    53   ar
    29    49    50   ar
    30   108   109    1
    31   138   139   ar
    32    39    38    2
    33   135   137   ar
    34   131   132    2
    35    53    52   ar
    36    38    37    1
    37   109   112    1
    38   104   105    1
    39   104   101    1
    40    50    52   ar
    41   139   137   ar
    42   139   140    1
    43   103   102    2
    44   107   105   ar
    45   102   101    1
    46   105   106   ar
    47    36    37    1
    48   112   113    1
    49   113   114    1
    50    37    40    1
    51   101   100    1
    52    58    59    1
    53    58    55    1
    54    59    60    1
    55    57    56    2
    56   116   114   ar
    57   148   147    1
    58   148   149    1
    59   114   115   ar
    60   100    95   am
    61   147   146    1
    62    56    55    1
    63    54    55    1
    64   145   146    1
    65   145   142    1
    66    40    42    1
    67    40    41    1
    68    60    62   ar
    69    60    61   ar
    70    30    29    2
    71    29    28    1
    72    27    28    1
    73    95    96    2
    74    95    94    1
    75    97    94    1
    76    97    98    1
    77    41    43    1
    78    28    31    1
    79   142   141    1
    80   142   143    1
    81   143   144    2
    82    94    93    1
    83   166   164    1
    84    98    99    1
    85    31    32    1
    86   165   163    1
    87   164   163    1
    88   163   160    1
    89    93    99    1
    90    93    87   am
    91   162   161    2
    92    32    33    1
    93    88    87    2
    94    87    86    1
    95     5     2    1
    96   161   160    1
    97   160   159    1
    98     1     2    1
    99   159   152   am
   100    33    34    1
   101     2     3    1
   102   150   151    1
   103    86    89    1
   104    86    85    1
   105    77    76    2
   106    34    35    1
   107    89    90    1
   108   158   157    1
   109   152   151    1
   110   152   153    2
   111   156   157    1
   112   156   155    1
   113   154   151    1
   114   154   155    1
   115     3     4    2
   116    76    85   am
   117    76    75    1
   118    78    75    1
   119    78    79    1
   120    92    90    1
   121    91    90    1
   122    25    24   ar
   123    75    74    1
   124    79    80   ar
   125    79    81   ar
   126    15    13   ar
   127    15    16   ar
   128    80    82   ar
   129    17    16    1
   130    24    26   ar
   131    24    23    1
   132    13    11   ar
   133    81    83   ar
   134    22    23    1
   135    22    19    1
   136    16    14   ar
   137    63    64    1
   138    21    20    2
   139    82    84   ar
   140    20    19    1
   141    64    65    1
   142    64    67    1
   143    11    10    1
   144    11    12   ar
   145    83    84   ar
   146    68    67    1
   147    68    69    1
   148    66    65    2
   149    19    18    1
   150    14    12   ar
   151    10     7    1
   152     6     7    1
   153    69    70    1
   154     7     8    1
   155    70    71    2
   156     8     9    2
   157    71    72    1
   158    71    73    1
