@<TRIPOS>MOLECULE
tmp/4avhA00.pdb
 130 124 0 0 0
SMALL
GASTEIGER

@<TRIPOS>ATOM
      1  N        -58.1680  -18.1330  -22.6740 N.3     1  PHE1       -0.1241
      2  CA       -56.7750  -17.9120  -22.3210 C.3     1  PHE1        0.1605
      3  C        -55.8680  -18.6390  -23.3110 C.2     1  PHE1        0.2264
      4  O        -56.1020  -19.8090  -23.6340 O.2     1  PHE1       -0.2867
      5  CB       -56.4950  -18.4090  -20.9010 C.3     1  PHE1        0.0534
      6  CG       -55.0720  -18.1920  -20.4600 C.ar    1  PHE1       -0.0203
      7  CD1      -54.6960  -17.0150  -19.8370 C.ar    1  PHE1       -0.0042
      8  CD2      -54.1050  -19.1610  -20.6880 C.ar    1  PHE1       -0.0042
      9  CE1      -53.3790  -16.8110  -19.4440 C.ar    1  PHE1       -0.0003
     10  CE2      -52.7990  -18.9630  -20.2910 C.ar    1  PHE1       -0.0003
     11  CZ       -52.4340  -17.7800  -19.6720 C.ar    1  PHE1       -0.0000
     12  N        -56.0640  -22.0660  -26.7830 N.3    13  ILE13      -0.1231
     13  CA       -56.9940  -22.4090  -25.7100 C.3    13  ILE13       0.1692
     14  C        -56.9610  -23.9030  -25.3950 C.2    13  ILE13       0.2592
     15  O        -56.9230  -24.7500  -26.3150 O.2    13  ILE13      -0.2718
     16  CB       -58.4370  -21.9830  -26.1160 C.3    13  ILE13       0.0266
     17  CG1      -58.5730  -20.4520  -26.0670 C.3    13  ILE13       0.0019
     18  CG2      -59.4950  -22.6780  -25.2580 C.3    13  ILE13       0.0020
     19  CD1      -59.8610  -19.9080  -26.7440 C.3    13  ILE13       0.0001
     20  N        -56.9580  -24.2420  -24.1050 N.am   14  GLY14      -0.1957
     21  CA       -56.9090  -25.6440  -23.7120 C.3    14  GLY14       0.1869
     22  C        -55.5080  -26.1730  -23.4170 C.2    14  GLY14       0.2309
     23  O        -55.3560  -27.2610  -22.8410 O.2    14  GLY14      -0.2863
     24  N        -56.1120  -12.8750  -21.4950 N.3    46  ASN46      -0.1225
     25  CA       -57.3900  -13.4320  -21.0820 C.3    46  ASN46       0.1785
     26  C        -58.4110  -13.1790  -22.1980 C.2    46  ASN46       0.2597
     27  O        -58.4490  -12.0890  -22.7880 O.2    46  ASN46      -0.2718
     28  CB       -57.7980  -12.7610  -19.7630 C.3    46  ASN46       0.1169
     29  CG       -59.1700  -13.1840  -19.2610 C.2    46  ASN46       0.2627
     30  OD1      -60.0810  -13.5120  -20.0360 O.2    46  ASN46      -0.2716
     31  ND2      -59.3350  -13.1460  -17.9370 N.am   46  ASN46      -0.0877
     32  N        -59.2420  -14.1770  -22.4800 N.am   47  ASP47      -0.1960
     33  CA       -60.1820  -14.0930  -23.5980 C.3    47  ASP47       0.1840
     34  C        -61.5480  -13.4500  -23.2920 C.2    47  ASP47       0.2622
     35  O        -62.2390  -12.9610  -24.1990 O.2    47  ASP47      -0.2715
     36  CB       -60.3460  -15.4820  -24.2200 C.3    47  ASP47       0.1450
     37  CG       -59.4040  -15.6840  -25.3680 C.2    47  ASP47       0.3671
     38  OD1      -59.3880  -14.7520  -26.1950 O.co2  47  ASP47      -0.2456
     39  OD2      -58.6630  -16.7010  -25.4180 O.co2  47  ASP47      -0.2456
     40  N        -61.9310  -13.4500  -22.0200 N.am   48  TYR48      -0.1974
     41  CA       -63.1990  -12.8580  -21.6030 C.3    48  TYR48       0.1639
     42  C        -63.0540  -12.1780  -20.2500 C.2    48  TYR48       0.2290
     43  O        -63.6460  -12.6150  -19.2560 O.2    48  TYR48      -0.2864
     44  CB       -64.2880  -13.9260  -21.5430 C.3    48  TYR48       0.0560
     45  CG       -64.6300  -14.5230  -22.8920 C.ar   48  TYR48      -0.0198
     46  CD1      -65.5970  -13.9480  -23.7050 C.ar   48  TYR48      -0.0009
     47  CD2      -63.9830  -15.6620  -23.3540 C.ar   48  TYR48      -0.0009
     48  CE1      -65.9120  -14.4970  -24.9500 C.ar   48  TYR48       0.0417
     49  CE2      -64.2870  -16.2140  -24.5970 C.ar   48  TYR48       0.0417
     50  CZ       -65.2540  -15.6310  -25.3860 C.ar   48  TYR48       0.1957
     51  OH       -65.5630  -16.1820  -26.6090 O.3    48  TYR48      -0.2866
     52  N        -65.9890  -11.0150  -17.7210 N.3    51  THR51      -0.1203
     53  CA       -66.7070  -11.9800  -16.8970 C.3    51  THR51       0.1994
     54  C        -65.7980  -13.0180  -16.2310 C.2    51  THR51       0.2617
     55  O        -66.1900  -13.6520  -15.2440 O.2    51  THR51      -0.2717
     56  CB       -67.8060  -12.7030  -17.7170 C.3    51  THR51       0.1784
     57  OG1      -67.2330  -13.2600  -18.9100 O.3    51  THR51      -0.2211
     58  CG2      -68.9100  -11.7220  -18.1060 C.3    51  THR51       0.0376
     59  N        -64.5980  -13.2100  -16.7760 N.am   52  ILE52      -0.1979
     60  CA       -63.7160  -14.2640  -16.2720 C.3    52  ILE52       0.1595
     61  C        -62.3840  -13.7220  -15.7730 C.2    52  ILE52       0.2287
     62  O        -61.7890  -12.8090  -16.3840 O.2    52  ILE52      -0.2864
     63  CB       -63.4690  -15.3610  -17.3310 C.3    52  ILE52       0.0276
     64  CG1      -64.8060  -15.9140  -17.8350 C.3    52  ILE52       0.0022
     65  CG2      -62.6020  -16.4980  -16.7690 C.3    52  ILE52       0.0022
     66  CD1      -64.6810  -17.1840  -18.6610 C.3    52  ILE52       0.0001
     67  N        -58.5530  -15.0360  -15.1080 N.3    54  ASP54      -0.1239
     68  CA       -57.6030  -16.1310  -15.3190 C.3    54  ASP54       0.1674
     69  C        -56.5040  -16.1280  -14.2490 C.2    54  ASP54       0.2266
     70  O        -56.0210  -15.0620  -13.8620 O.2    54  ASP54      -0.2867
     71  CB       -57.0100  -16.0540  -16.7390 C.3    54  ASP54       0.1410
     72  CG       -58.0080  -16.4770  -17.8090 C.2    54  ASP54       0.3668
     73  OD1      -58.8730  -17.3180  -17.4810 O.co2  54  ASP54      -0.2456
     74  OD2      -57.9440  -15.9850  -18.9700 O.co2  54  ASP54      -0.2456
     75  N        -52.8650  -22.9720  -15.8540 N.3   133  GLN133     -0.1245
     76  CA       -53.8860  -21.9240  -15.9310 C.3   133  GLN133      0.1566
     77  C        -55.2560  -22.4010  -15.4870 C.2   133  GLN133      0.2260
     78  O        -55.7520  -23.4360  -15.9550 O.2   133  GLN133     -0.2867
     79  CB       -53.9700  -21.3380  -17.3560 C.3   133  GLN133      0.0367
     80  CG       -55.1310  -20.3370  -17.5420 C.3   133  GLN133      0.0905
     81  CD       -56.2940  -20.9470  -18.3260 C.2   133  GLN133      0.2608
     82  OE1      -56.0830  -21.7410  -19.2560 O.2   133  GLN133     -0.2717
     83  NE2      -57.5290  -20.5690  -17.9580 N.am  133  GLN133     -0.0878
     84  N        -59.2730  -20.6550  -13.6730 N.3   135  ASN135     -0.1240
     85  CA       -60.1100  -19.4460  -13.6680 C.3   135  ASN135      0.1653
     86  C        -61.1250  -19.4080  -12.5210 C.2   135  ASN135      0.2266
     87  O        -61.1730  -20.3350  -11.7040 O.2   135  ASN135     -0.2867
     88  CB       -60.7990  -19.2560  -15.0310 C.3   135  ASN135      0.1155
     89  CG       -61.6800  -20.4410  -15.4150 C.2   135  ASN135      0.2627
     90  OD1      -62.4330  -20.9720  -14.5870 O.2   135  ASN135     -0.2716
     91  ND2      -61.5830  -20.8670  -16.6800 N.am  135  ASN135     -0.0877
     92  N        -64.3690  -19.3000  -13.1290 N.3   137  TYR137     -0.1227
     93  CA       -65.5860  -19.4570  -13.9300 C.3   137  TYR137      0.1736
     94  C        -66.0260  -20.9260  -14.1300 C.2   137  TYR137      0.2595
     95  O        -67.2010  -21.2600  -13.9360 O.2   137  TYR137     -0.2718
     96  CB       -65.4290  -18.7120  -15.2740 C.3   137  TYR137      0.0548
     97  CG       -66.5120  -19.0360  -16.2870 C.ar  137  TYR137     -0.0200
     98  CD1      -67.7150  -18.3390  -16.3040 C.ar  137  TYR137     -0.0009
     99  CD2      -66.3340  -20.0550  -17.2100 C.ar  137  TYR137     -0.0009
    100  CE1      -68.7120  -18.6500  -17.2320 C.ar  137  TYR137      0.0417
    101  CE2      -67.3110  -20.3710  -18.1340 C.ar  137  TYR137      0.0417
    102  CZ       -68.4970  -19.6710  -18.1440 C.ar  137  TYR137      0.1957
    103  OH       -69.4630  -20.0020  -19.0730 O.3   137  TYR137     -0.2866
    104  N        -65.1030  -21.8020  -14.5240 N.am  138  ASN138     -0.1974
    105  CA       -65.4580  -23.2130  -14.6850 C.3   138  ASN138      0.1688
    106  C        -64.3680  -24.1480  -14.1510 C.2   138  ASN138      0.2292
    107  O        -63.4940  -23.7160  -13.3920 O.2   138  ASN138     -0.2864
    108  CB       -65.8010  -23.5300  -16.1490 C.3   138  ASN138      0.1181
    109  CG       -64.6190  -23.3120  -17.0910 C.2   138  ASN138      0.2629
    110  OD1      -63.4580  -23.3190  -16.6690 O.2   138  ASN138     -0.2716
    111  ND2      -64.9140  -23.1240  -18.3760 N.am  138  ASN138     -0.0877
    112  N        -61.8920  -25.4330  -15.7420 N.3   140  ASP140     -0.1239
    113  CA       -60.6810  -25.4580  -16.5780 C.3   140  ASP140      0.1674
    114  C        -59.3730  -25.4800  -15.7860 C.2   140  ASP140      0.2266
    115  O        -59.1740  -24.6880  -14.8610 O.2   140  ASP140     -0.2867
    116  CB       -60.6620  -24.2820  -17.5530 C.3   140  ASP140      0.1410
    117  CG       -61.6730  -24.4400  -18.6780 C.2   140  ASP140      0.3668
    118  OD1      -62.2530  -25.5420  -18.8220 O.co2 140  ASP140     -0.2456
    119  OD2      -61.8960  -23.4510  -19.4110 O.co2 140  ASP140     -0.2456
    120  N        -55.5340  -26.1210  -17.1780 N.3   142  PHE142     -0.1241
    121  CA       -54.7170  -26.4050  -18.3570 C.3   142  PHE142      0.1605
    122  C        -53.2150  -26.1700  -18.1600 C.2   142  PHE142      0.2264
    123  O        -52.7970  -25.2840  -17.3960 O.2   142  PHE142     -0.2867
    124  CB       -55.1800  -25.5210  -19.5130 C.3   142  PHE142      0.0534
    125  CG       -56.5930  -25.7720  -19.9370 C.ar  142  PHE142     -0.0203
    126  CD1      -57.0230  -27.0640  -20.2340 C.ar  142  PHE142     -0.0042
    127  CD2      -57.4980  -24.7160  -20.0450 C.ar  142  PHE142     -0.0042
    128  CE1      -58.3410  -27.2980  -20.6380 C.ar  142  PHE142     -0.0003
    129  CE2      -58.8200  -24.9390  -20.4390 C.ar  142  PHE142     -0.0003
    130  CZ       -59.2390  -26.2310  -20.7350 C.ar  142  PHE142     -0.0000
@<TRIPOS>BOND
     1    12    13    1
     2    19    17    1
     3    51    50    1
     4    15    14    2
     5    38    37   ar
     6    16    17    1
     7    16    13    1
     8    16    18    1
     9    13    14    1
    10    39    37   ar
    11    14    20   am
    12    50    48   ar
    13    50    49   ar
    14    37    36    1
    15    48    46   ar
    16    49    47   ar
    17    36    33    1
    18    35    34    2
    19    20    21    1
    20    21    22    1
    21    46    45   ar
    22     4     3    2
    23    33    34    1
    24    33    32    1
    25    22    23    2
    26    47    45   ar
    27     3     2    1
    28    34    40   am
    29    45    44    1
    30    27    26    2
    31     1     2    1
    32    32    26   am
    33     2     5    1
    34    26    25    1
    35    40    41    1
    36    41    44    1
    37    41    42    1
    38    24    25    1
    39    25    28    1
    40     5     6    1
    41   130   128   ar
    42   130   129   ar
    43     8     6   ar
    44     8    10   ar
    45   128   126   ar
    46     6     7   ar
    47   129   127   ar
    48    10    11   ar
    49    42    43    2
    50   126   125   ar
    51   127   125   ar
    52    30    29    2
    53   125   124    1
    54     7     9   ar
    55    28    29    1
    56    11     9   ar
    57   124   121    1
    58   119   117   ar
    59    29    31   am
    60    82    81    2
    61   103   102    1
    62    74    72   ar
    63    57    56    1
    64   118   117   ar
    65   117   116    1
    66    66    64    1
    67   111   109   am
    68   121   122    1
    69   121   120    1
    70    81    83   am
    71    81    80    1
    72   122   123    2
    73   102   101   ar
    74   102   100   ar
    75   101    99   ar
    76    58    56    1
    77    64    63    1
    78    72    73   ar
    79    72    71    1
    80    52    53    1
    81    56    53    1
    82   116   113    1
    83    80    79    1
    84    79    76    1
    85    63    65    1
    86    63    60    1
    87   100    98   ar
    88    99    97   ar
    89   109   110    2
    90   109   108    1
    91    53    54    1
    92    59    60    1
    93    59    54   am
    94    71    68    1
    95    91    89   am
    96   113   114    1
    97   113   112    1
    98    62    61    2
    99    98    97   ar
   100    97    96    1
   101    60    61    1
   102    54    55    2
   103   108   105    1
   104    78    77    2
   105    76    75    1
   106    76    77    1
   107   114   115    2
   108    89    88    1
   109    89    90    2
   110    68    67    1
   111    68    69    1
   112    96    93    1
   113    88    85    1
   114   105   104    1
   115   105   106    1
   116   104    94   am
   117    69    70    2
   118   106   107    2
   119    94    95    2
   120    94    93    1
   121    93    92    1
   122    84    85    1
   123    85    86    1
   124    86    87    2
