@<TRIPOS>MOLECULE
tmp/4aviA00.pdb
 130 124 0 0 0
SMALL
GASTEIGER

@<TRIPOS>ATOM
      1  N         13.5160  -58.7630   22.5760 N.3     1  PHE1       -0.1241
      2  CA        12.9150  -57.4630   22.2460 C.3     1  PHE1        0.1605
      3  C         11.7990  -57.1010   23.2260 C.2     1  PHE1        0.2264
      4  O         10.8440  -57.8560   23.4360 O.2     1  PHE1       -0.2867
      5  CB        12.3500  -57.4890   20.8310 C.3     1  PHE1        0.0534
      6  CG        11.7810  -56.1690   20.3990 C.ar    1  PHE1       -0.0203
      7  CD1       12.5760  -55.2310   19.7820 C.ar    1  PHE1       -0.0042
      8  CD2       10.4640  -55.8610   20.6360 C.ar    1  PHE1       -0.0042
      9  CE1       12.0680  -54.0230   19.4130 C.ar    1  PHE1       -0.0003
     10  CE2        9.9580  -54.6510   20.2550 C.ar    1  PHE1       -0.0003
     11  CZ        10.7730  -53.7250   19.6500 C.ar    1  PHE1       -0.0000
     12  N          8.9970  -58.8940   26.6480 N.3    13  ILE13      -0.1231
     13  CA         9.1800  -59.9210   25.6280 C.3    13  ILE13       0.1692
     14  C          7.8590  -60.6460   25.3570 C.2    13  ILE13       0.2592
     15  O          7.1580  -61.0340   26.2950 O.2    13  ILE13      -0.2718
     16  CB        10.2370  -60.9340   26.1130 C.3    13  ILE13       0.0266
     17  CG1       11.6390  -60.3330   25.9990 C.3    13  ILE13       0.0019
     18  CG2       10.1580  -62.2200   25.3290 C.3    13  ILE13       0.0020
     19  CD1       12.7400  -61.1680   26.7040 C.3    13  ILE13       0.0001
     20  N          7.5090  -60.8160   24.0830 N.am   14  GLY14      -0.1957
     21  CA         6.2790  -61.5130   23.7000 C.3    14  GLY14       0.1869
     22  C          5.1070  -60.5870   23.3800 C.2    14  GLY14       0.2309
     23  O          4.0560  -61.0110   22.8510 O.2    14  GLY14      -0.2863
     24  N         16.8450  -54.5150   21.5210 N.3    46  ASN46      -0.1225
     25  CA        17.1000  -55.8930   21.0930 C.3    46  ASN46       0.1785
     26  C         17.8280  -56.5620   22.2420 C.2    46  ASN46       0.2597
     27  O         18.8090  -56.0300   22.7220 O.2    46  ASN46      -0.2718
     28  CB        17.9790  -55.8770   19.8210 C.3    46  ASN46       0.1169
     29  CG        18.2460  -57.2860   19.2250 C.2    46  ASN46       0.2627
     30  OD1       18.3230  -58.2870   19.9340 O.2    46  ASN46      -0.2716
     31  ND2       18.4120  -57.3410   17.9040 N.am   46  ASN46      -0.0877
     32  N         17.3390  -57.7080   22.6920 N.am   47  ASP47      -0.1960
     33  CA        17.9570  -58.4520   23.7950 C.3    47  ASP47       0.1840
     34  C         19.1350  -59.3820   23.4300 C.2    47  ASP47       0.2622
     35  O         19.7680  -59.9470   24.3170 O.2    47  ASP47      -0.2715
     36  CB        16.8970  -59.3170   24.4600 C.3    47  ASP47       0.1450
     37  CG        16.0200  -58.5330   25.3710 C.2    47  ASP47       0.3671
     38  OD1       16.5880  -57.7950   26.2090 O.co2  47  ASP47      -0.2456
     39  OD2       14.7740  -58.6430   25.2370 O.co2  47  ASP47      -0.2456
     40  N         19.4050  -59.5730   22.1440 N.am   48  TYR48      -0.1974
     41  CA        20.5080  -60.4350   21.7070 C.3    48  TYR48       0.1639
     42  C         21.0650  -59.9620   20.3870 C.2    48  TYR48       0.2290
     43  O         21.0240  -60.6960   19.4080 O.2    48  TYR48      -0.2864
     44  CB        20.0420  -61.8730   21.5540 C.3    48  TYR48       0.0560
     45  CG        19.6260  -62.5000   22.8640 C.ar   48  TYR48      -0.0198
     46  CD1       20.5730  -63.0310   23.7380 C.ar   48  TYR48      -0.0009
     47  CD2       18.2850  -62.5550   23.2400 C.ar   48  TYR48      -0.0009
     48  CE1       20.1960  -63.6100   24.9550 C.ar   48  TYR48       0.0417
     49  CE2       17.8990  -63.1310   24.4570 C.ar   48  TYR48       0.0417
     50  CZ        18.8650  -63.6510   25.3030 C.ar   48  TYR48       0.1957
     51  OH        18.4970  -64.2060   26.4970 O.3    48  TYR48      -0.2866
     52  N         23.3550  -62.0590   17.7400 N.3    51  THR51      -0.1203
     53  CA        22.9300  -63.1960   16.9450 C.3    51  THR51       0.1994
     54  C         21.6110  -62.9380   16.2420 C.2    51  THR51       0.2617
     55  O         21.2990  -63.5770   15.2290 O.2    51  THR51      -0.2717
     56  CB        22.7900  -64.4510   17.8170 C.3    51  THR51       0.1784
     57  OG1       22.1810  -64.1010   19.0680 O.3    51  THR51      -0.2211
     58  CG2       24.1590  -65.0610   18.0820 C.3    51  THR51       0.0376
     59  N         20.8350  -62.0030   16.7820 N.am   52  ILE52      -0.1979
     60  CA        19.5070  -61.7680   16.2760 C.3    52  ILE52       0.1595
     61  C         19.3520  -60.3480   15.8250 C.2    52  ILE52       0.2287
     62  O         19.8470  -59.4150   16.4820 O.2    52  ILE52      -0.2864
     63  CB        18.4800  -62.0450   17.3410 C.3    52  ILE52       0.0276
     64  CG1       18.5530  -63.5160   17.7370 C.3    52  ILE52       0.0022
     65  CG2       17.0740  -61.6860   16.8280 C.3    52  ILE52       0.0022
     66  CD1       17.5310  -63.9340   18.7780 C.3    52  ILE52       0.0001
     67  N         16.2490  -57.7010   15.0990 N.3    54  ASP54      -0.1239
     68  CA        14.8330  -57.4070   15.2590 C.3    54  ASP54       0.1674
     69  C         14.3300  -56.3860   14.2160 C.2    54  ASP54       0.2266
     70  O         14.9930  -55.3940   13.9350 O.2    54  ASP54      -0.2867
     71  CB        14.5530  -56.8880   16.6820 C.3    54  ASP54       0.1410
     72  CG        14.7270  -57.9630   17.7540 C.2    54  ASP54       0.3668
     73  OD1       14.2990  -59.1350   17.5230 O.co2  54  ASP54      -0.2456
     74  OD2       15.2900  -57.6290   18.8290 O.co2  54  ASP54      -0.2456
     75  N          6.6200  -56.6660   15.8130 N.3   133  GLN133     -0.1245
     76  CA         8.0330  -57.0160   15.8920 C.3   133  GLN133      0.1566
     77  C          8.2730  -58.4480   15.4580 C.2   133  GLN133      0.2260
     78  O          7.6370  -59.3480   15.9610 O.2   133  GLN133     -0.2867
     79  CB         8.5520  -56.8410   17.3320 C.3   133  GLN133      0.0367
     80  CG        10.0030  -57.3030   17.5240 C.3   133  GLN133      0.0905
     81  CD        10.1220  -58.6510   18.2670 C.2   133  GLN133      0.2608
     82  OE1        9.3520  -58.9470   19.1800 O.2   133  GLN133     -0.2717
     83  NE2       11.0950  -59.4550   17.8730 N.am  133  GLN133     -0.0878
     84  N         11.8170  -61.0240   13.7030 N.3   135  ASN135     -0.1240
     85  CA        13.2770  -61.1350   13.7120 C.3   135  ASN135      0.1653
     86  C         13.8120  -61.9980   12.5710 C.2   135  ASN135      0.2266
     87  O         13.0540  -62.4450   11.7150 O.2   135  ASN135     -0.2867
     88  CB        13.7530  -61.6980   15.0480 C.3   135  ASN135      0.1155
     89  CG        13.2350  -63.1070   15.3210 C.2   135  ASN135      0.2627
     90  OD1       13.1460  -63.9470   14.4230 O.2   135  ASN135     -0.2716
     91  ND2       12.8920  -63.3700   16.5780 N.am  135  ASN135     -0.0877
     92  N         15.5520  -64.8770   13.1810 N.3   137  TYR137     -0.1227
     93  CA        16.0180  -66.0110   13.9510 C.3   137  TYR137      0.1736
     94  C         14.9560  -67.1090   14.0490 C.2   137  TYR137      0.2595
     95  O         15.2250  -68.2780   13.7700 O.2   137  TYR137     -0.2718
     96  CB        16.4440  -65.5310   15.3370 C.3   137  TYR137      0.0548
     97  CG        16.7980  -66.6430   16.2790 C.ar  137  TYR137     -0.0200
     98  CD1       17.9820  -67.3570   16.1370 C.ar  137  TYR137     -0.0009
     99  CD2       15.9430  -66.9870   17.3160 C.ar  137  TYR137     -0.0009
    100  CE1       18.2990  -68.3990   17.0090 C.ar  137  TYR137      0.0417
    101  CE2       16.2380  -68.0170   18.1750 C.ar  137  TYR137      0.0417
    102  CZ        17.4160  -68.7230   18.0270 C.ar  137  TYR137      0.1957
    103  OH        17.6940  -69.7400   18.9160 O.3   137  TYR137     -0.2866
    104  N         13.7450  -66.7430   14.4360 N.am  138  ASN138     -0.1974
    105  CA        12.7000  -67.7420   14.5660 C.3   138  ASN138      0.1688
    106  C         11.3620  -67.1720   14.0840 C.2   138  ASN138      0.2292
    107  O         11.3370  -66.1790   13.3530 O.2   138  ASN138     -0.2864
    108  CB        12.6380  -68.2400   16.0130 C.3   138  ASN138      0.1181
    109  CG        12.3330  -67.1290   17.0000 C.2   138  ASN138      0.2629
    110  OD1       11.6580  -66.1500   16.6590 O.2   138  ASN138     -0.2716
    111  ND2       12.8420  -67.2680   18.2360 N.am  138  ASN138     -0.0877
    112  N          8.9390  -65.7680   15.8890 N.3   140  ASP140     -0.1239
    113  CA         8.3450  -64.6950   16.6810 C.3   140  ASP140      0.1674
    114  C          7.7070  -63.5940   15.8100 C.2   140  ASP140      0.2266
    115  O          8.3040  -63.0170   14.8890 O.2   140  ASP140     -0.2867
    116  CB         9.3700  -64.0670   17.6300 C.3   140  ASP140      0.1410
    117  CG         9.8300  -65.0310   18.7410 C.2   140  ASP140      0.3668
    118  OD1        9.2320  -66.1210   18.9100 O.co2 140  ASP140     -0.2456
    119  OD2       10.8170  -64.7130   19.4360 O.co2 140  ASP140     -0.2456
    120  N          5.2100  -60.5510   17.1350 N.3   142  PHE142     -0.1241
    121  CA         4.5590  -60.0270   18.3440 C.3   142  PHE142      0.1605
    122  C          4.0180  -58.5970   18.1850 C.2   142  PHE142      0.2264
    123  O          4.5800  -57.7630   17.4800 O.2   142  PHE142     -0.2867
    124  CB         5.5440  -60.0210   19.5190 C.3   142  PHE142      0.0534
    125  CG         6.0160  -61.3850   19.9280 C.ar  142  PHE142     -0.0203
    126  CD1        5.1150  -62.3800   20.2220 C.ar  142  PHE142     -0.0042
    127  CD2        7.3670  -61.6590   20.0390 C.ar  142  PHE142     -0.0042
    128  CE1        5.5520  -63.6460   20.5930 C.ar  142  PHE142     -0.0003
    129  CE2        7.8180  -62.9130   20.4150 C.ar  142  PHE142     -0.0003
    130  CZ         6.9050  -63.9150   20.6840 C.ar  142  PHE142     -0.0000
@<TRIPOS>BOND
     1    87    86    2
     2    86    85    1
     3    92    93    1
     4   107   106    2
     5    84    85    1
     6    85    88    1
     7    95    94    2
     8    70    69    2
     9    93    94    1
    10    93    96    1
    11    94   104   am
    12   106   105    1
    13    69    68    1
    14    90    89    2
    15   104   105    1
    16   105   108    1
    17   115   114    2
    18    88    89    1
    19    67    68    1
    20    55    54    2
    21    68    71    1
    22    89    91   am
    23    96    97    1
    24    77    76    1
    25    77    78    2
    26   114   113    1
    27    75    76    1
    28    61    60    1
    29    61    62    2
    30   112   113    1
    31    76    79    1
    32   108   109    1
    33    98    97   ar
    34    98   100   ar
    35    54    59   am
    36    54    53    1
    37    60    59    1
    38    60    63    1
    39    97    99   ar
    40   110   109    2
    41   113   116    1
    42    71    72    1
    43    65    63    1
    44    53    52    1
    45    53    56    1
    46   109   111   am
    47   100   102   ar
    48   120   121    1
    49    99   101   ar
    50    79    80    1
    51    63    64    1
    52   123   122    2
    53    73    72   ar
    54    80    81    1
    55   116   117    1
    56    64    66    1
    57    72    74   ar
    58    56    58    1
    59    56    57    1
    60    83    81   am
    61    31    29   am
    62   102   101   ar
    63   102   103    1
    64   122   121    1
    65    81    82    2
    66   121   124    1
    67   117   118   ar
    68   117   119   ar
    69    29    28    1
    70    29    30    2
    71    43    42    2
    72     9    11   ar
    73     9     7   ar
    74   124   125    1
    75    11    10   ar
    76     7     6   ar
    77    28    25    1
    78   125   127   ar
    79   125   126   ar
    80   127   129   ar
    81   126   128   ar
    82    10     8   ar
    83    42    41    1
    84     6     8   ar
    85     6     5    1
    86   129   130   ar
    87   128   130   ar
    88     5     2    1
    89    25    24    1
    90    25    26    1
    91    44    41    1
    92    44    45    1
    93    41    40    1
    94    40    34   am
    95    26    32   am
    96    26    27    2
    97     2     1    1
    98     2     3    1
    99    32    33    1
   100    23    22    2
   101    45    47   ar
   102    45    46   ar
   103     3     4    2
   104    47    49   ar
   105    22    21    1
   106    34    33    1
   107    34    35    2
   108    21    20    1
   109    46    48   ar
   110    33    36    1
   111    20    14   am
   112    49    50   ar
   113    36    37    1
   114    48    50   ar
   115    39    37   ar
   116    50    51    1
   117    18    16    1
   118    14    13    1
   119    14    15    2
   120    37    38   ar
   121    13    16    1
   122    13    12    1
   123    17    16    1
   124    17    19    1
