@<TRIPOS>MOLECULE
tmp/4avjA00.pdb
 130 124 0 0 0
SMALL
GASTEIGER

@<TRIPOS>ATOM
      1  N        -57.9650  -17.9500  -22.7470 N.3     1  PHE1       -0.1241
      2  CA       -56.5690  -17.7180  -22.3520 C.3     1  PHE1        0.1605
      3  C        -55.6830  -18.4830  -23.2710 C.2     1  PHE1        0.2264
      4  O        -55.8820  -19.6700  -23.4600 O.2     1  PHE1       -0.2867
      5  CB       -56.3170  -18.1750  -20.8960 C.3     1  PHE1        0.0534
      6  CG       -54.8720  -18.0430  -20.4640 C.ar    1  PHE1       -0.0203
      7  CD1      -53.9670  -19.0600  -20.6990 C.ar    1  PHE1       -0.0042
      8  CD2      -54.4200  -16.8790  -19.8770 C.ar    1  PHE1       -0.0042
      9  CE1      -52.6560  -18.9200  -20.3140 C.ar    1  PHE1       -0.0003
     10  CE2      -53.0960  -16.7470  -19.4840 C.ar    1  PHE1       -0.0003
     11  CZ       -52.2180  -17.7560  -19.7400 C.ar    1  PHE1       -0.0000
     12  N        -55.9390  -21.9240  -26.8230 N.3    13  ILE13      -0.1231
     13  CA       -56.8610  -22.2120  -25.7200 C.3    13  ILE13       0.1692
     14  C        -56.8310  -23.6760  -25.3690 C.2    13  ILE13       0.2592
     15  O        -56.8360  -24.5240  -26.2670 O.2    13  ILE13      -0.2718
     16  CB       -58.2960  -21.8450  -26.1310 C.3    13  ILE13       0.0266
     17  CG1      -58.4890  -20.3310  -26.1160 C.3    13  ILE13       0.0019
     18  CG2      -59.2940  -22.5150  -25.2260 C.3    13  ILE13       0.0020
     19  CD1      -59.7460  -19.8930  -26.8770 C.3    13  ILE13       0.0001
     20  N        -56.7520  -24.0140  -24.0880 N.am   14  GLY14      -0.1957
     21  CA       -56.7860  -25.4140  -23.7220 C.3    14  GLY14       0.1869
     22  C        -55.4180  -26.0280  -23.4670 C.2    14  GLY14       0.2309
     23  O        -55.2810  -27.1660  -22.9710 O.2    14  GLY14      -0.2863
     24  N        -56.0300  -12.7990  -21.6060 N.3    46  ASN46      -0.1225
     25  CA       -57.3040  -13.3040  -21.1350 C.3    46  ASN46       0.1785
     26  C        -58.3290  -13.0690  -22.2610 C.2    46  ASN46       0.2597
     27  O        -58.4420  -11.9670  -22.7570 O.2    46  ASN46      -0.2718
     28  CB       -57.6780  -12.5170  -19.8700 C.3    46  ASN46       0.1169
     29  CG       -59.0320  -12.9000  -19.2640 C.2    46  ASN46       0.2627
     30  OD1      -59.9890  -13.2270  -19.9590 O.2    46  ASN46      -0.2716
     31  ND2      -59.1150  -12.8070  -17.9340 N.am   46  ASN46      -0.0877
     32  N        -59.0960  -14.0810  -22.6400 N.am   47  ASP47      -0.1960
     33  CA       -60.0370  -13.9520  -23.7630 C.3    47  ASP47       0.1840
     34  C        -61.4200  -13.3400  -23.4300 C.2    47  ASP47       0.2622
     35  O        -62.1970  -13.0500  -24.3410 O.2    47  ASP47      -0.2715
     36  CB       -60.2020  -15.2820  -24.4990 C.3    47  ASP47       0.1450
     37  CG       -59.0800  -15.5330  -25.4660 C.2    47  ASP47       0.3671
     38  OD1      -58.7860  -14.6210  -26.2690 O.co2  47  ASP47      -0.2456
     39  OD2      -58.4420  -16.5920  -25.3810 O.co2  47  ASP47      -0.2456
     40  N        -61.7440  -13.2070  -22.1450 N.am   48  TYR48      -0.1974
     41  CA       -63.0260  -12.6250  -21.6820 C.3    48  TYR48       0.1639
     42  C        -62.9080  -11.9770  -20.3380 C.2    48  TYR48       0.2290
     43  O        -63.5370  -12.4030  -19.3790 O.2    48  TYR48      -0.2864
     44  CB       -64.1250  -13.6650  -21.5930 C.3    48  TYR48       0.0560
     45  CG       -64.5850  -14.1870  -22.9250 C.ar   48  TYR48      -0.0198
     46  CD1      -63.9730  -15.2740  -23.5340 C.ar   48  TYR48      -0.0009
     47  CD2      -65.6410  -13.5730  -23.5930 C.ar   48  TYR48      -0.0009
     48  CE1      -64.4160  -15.7520  -24.7920 C.ar   48  TYR48       0.0417
     49  CE2      -66.0860  -14.0370  -24.8370 C.ar   48  TYR48       0.0417
     50  CZ       -65.4730  -15.1240  -25.4300 C.ar   48  TYR48       0.1957
     51  OH       -65.9230  -15.5780  -26.6560 O.3    48  TYR48      -0.2866
     52  N        -65.7940  -10.8460  -17.6470 N.3    51  THR51      -0.1203
     53  CA       -66.4790  -11.7380  -16.7380 C.3    51  THR51       0.1994
     54  C        -65.5650  -12.7640  -16.0900 C.2    51  THR51       0.2617
     55  O        -65.9030  -13.3090  -15.0450 O.2    51  THR51      -0.2717
     56  CB       -67.6040  -12.5160  -17.4550 C.3    51  THR51       0.1784
     57  OG1      -67.1410  -12.9480  -18.7310 O.3    51  THR51      -0.2211
     58  CG2      -68.8230  -11.6490  -17.6420 C.3    51  THR51       0.0376
     59  N        -64.4020  -12.9980  -16.6890 N.am   52  ILE52      -0.1979
     60  CA       -63.5270  -14.0540  -16.2340 C.3    52  ILE52       0.1595
     61  C        -62.1840  -13.5290  -15.7930 C.2    52  ILE52       0.2287
     62  O        -61.6050  -12.6370  -16.4400 O.2    52  ILE52      -0.2864
     63  CB       -63.2970  -15.0900  -17.3200 C.3    52  ILE52       0.0276
     64  CG1      -64.6280  -15.6720  -17.7860 C.3    52  ILE52       0.0022
     65  CG2      -62.4450  -16.2020  -16.7930 C.3    52  ILE52       0.0022
     66  CD1      -64.4900  -16.8030  -18.8250 C.3    52  ILE52       0.0001
     67  N        -58.3640  -14.9430  -15.0990 N.3    54  ASP54      -0.1239
     68  CA       -57.4270  -16.0470  -15.2820 C.3    54  ASP54       0.1674
     69  C        -56.2930  -15.9720  -14.2570 C.2    54  ASP54       0.2266
     70  O        -55.7740  -14.8940  -13.9630 O.2    54  ASP54      -0.2867
     71  CB       -56.8520  -16.0370  -16.6870 C.3    54  ASP54       0.1410
     72  CG       -57.8780  -16.4110  -17.7330 C.2    54  ASP54       0.3668
     73  OD1      -58.6840  -17.3330  -17.4620 O.co2  54  ASP54      -0.2456
     74  OD2      -57.9160  -15.7530  -18.8050 O.co2  54  ASP54      -0.2456
     75  N        -52.6840  -22.8190  -15.8420 N.3   133  GLN133     -0.1245
     76  CA       -53.7230  -21.7880  -15.9480 C.3   133  GLN133      0.1566
     77  C        -55.0550  -22.2900  -15.4820 C.2   133  GLN133      0.2260
     78  O        -55.5360  -23.3510  -15.9200 O.2   133  GLN133     -0.2867
     79  CB       -53.8640  -21.3110  -17.4070 C.3   133  GLN133      0.0367
     80  CG       -55.0100  -20.2700  -17.6250 C.3   133  GLN133      0.0905
     81  CD       -56.2210  -20.7970  -18.4180 C.2   133  GLN133      0.2608
     82  OE1      -56.0690  -21.5950  -19.3460 O.2   133  GLN133     -0.2717
     83  NE2      -57.4270  -20.2970  -18.0850 N.am  133  GLN133     -0.0878
     84  N        -59.0280  -20.4600  -13.7010 N.3   135  ASN135     -0.1240
     85  CA       -59.8550  -19.2530  -13.6980 C.3   135  ASN135      0.1653
     86  C        -60.8960  -19.2340  -12.5680 C.2   135  ASN135      0.2266
     87  O        -61.0320  -20.1860  -11.8230 O.2   135  ASN135     -0.2867
     88  CB       -60.5470  -19.0910  -15.0610 C.3   135  ASN135      0.1155
     89  CG       -61.5160  -20.2310  -15.3710 C.2   135  ASN135      0.2627
     90  OD1      -62.2520  -20.7050  -14.5030 O.2   135  ASN135     -0.2716
     91  ND2      -61.5290  -20.6610  -16.6190 N.am  135  ASN135     -0.0877
     92  N        -64.2430  -19.1990  -13.1390 N.3   137  TYR137     -0.1227
     93  CA       -65.4420  -19.3100  -13.9580 C.3   137  TYR137      0.1736
     94  C        -65.9200  -20.7540  -14.1360 C.2   137  TYR137      0.2595
     95  O        -67.1030  -21.0530  -13.9670 O.2   137  TYR137     -0.2718
     96  CB       -65.1830  -18.6640  -15.3200 C.3   137  TYR137      0.0548
     97  CG       -66.3210  -18.7990  -16.3220 C.ar  137  TYR137     -0.0200
     98  CD1      -67.4180  -17.9550  -16.2480 C.ar  137  TYR137     -0.0009
     99  CD2      -66.2750  -19.7290  -17.3540 C.ar  137  TYR137     -0.0009
    100  CE1      -68.4530  -18.0540  -17.1440 C.ar  137  TYR137      0.0417
    101  CE2      -67.3070  -19.8390  -18.2540 C.ar  137  TYR137      0.0417
    102  CZ       -68.3990  -18.9920  -18.1410 C.ar  137  TYR137      0.1957
    103  OH       -69.4470  -19.0540  -19.0210 O.3   137  TYR137     -0.2866
    104  N        -64.9970  -21.6690  -14.4040 N.am  138  ASN138     -0.1974
    105  CA       -65.3870  -23.0590  -14.6110 C.3   138  ASN138      0.1688
    106  C        -64.2680  -23.9890  -14.1470 C.2   138  ASN138      0.2292
    107  O        -63.3230  -23.5630  -13.4770 O.2   138  ASN138     -0.2864
    108  CB       -65.7490  -23.3020  -16.0980 C.3   138  ASN138      0.1181
    109  CG       -64.5690  -23.0580  -17.0440 C.2   138  ASN138      0.2629
    110  OD1      -63.4170  -23.0870  -16.6290 O.2   138  ASN138     -0.2716
    111  ND2      -64.8600  -22.8770  -18.3290 N.am  138  ASN138     -0.0877
    112  N        -61.8070  -25.3170  -15.8900 N.3   140  ASP140     -0.1239
    113  CA       -60.5770  -25.3460  -16.6930 C.3   140  ASP140      0.1674
    114  C        -59.2890  -25.3740  -15.8610 C.2   140  ASP140      0.2266
    115  O        -59.0730  -24.5130  -14.9990 O.2   140  ASP140     -0.2867
    116  CB       -60.4980  -24.1270  -17.6050 C.3   140  ASP140      0.1410
    117  CG       -61.5400  -24.1530  -18.7430 C.2   140  ASP140      0.3668
    118  OD1      -62.2110  -25.1940  -18.9430 O.co2 140  ASP140     -0.2456
    119  OD2      -61.7010  -23.0940  -19.4020 O.co2 140  ASP140     -0.2456
    120  N        -55.3780  -25.9690  -17.1670 N.3   142  PHE142     -0.1241
    121  CA       -54.6070  -26.2650  -18.3730 C.3   142  PHE142      0.1605
    122  C        -53.1150  -25.9920  -18.1820 C.2   142  PHE142      0.2264
    123  O        -52.7180  -25.1300  -17.4090 O.2   142  PHE142     -0.2867
    124  CB       -55.0920  -25.4190  -19.5540 C.3   142  PHE142      0.0534
    125  CG       -56.5390  -25.6610  -19.9540 C.ar  142  PHE142     -0.0203
    126  CD1      -57.0040  -26.9300  -20.1930 C.ar  142  PHE142     -0.0042
    127  CD2      -57.3980  -24.6060  -20.1500 C.ar  142  PHE142     -0.0042
    128  CE1      -58.3290  -27.1390  -20.5740 C.ar  142  PHE142     -0.0003
    129  CE2      -58.6970  -24.8070  -20.5210 C.ar  142  PHE142     -0.0003
    130  CZ       -59.1610  -26.0960  -20.7420 C.ar  142  PHE142     -0.0000
@<TRIPOS>BOND
     1    19    17    1
     2    12    13    1
     3    51    50    1
     4    38    37   ar
     5    15    14    2
     6    16    17    1
     7    16    13    1
     8    16    18    1
     9    13    14    1
    10    37    39   ar
    11    37    36    1
    12    50    49   ar
    13    50    48   ar
    14    14    20   am
    15    49    47   ar
    16    48    46   ar
    17    36    33    1
    18    35    34    2
    19    20    21    1
    20    33    34    1
    21    33    32    1
    22    21    22    1
    23    47    45   ar
    24    46    45   ar
    25    22    23    2
    26     4     3    2
    27    34    40   am
    28     3     2    1
    29    45    44    1
    30    27    26    2
    31     1     2    1
    32    32    26   am
    33     2     5    1
    34    26    25    1
    35    40    41    1
    36    41    44    1
    37    41    42    1
    38    24    25    1
    39    25    28    1
    40     5     6    1
    41   130   128   ar
    42   130   129   ar
    43     7     6   ar
    44     7     9   ar
    45   128   126   ar
    46   129   127   ar
    47     6     8   ar
    48    42    43    2
    49     9    11   ar
    50   126   125   ar
    51   127   125   ar
    52    30    29    2
    53   125   124    1
    54     8    10   ar
    55    28    29    1
    56    11    10   ar
    57   124   121    1
    58   119   117   ar
    59    82    81    2
    60    29    31   am
    61   103   102    1
    62   118   117   ar
    63    66    64    1
    64    74    72   ar
    65   117   116    1
    66    57    56    1
    67    81    83   am
    68    81    80    1
    69   121   122    1
    70   121   120    1
    71   111   109   am
    72   101   102   ar
    73   101    99   ar
    74   122   123    2
    75   102   100   ar
    76    64    63    1
    77    72    73   ar
    78    72    71    1
    79    52    53    1
    80    58    56    1
    81    80    79    1
    82   116   113    1
    83    56    53    1
    84    79    76    1
    85    99    97   ar
    86    63    65    1
    87    63    60    1
    88   100    98   ar
    89   109   110    2
    90   109   108    1
    91    53    54    1
    92   113   112    1
    93   113   114    1
    94    59    60    1
    95    59    54   am
    96    71    68    1
    97    91    89   am
    98    62    61    2
    99    97    98   ar
   100    97    96    1
   101    60    61    1
   102   108   105    1
   103    54    55    2
   104    76    75    1
   105    76    77    1
   106    78    77    2
   107   114   115    2
   108    89    88    1
   109    89    90    2
   110    96    93    1
   111    68    67    1
   112    68    69    1
   113    88    85    1
   114   105   104    1
   115   105   106    1
   116   104    94   am
   117    69    70    2
   118   106   107    2
   119    94    95    2
   120    94    93    1
   121    93    92    1
   122    84    85    1
   123    85    86    1
   124    86    87    2
