@<TRIPOS>MOLECULE
tmp/4avkB00.pdb
 126 120 0 0 0
SMALL
GASTEIGER

@<TRIPOS>ATOM
      1  N        -11.2130  -42.6330   -7.3710 N.3     1  PHE1       -0.1241
      2  CA       -10.0960  -41.6800   -7.4700 C.3     1  PHE1        0.1605
      3  C         -8.7760  -42.3040   -7.0270 C.2     1  PHE1        0.2264
      4  O         -8.6450  -42.7520   -5.8710 O.2     1  PHE1       -0.2867
      5  CB       -10.3660  -40.4020   -6.6590 C.3     1  PHE1        0.0534
      6  CG        -9.2430  -39.3940   -6.7270 C.ar    1  PHE1       -0.0203
      7  CD1       -8.1780  -39.4760   -5.8370 C.ar    1  PHE1       -0.0042
      8  CD2       -9.2500  -38.3580   -7.6420 C.ar    1  PHE1       -0.0042
      9  CE1       -7.1300  -38.5900   -5.8910 C.ar    1  PHE1       -0.0003
     10  CE2       -8.2060  -37.4530   -7.6850 C.ar    1  PHE1       -0.0003
     11  CZ        -7.1480  -37.5710   -6.8130 C.ar    1  PHE1       -0.0000
     12  N         -7.3430  -46.2530   -4.7550 N.3    13  ILE13      -0.1245
     13  CA        -8.5440  -45.7030   -4.1140 C.3    13  ILE13       0.1561
     14  C         -8.4220  -45.8110   -2.6110 C.2    13  ILE13       0.2260
     15  O         -8.0090  -46.8580   -2.0790 O.2    13  ILE13      -0.2867
     16  CB        -9.7800  -46.4780   -4.6070 C.3    13  ILE13       0.0252
     17  CG1      -10.0180  -46.0870   -6.0830 C.3    13  ILE13       0.0019
     18  CG2      -11.0080  -46.2570   -3.6810 C.3    13  ILE13       0.0019
     19  CD1      -10.8930  -47.0290   -6.8880 C.3    13  ILE13       0.0001
     20  N        -10.3350  -39.4120  -12.0460 N.3    46  ASN46      -0.1225
     21  CA       -11.6420  -39.6620  -11.4340 C.3    46  ASN46       0.1785
     22  C        -12.1470  -40.9990  -11.9740 C.2    46  ASN46       0.2597
     23  O        -12.1530  -41.2160  -13.1930 O.2    46  ASN46      -0.2718
     24  CB       -12.5890  -38.5090  -11.8370 C.3    46  ASN46       0.1169
     25  CG       -13.9810  -38.6000  -11.2130 C.2    46  ASN46       0.2627
     26  OD1      -14.5590  -39.6890  -11.0700 O.2    46  ASN46      -0.2716
     27  ND2      -14.5080  -37.4450  -10.8060 N.am   46  ASN46      -0.0877
     28  N        -12.5340  -41.9110  -11.0820 N.am   47  ASP47      -0.1960
     29  CA       -12.9670  -43.2320  -11.5340 C.3    47  ASP47       0.1840
     30  C        -14.3860  -43.3360  -12.0330 C.2    47  ASP47       0.2622
     31  O        -14.7560  -44.3320  -12.6590 O.2    47  ASP47      -0.2715
     32  CB       -12.7380  -44.2870  -10.4690 C.3    47  ASP47       0.1450
     33  CG       -11.3240  -44.6700  -10.3640 C.2    47  ASP47       0.3671
     34  OD1      -10.7560  -44.9680  -11.4310 O.co2  47  ASP47      -0.2456
     35  OD2      -10.8220  -44.7810   -9.2130 O.co2  47  ASP47      -0.2456
     36  N        -15.2030  -42.3590  -11.6640 N.am   48  TYR48      -0.1974
     37  CA       -16.6020  -42.3630  -12.0760 C.3    48  TYR48       0.1639
     38  C        -17.1160  -40.9610  -12.3670 C.2    48  TYR48       0.2290
     39  O        -18.0760  -40.5230  -11.7360 O.2    48  TYR48      -0.2864
     40  CB       -17.4780  -43.0320  -11.0140 C.3    48  TYR48       0.0560
     41  CG       -17.1720  -44.5100  -10.8050 C.ar   48  TYR48      -0.0198
     42  CD1      -17.7920  -45.4870  -11.5720 C.ar   48  TYR48      -0.0009
     43  CD2      -16.2580  -44.9330   -9.8320 C.ar   48  TYR48      -0.0009
     44  CE1      -17.5140  -46.8580  -11.3820 C.ar   48  TYR48       0.0417
     45  CE2      -15.9650  -46.3040   -9.6400 C.ar   48  TYR48       0.0417
     46  CZ       -16.6040  -47.2590  -10.4200 C.ar   48  TYR48       0.1957
     47  OH       -16.3410  -48.6170  -10.2580 O.3    48  TYR48      -0.2866
     48  N        -20.9510  -39.5560  -12.7490 N.3    51  THR51      -0.1203
     49  CA       -21.8470  -39.3530  -11.5990 C.3    51  THR51       0.1994
     50  C        -21.1730  -38.5650  -10.4540 C.2    51  THR51       0.2617
     51  O        -21.8480  -38.0050   -9.5840 O.2    51  THR51      -0.2717
     52  CB       -22.3960  -40.7080  -11.0510 C.3    51  THR51       0.1784
     53  OG1      -21.3640  -41.7020  -11.0680 O.3    51  THR51      -0.2211
     54  CG2      -23.5400  -41.2110  -11.9190 C.3    51  THR51       0.0376
     55  N        -19.8470  -38.4710  -10.4890 N.am   52  ILE52      -0.1979
     56  CA       -19.1020  -37.9050   -9.3620 C.3    52  ILE52       0.1595
     57  C        -18.0720  -36.8450   -9.7650 C.2    52  ILE52       0.2287
     58  O        -17.4030  -36.9550  -10.7990 O.2    52  ILE52      -0.2864
     59  CB       -18.3720  -39.0170   -8.5690 C.3    52  ILE52       0.0276
     60  CG1      -19.3460  -40.0750   -8.0500 C.3    52  ILE52       0.0022
     61  CG2      -17.5580  -38.4270   -7.4240 C.3    52  ILE52       0.0022
     62  CD1      -18.6520  -41.1710   -7.2440 C.3    52  ILE52       0.0001
     63  N        -14.6920  -35.1360   -8.2040 N.3    54  ASP54      -0.1239
     64  CA       -13.6300  -35.2480   -7.1910 C.3    54  ASP54       0.1674
     65  C        -12.9780  -33.8960   -6.9280 C.2    54  ASP54       0.2266
     66  O        -12.7050  -33.1340   -7.8600 O.2    54  ASP54      -0.2867
     67  CB       -12.5710  -36.2910   -7.6010 C.3    54  ASP54       0.1410
     68  CG       -13.0950  -37.7300   -7.5310 C.2    54  ASP54       0.3668
     69  OD1      -13.8310  -38.0800   -6.5770 O.co2  54  ASP54      -0.2456
     70  OD2      -12.7870  -38.5150   -8.4630 O.co2  54  ASP54      -0.2456
     71  N         -8.2410  -35.6130   -1.0970 N.3   133  GLN133     -0.1245
     72  CA        -9.3320  -35.7970   -2.0620 C.3   133  GLN133      0.1566
     73  C        -10.6780  -35.9770   -1.3880 C.2   133  GLN133      0.2260
     74  O        -10.8410  -36.8310   -0.5190 O.2   133  GLN133     -0.2867
     75  CB        -9.0600  -37.0070   -2.9660 C.3   133  GLN133      0.0367
     76  CG       -10.2000  -37.3350   -3.8900 C.3   133  GLN133      0.0905
     77  CD       -10.9140  -38.6020   -3.4890 C.2   133  GLN133      0.2608
     78  OE1      -10.2820  -39.5530   -2.9800 O.2   133  GLN133     -0.2717
     79  NE2      -12.2400  -38.6410   -3.7370 N.am  133  GLN133     -0.0878
     80  N        -15.2230  -35.5390   -2.4240 N.3   135  ASN135     -0.1240
     81  CA       -16.1430  -35.5590   -3.5570 C.3   135  ASN135      0.1653
     82  C        -17.5010  -34.9370   -3.2440 C.2   135  ASN135      0.2266
     83  O        -17.7280  -34.4790   -2.1150 O.2   135  ASN135     -0.2867
     84  CB       -16.3110  -36.9840   -4.1000 C.3   135  ASN135      0.1155
     85  CG       -16.8470  -37.9390   -3.0580 C.2   135  ASN135      0.2627
     86  OD1      -17.7770  -37.6050   -2.3190 O.2   135  ASN135     -0.2716
     87  ND2      -16.3090  -39.1640   -3.0370 N.am  135  ASN135     -0.0877
     88  N        -20.3460  -36.6640   -3.4400 N.3   137  TYR137     -0.1227
     89  CA       -21.1360  -37.8780   -3.5280 C.3   137  TYR137      0.1736
     90  C        -21.2740  -38.6020   -2.1760 C.2   137  TYR137      0.2595
     91  O        -22.3530  -39.1120   -1.8510 O.2   137  TYR137     -0.2718
     92  CB       -20.5550  -38.8070   -4.6040 C.3   137  TYR137      0.0548
     93  CG       -21.2500  -40.1430   -4.6890 C.ar  137  TYR137     -0.0200
     94  CD1      -22.4540  -40.2780   -5.3570 C.ar  137  TYR137     -0.0009
     95  CD2      -20.7220  -41.2720   -4.0580 C.ar  137  TYR137     -0.0009
     96  CE1      -23.1180  -41.4920   -5.4350 C.ar  137  TYR137      0.0417
     97  CE2      -21.3850  -42.5050   -4.1250 C.ar  137  TYR137      0.0417
     98  CZ       -22.5860  -42.6030   -4.8150 C.ar  137  TYR137      0.1957
     99  OH       -23.2550  -43.8110   -4.9020 O.3   137  TYR137     -0.2866
    100  N        -20.1890  -38.7010   -1.4230 N.am  138  ASN138     -0.1974
    101  CA       -20.2510  -39.3850   -0.1260 C.3   138  ASN138      0.1688
    102  C        -19.3480  -38.7430    0.9270 C.2   138  ASN138      0.2292
    103  O        -18.9940  -37.5700    0.8100 O.2   138  ASN138     -0.2864
    104  CB       -19.9630  -40.8990   -0.2870 C.3   138  ASN138      0.1181
    105  CG       -18.5540  -41.1980   -0.8230 C.2   138  ASN138      0.2629
    106  OD1      -17.6430  -40.3750   -0.7020 O.2   138  ASN138     -0.2716
    107  ND2      -18.3770  -42.3910   -1.4020 N.am  138  ASN138     -0.0877
    108  N        -16.2840  -39.7050    1.7400 N.3   140  ASP140     -0.1239
    109  CA       -14.8580  -39.9520    1.4840 C.3   140  ASP140      0.1674
    110  C        -13.9820  -38.7450    1.6560 C.2   140  ASP140      0.2266
    111  O        -14.2750  -37.7030    1.0830 O.2   140  ASP140     -0.2867
    112  CB       -14.6120  -40.5120    0.0810 C.3   140  ASP140      0.1410
    113  CG       -15.0780  -41.9290   -0.0850 C.2   140  ASP140      0.3668
    114  OD1      -15.4720  -42.5850    0.9130 O.co2 140  ASP140     -0.2456
    115  OD2      -15.0910  -42.3770   -1.2490 O.co2 140  ASP140     -0.2456
    116  N         -9.8070  -38.5690    1.7310 N.3   142  PHE142     -0.1241
    117  CA        -8.6250  -39.4240    1.6700 C.3   142  PHE142      0.1605
    118  C         -7.3600  -38.5930    1.4780 C.2   142  PHE142      0.2264
    119  O         -7.3410  -37.5760    0.7650 O.2   142  PHE142     -0.2867
    120  CB        -8.7440  -40.4440    0.5290 C.3   142  PHE142      0.0534
    121  CG        -9.8910  -41.4300    0.6740 C.ar  142  PHE142     -0.0203
    122  CD1      -10.1240  -42.0760    1.8850 C.ar  142  PHE142     -0.0042
    123  CD2      -10.7390  -41.7050   -0.3930 C.ar  142  PHE142     -0.0042
    124  CE1      -11.1670  -42.9900    2.0190 C.ar  142  PHE142     -0.0003
    125  CE2      -11.7760  -42.6360   -0.2750 C.ar  142  PHE142     -0.0003
    126  CZ       -12.0050  -43.2600    0.9370 C.ar  142  PHE142     -0.0000
@<TRIPOS>BOND
     1    23    22    2
     2    48    49    1
     3    31    30    2
     4    38    37    1
     5    38    39    2
     6    37    36    1
     7    37    40    1
     8    20    21    1
     9    30    36   am
    10    30    29    1
    11    22    21    1
    12    22    28   am
    13    54    52    1
    14    24    21    1
    15    24    25    1
    16    49    52    1
    17    49    50    1
    18    42    44   ar
    19    42    41   ar
    20    29    28    1
    21    29    32    1
    22    34    33   ar
    23    44    46   ar
    24    25    26    2
    25    25    27   am
    26    53    52    1
    27    40    41    1
    28    41    43   ar
    29    58    57    2
    30    55    50   am
    31    55    56    1
    32    32    33    1
    33    50    51    2
    34    46    47    1
    35    46    45   ar
    36    33    35   ar
    37    43    45   ar
    38    57    56    1
    39    56    59    1
    40    59    60    1
    41    59    61    1
    42    70    68   ar
    43    63    64    1
    44    60    62    1
    45    66    65    2
    46    10     8   ar
    47    10    11   ar
    48     8     6   ar
    49    67    68    1
    50    67    64    1
    51    68    69   ar
    52     2     1    1
    53     2     3    1
    54     2     5    1
    55    64    65    1
    56     3     4    2
    57    19    17    1
    58    11     9   ar
    59     6     5    1
    60     6     7   ar
    61    17    16    1
    62     9     7   ar
    63    96    94   ar
    64    96    98   ar
    65    94    93   ar
    66    99    98    1
    67    98    97   ar
    68    12    13    1
    69    93    92    1
    70    93    95   ar
    71    16    13    1
    72    16    18    1
    73    92    89    1
    74    97    95   ar
    75    13    14    1
    76    84    81    1
    77    84    85    1
    78    76    77    1
    79    76    75    1
    80    79    77   am
    81    81    82    1
    82    81    80    1
    83    89    88    1
    84    89    90    1
    85    77    78    2
    86    82    83    2
    87    85    87   am
    88    85    86    2
    89    75    72    1
    90    14    15    2
    91    90    91    2
    92    90   100   am
    93    72    73    1
    94    72    71    1
    95   100   101    1
    96   107   105   am
    97    73    74    2
    98   115   113   ar
    99   105   106    2
   100   105   104    1
   101   123   125   ar
   102   123   121   ar
   103   104   101    1
   104   125   126   ar
   105   101   102    1
   106   113   112    1
   107   113   114   ar
   108   112   109    1
   109   120   121    1
   110   120   117    1
   111   121   122   ar
   112   119   118    2
   113   103   102    2
   114   126   124   ar
   115   111   110    2
   116   118   117    1
   117   109   110    1
   118   109   108    1
   119   117   116    1
   120   122   124   ar
