@<TRIPOS>MOLECULE
tmp/4avnA00.pdb
 122 116 0 0 0
SMALL
GASTEIGER

@<TRIPOS>ATOM
      1  N         13.5160    3.3760   30.3890 N.3    39  TRP39      -0.1241
      2  CA        14.6030    3.1190   29.4270 C.3    39  TRP39       0.1605
      3  C         15.8030    2.4470   30.0920 C.2    39  TRP39       0.2264
      4  O         16.2830    2.9030   31.1320 O.2    39  TRP39      -0.2867
      5  CB        15.0500    4.4100   28.7210 C.3    39  TRP39       0.0550
      6  CG        14.0270    4.9560   27.7500 C.ar   39  TRP39       0.0003
      7  CD1       12.7610    5.3850   28.0500 C.ar   39  TRP39       0.0946
      8  CD2       14.1850    5.1420   26.3290 C.ar   39  TRP39       0.0152
      9  NE1       12.1210    5.8150   26.9090 N.ar   39  TRP39      -0.2442
     10  CE2       12.9690    5.6790   25.8410 C.ar   39  TRP39       0.0810
     11  CE3       15.2350    4.9100   25.4240 C.ar   39  TRP39       0.0012
     12  CZ2       12.7710    5.9890   24.4880 C.ar   39  TRP39       0.0191
     13  CZ3       15.0380    5.2160   24.0760 C.ar   39  TRP39       0.0001
     14  CH2       13.8120    5.7520   23.6210 C.ar   39  TRP39       0.0015
     15  N         19.0960    2.3510   29.1310 N.3    41  ASP41      -0.1239
     16  CA        19.9930    2.9610   28.1500 C.3    41  ASP41       0.1674
     17  C         21.4810    2.5990   28.3240 C.2    41  ASP41       0.2266
     18  O         22.3130    2.9820   27.5030 O.2    41  ASP41      -0.2867
     19  CB        19.8040    4.4880   28.1440 C.3    41  ASP41       0.1410
     20  CG        20.2340    5.1480   29.4530 C.2    41  ASP41       0.3668
     21  OD1       20.3640    4.4630   30.4950 O.co2  41  ASP41      -0.2456
     22  OD2       20.4440    6.3750   29.4390 O.co2  41  ASP41      -0.2456
     23  N         19.8910   10.0590   33.6870 N.3    53  THR53      -0.1203
     24  CA        18.8820    9.5140   32.7700 C.3    53  THR53       0.1994
     25  C         17.9670    8.4520   33.3880 C.2    53  THR53       0.2618
     26  O         16.8170    8.2990   32.9670 O.2    53  THR53      -0.2717
     27  CB        19.5030    8.9500   31.4600 C.3    53  THR53       0.1784
     28  OG1       20.4470    7.9220   31.7740 O.3    53  THR53      -0.2211
     29  CG2       20.1960   10.0450   30.6680 C.3    53  THR53       0.0376
     30  N         18.4760    7.7070   34.3660 N.am   54  THR54      -0.1952
     31  CA        17.6960    6.6200   34.9600 C.3    54  THR54       0.1897
     32  C         17.5310    6.7170   36.4840 C.2    54  THR54       0.2313
     33  O         16.7490    5.9610   37.0770 O.2    54  THR54      -0.2863
     34  CB        18.2090    5.2130   34.5170 C.3    54  THR54       0.1794
     35  OG1       19.5700    5.0260   34.9250 O.3    54  THR54      -0.2208
     36  CG2       18.1010    5.0530   32.9940 C.3    54  THR54       0.0378
     37  N         17.6140   -0.6620   24.7640 N.3    82  TYR82      -0.1241
     38  CA        18.2750    0.4010   24.0110 C.3    82  TYR82       0.1605
     39  C         19.7720    0.4690   24.3110 C.2    82  TYR82       0.2264
     40  O         20.2360    1.4070   24.9610 O.2    82  TYR82      -0.2867
     41  CB        17.6000    1.7570   24.3150 C.3    82  TYR82       0.0534
     42  CG        18.0740    2.9120   23.4480 C.ar   82  TYR82      -0.0201
     43  CD1       17.9210    2.8730   22.0600 C.ar   82  TYR82      -0.0009
     44  CD2       18.6670    4.0490   24.0150 C.ar   82  TYR82      -0.0009
     45  CE1       18.3520    3.9290   21.2530 C.ar   82  TYR82       0.0417
     46  CE2       19.0970    5.1220   23.2120 C.ar   82  TYR82       0.0417
     47  CZ        18.9340    5.0490   21.8360 C.ar   82  TYR82       0.1957
     48  OH        19.3510    6.0850   21.0230 O.3    82  TYR82      -0.2866
     49  N         25.1520    1.6650   18.5270 N.3    87  ARG87      -0.1245
     50  CA        23.8180    2.2380   18.6790 C.3    87  ARG87       0.1563
     51  C         23.6760    3.5670   17.9530 C.2    87  ARG87       0.2260
     52  O         24.5560    4.4270   18.0540 O.2    87  ARG87      -0.2867
     53  CB        23.5220    2.4670   20.1620 C.3    87  ARG87       0.0307
     54  CG        22.0860    2.8640   20.4770 C.3    87  ARG87       0.0489
     55  CD        21.8860    2.9680   21.9870 C.3    87  ARG87       0.2205
     56  NE        22.4210    4.2150   22.5340 N.pl3  87  ARG87      -0.0865
     57  CZ        22.4980    4.5020   23.8320 C.cat  87  ARG87       0.5346
     58  NH1       22.0940    3.6310   24.7490 N.pl3  87  ARG87       0.1354
     59  NH2       22.9880    5.6650   24.2170 N.pl3  87  ARG87       0.1354
     60  N         22.7700   10.0820   20.5880 N.3    94  ALA94      -0.1245
     61  CA        22.4460    8.9330   21.4220 C.3    94  ALA94       0.1562
     62  C         23.2980    7.7170   21.0720 C.2    94  ALA94       0.2260
     63  O         22.8380    6.5730   21.1710 O.2    94  ALA94      -0.2867
     64  CB        20.9530    8.6100   21.3410 C.3    94  ALA94       0.0290
     65  N          9.1250    7.7280   24.6800 N.3   353  LYS353     -0.1231
     66  CA        10.0150    8.8380   25.0280 C.3   353  LYS353      0.1678
     67  C          9.3760    9.6340   26.1830 C.2   353  LYS353      0.2434
     68  O          8.2520   10.1090   26.0520 O.2   353  LYS353     -0.2733
     69  CB        10.2670    9.7260   23.8080 C.3   353  LYS353      0.0284
     70  CG        11.1430   10.9450   24.0840 C.3   353  LYS353      0.0035
     71  CD        12.5660   10.5440   24.5110 C.3   353  LYS353      0.0206
     72  CE        13.4110   11.7930   24.7850 C.3   353  LYS353      0.1093
     73  NZ        14.8330   11.4740   25.0720 N.3   353  LYS353     -0.1314
     74  N         10.0660    9.7330   27.3390 N.am  354  PRO354     -0.2729
     75  CA         9.4280   10.4280   28.4550 C.3   354  PRO354      0.1401
     76  C          9.5030   11.9410   28.2610 C.2   354  PRO354      0.2269
     77  O         10.5960   12.4770   28.0920 O.2   354  PRO354     -0.2865
     78  CB        10.2500    9.9800   29.6680 C.3   354  PRO354      0.0296
     79  CG        10.9960    8.7150   29.1900 C.3   354  PRO354      0.0237
     80  CD        11.3010    9.0500   27.7630 C.3   354  PRO354      0.0939
     81  N         12.5910   14.7730   28.7450 N.3   357  GLU357     -0.1231
     82  CA        13.9400   14.2210   28.5810 C.3   357  GLU357      0.1699
     83  C         14.4760   14.5940   27.2050 C.2   357  GLU357      0.2593
     84  O         13.8120   14.3700   26.1930 O.2   357  GLU357     -0.2718
     85  CB        13.9460   12.7010   28.8240 C.3   357  GLU357      0.0402
     86  CG        13.4890   12.3550   30.2430 C.3   357  GLU357      0.1161
     87  CD        13.6350   10.8860   30.6300 C.2   357  GLU357      0.3649
     88  OE1       14.0700   10.0680   29.7940 O.co2 357  GLU357     -0.2457
     89  OE2       13.2910   10.5550   31.7940 O.co2 357  GLU357     -0.2457
     90  N         15.6660   15.1990   27.1850 N.am  358  SER358     -0.1938
     91  CA        16.2580   15.7560   25.9570 C.3   358  SER358      0.2055
     92  C         16.5850   14.7020   24.8930 C.2   358  SER358      0.2643
     93  O         16.8640   13.5330   25.2200 O.2   358  SER358     -0.2714
     94  CB        17.5050   16.5780   26.3090 C.3   358  SER358      0.2130
     95  OG        18.1840   17.0210   25.1490 O.3   358  SER358     -0.2179
     96  N         16.5280   15.1180   23.6250 N.am  359  ASP359     -0.1971
     97  CA        16.9280   14.2680   22.4990 C.3   359  ASP359      0.1709
     98  C         18.4270   14.3030   22.2520 C.2   359  ASP359      0.2293
     99  O         18.9450   13.4960   21.4810 O.2   359  ASP359     -0.2864
    100  CB        16.2240   14.7000   21.2100 C.3   359  ASP359      0.1436
    101  CG        14.7340   14.4850   21.2570 C.2   359  ASP359      0.3671
    102  OD1       14.2870   13.5370   21.9420 O.co2 359  ASP359     -0.2456
    103  OD2       14.0140   15.2710   20.6040 O.co2 359  ASP359     -0.2456
    104  N         28.1530    9.6600   24.4370 N.3   371  LYS371     -0.1245
    105  CA        27.3190   10.5370   23.6130 C.3   371  LYS371      0.1561
    106  C         28.0980   11.7430   23.0990 C.2   371  LYS371      0.2260
    107  O         28.7480   12.4530   23.8660 O.2   371  LYS371     -0.2867
    108  CB        26.0800   10.9910   24.3980 C.3   371  LYS371      0.0271
    109  CG        25.1000    9.8680   24.6920 C.3   371  LYS371      0.0035
    110  CD        24.1490   10.2410   25.8100 C.3   371  LYS371      0.0206
    111  CE        23.1470    9.1280   26.0710 C.3   371  LYS371      0.1093
    112  NZ        22.1550    9.5350   27.1060 N.3   371  LYS371     -0.1314
    113  N         21.2570   13.9740   25.8160 N.3   401  SER401     -0.1202
    114  CA        20.0750   13.1300   25.6120 C.3   401  SER401      0.2020
    115  C         19.7120   12.3740   26.8910 C.2   401  SER401      0.2619
    116  O         20.5740   11.7920   27.5530 O.2   401  SER401     -0.2717
    117  CB        20.2440   12.1770   24.4260 C.3   401  SER401      0.2103
    118  OG        21.2380   11.2020   24.6690 O.3   401  SER401     -0.2182
    119  N         18.4380   12.4460   27.2570 N.am  402  GLY402     -0.1956
    120  CA        17.9140   11.7150   28.4070 C.3   402  GLY402      0.1869
    121  C         17.9580   12.5530   29.6650 C.2   402  GLY402      0.2309
    122  O         17.3140   12.2240   30.6580 O.2   402  GLY402     -0.2863
@<TRIPOS>BOND
     1    51    52    2
     2    51    50    1
     3    49    50    1
     4    50    53    1
     5    53    54    1
     6    54    55    1
     7    60    61    1
     8   103   101   ar
     9    48    47    1
    10    62    63    2
    11    62    61    1
    12   100   101    1
    13   100    97    1
    14    45    47   ar
    15    45    43   ar
    16   101   102   ar
    17    64    61    1
    18    99    98    2
    19    47    46   ar
    20    55    56    1
    21    43    42   ar
    22    98    97    1
    23    97    96    1
    24    56    57    2
    25   106   105    1
    26   106   107    2
    27    46    44   ar
    28    42    44   ar
    29    42    41    1
    30   105   108    1
    31   105   104    1
    32    14    13   ar
    33    14    12   ar
    34    96    92   am
    35    69    70    1
    36    69    66    1
    37    57    59    1
    38    57    58    1
    39    38    39    1
    40    38    41    1
    41    38    37    1
    42    13    11   ar
    43    70    71    1
    44    39    40    2
    45   108   109    1
    46   117   118    1
    47   117   114    1
    48    12    10   ar
    49    71    72    1
    50    65    66    1
    51   109   110    1
    52    72    73    1
    53    92    93    2
    54    92    91    1
    55    66    67    1
    56    95    94    1
    57    11     8   ar
    58   114   113    1
    59   114   115    1
    60   110   111    1
    61    10     8   ar
    62    10     9   ar
    63    91    94    1
    64    91    90    1
    65    68    67    2
    66   111   112    1
    67    67    74   am
    68    84    83    2
    69     8     6   ar
    70   115   119   am
    71   115   116    2
    72     9     7   ar
    73    90    83   am
    74    83    82    1
    75   119   120    1
    76    74    80    1
    77    74    75    1
    78    18    17    2
    79     6     7   ar
    80     6     5    1
    81    80    79    1
    82    77    76    2
    83    19    16    1
    84    19    20    1
    85    16    17    1
    86    16    15    1
    87    76    75    1
    88   120   121    1
    89    75    78    1
    90    82    81    1
    91    82    85    1
    92     5     2    1
    93    85    86    1
    94    79    78    1
    95     2     3    1
    96     2     1    1
    97    22    20   ar
    98    20    21   ar
    99   121   122    2
   100    88    87   ar
   101     3     4    2
   102    86    87    1
   103    87    89   ar
   104    29    27    1
   105    27    28    1
   106    27    24    1
   107    24    25    1
   108    24    23    1
   109    26    25    2
   110    36    34    1
   111    25    30   am
   112    30    31    1
   113    34    35    1
   114    34    31    1
   115    31    32    1
   116    32    33    2
