@<TRIPOS>MOLECULE
tmp/4avnA01.pdb
 230 226 0 0 0
SMALL
GASTEIGER

@<TRIPOS>ATOM
      1  N         17.6140   -0.6620   24.7640 N.3    82  TYR82      -0.1241
      2  CA        18.2750    0.4010   24.0110 C.3    82  TYR82       0.1605
      3  C         19.7720    0.4690   24.3110 C.2    82  TYR82       0.2264
      4  O         20.2360    1.4070   24.9610 O.2    82  TYR82      -0.2867
      5  CB        17.6000    1.7570   24.3150 C.3    82  TYR82       0.0534
      6  CG        18.0740    2.9120   23.4480 C.ar   82  TYR82      -0.0201
      7  CD1       17.9210    2.8730   22.0600 C.ar   82  TYR82      -0.0009
      8  CD2       18.6670    4.0490   24.0150 C.ar   82  TYR82      -0.0009
      9  CE1       18.3520    3.9290   21.2530 C.ar   82  TYR82       0.0417
     10  CE2       19.0970    5.1220   23.2120 C.ar   82  TYR82       0.0417
     11  CZ        18.9340    5.0490   21.8360 C.ar   82  TYR82       0.1957
     12  OH        19.3510    6.0850   21.0230 O.3    82  TYR82      -0.2866
     13  N         22.5600    3.7170   17.2330 N.3    88  ALA88      -0.1245
     14  CA        22.1790    4.9770   16.5960 C.3    88  ALA88       0.1562
     15  C         23.2660    5.4030   15.6310 C.2    88  ALA88       0.2260
     16  O         23.8300    6.4890   15.7610 O.2    88  ALA88      -0.2867
     17  CB        21.9360    6.0530   17.6490 C.3    88  ALA88       0.0290
     18  N         23.5250    6.4180   12.5710 N.3    90  ALA90      -0.1231
     19  CA        23.4300    7.5780   11.6730 C.3    90  ALA90       0.1694
     20  C         23.6140    8.9130   12.3980 C.2    90  ALA90       0.2591
     21  O         23.7510    9.9520   11.7590 O.2    90  ALA90      -0.2718
     22  CB        22.1150    7.5650   10.9360 C.3    90  ALA90       0.0304
     23  N         23.6090    8.8810   13.7290 N.am   91  ALA91      -0.1980
     24  CA        23.6630   10.1010   14.5360 C.3    91  ALA91       0.1597
     25  C         24.7090   10.0170   15.6460 C.2    91  ALA91       0.2287
     26  O         25.3620    8.9830   15.8180 O.2    91  ALA91      -0.2864
     27  CB        22.2650   10.4200   15.1160 C.3    91  ALA91       0.0319
     28  N         24.0210   11.9100   18.8850 N.3    93  ALA93      -0.1231
     29  CA        23.3880   12.3920   20.1270 C.3    93  ALA93       0.1694
     30  C         23.0380   11.2740   21.1180 C.2    93  ALA93       0.2591
     31  O         23.0040   11.4960   22.3350 O.2    93  ALA93      -0.2718
     32  CB        22.1530   13.2160   19.8080 C.3    93  ALA93       0.0304
     33  N         22.7700   10.0820   20.5880 N.am   94  ALA94      -0.1980
     34  CA        22.4460    8.9330   21.4220 C.3    94  ALA94       0.1597
     35  C         23.2980    7.7170   21.0720 C.2    94  ALA94       0.2287
     36  O         22.8380    6.5730   21.1710 O.2    94  ALA94      -0.2864
     37  CB        20.9530    8.6100   21.3410 C.3    94  ALA94       0.0319
     38  N         15.1780    1.1230   19.5850 N.3   135  ILE135     -0.1231
     39  CA        14.8310    2.3260   18.8390 C.3   135  ILE135      0.1692
     40  C         15.9930    2.7320   17.9380 C.2   135  ILE135      0.2592
     41  O         17.1550    2.5110   18.2970 O.2   135  ILE135     -0.2718
     42  CB        14.4780    3.4520   19.8600 C.3   135  ILE135      0.0266
     43  CG1       12.9800    3.4660   20.1350 C.3   135  ILE135      0.0019
     44  CG2       14.9230    4.8310   19.4080 C.3   135  ILE135      0.0020
     45  CD1       12.4050    2.1480   20.5120 C.3   135  ILE135      0.0001
     46  N         15.6850    3.2870   16.7650 N.am  136  ASP136     -0.1974
     47  CA        16.6960    3.9410   15.9230 C.3   136  ASP136      0.1709
     48  C         17.8210    2.9680   15.5600 C.2   136  ASP136      0.2293
     49  O         19.0100    3.2830   15.6650 O.2   136  ASP136     -0.2864
     50  CB        17.2220    5.1980   16.6510 C.3   136  ASP136      0.1436
     51  CG        18.2170    5.9970   15.8370 C.2   136  ASP136      0.3671
     52  OD1       18.2130    5.9180   14.5960 O.co2 136  ASP136     -0.2456
     53  OD2       19.0110    6.7280   16.4590 O.co2 136  ASP136     -0.2456
     54  N         18.0510    2.4350    9.9140 N.3   140  ASN140     -0.1240
     55  CA        19.3330    3.0170    9.5190 C.3   140  ASN140      0.1653
     56  C         20.0750    2.1790    8.4780 C.2   140  ASN140      0.2266
     57  O         20.8270    2.7080    7.6650 O.2   140  ASN140     -0.2867
     58  CB        20.2490    3.1850   10.7360 C.3   140  ASN140      0.1155
     59  CG        19.7620    4.2480   11.7040 C.2   140  ASN140      0.2627
     60  OD1       19.4810    3.9590   12.8740 O.2   140  ASN140     -0.2716
     61  ND2       19.6550    5.4810   11.2260 N.am  140  ASN140     -0.0877
     62  N         18.3410    3.2040    5.1380 N.3   143  THR143     -0.1203
     63  CA        18.4250    4.5890    4.6530 C.3   143  THR143      0.1994
     64  C         19.7990    5.2600    4.8090 C.2   143  THR143      0.2617
     65  O         20.0460    6.3110    4.1990 O.2   143  THR143     -0.2717
     66  CB        17.3580    5.4800    5.3300 C.3   143  THR143      0.1784
     67  OG1       17.6870    5.6570    6.7150 O.3   143  THR143     -0.2211
     68  CG2       15.9670    4.8440    5.2130 C.3   143  THR143      0.0376
     69  N         20.6800    4.6650    5.6130 N.am  144  ASN144     -0.1974
     70  CA        21.9850    5.2760    5.9140 C.3   144  ASN144      0.1688
     71  C         23.2080    4.4110    5.5810 C.2   144  ASN144      0.2292
     72  O         24.2940    4.5960    6.1500 O.2   144  ASN144     -0.2864
     73  CB        22.0170    5.7700    7.3660 C.3   144  ASN144      0.1181
     74  CG        21.0630    6.9360    7.5940 C.2   144  ASN144      0.2629
     75  OD1       21.3520    8.0660    7.1990 O.2   144  ASN144     -0.2716
     76  ND2       19.9120    6.6610    8.1990 N.am  144  ASN144     -0.0877
     77  N         10.6490    3.0140   13.0990 N.3   187  ALA187     -0.1231
     78  CA        10.8870    4.3770   12.6320 C.3   187  ALA187      0.1694
     79  C          9.5590    5.1560   12.6250 C.2   187  ALA187      0.2592
     80  O          8.7490    4.9950   13.5340 O.2   187  ALA187     -0.2718
     81  CB        11.5300    4.3480   11.2250 C.3   187  ALA187      0.0304
     82  N          9.3480    5.9820   11.6050 N.am  188  HIS188     -0.1976
     83  CA         8.1110    6.7510   11.4450 C.3   188  HIS188      0.1656
     84  C          7.8830    7.0540    9.9580 C.2   188  HIS188      0.2291
     85  O          8.7630    6.7880    9.1270 O.2   188  HIS188     -0.2864
     86  CB         8.1350    8.0350   12.3050 C.3   188  HIS188      0.0771
     87  CG         9.1830    9.0260   11.9030 C.ar  188  HIS188      0.0820
     88  ND1        8.8920   10.1680   11.1890 N.ar  188  HIS188     -0.2267
     89  CD2       10.5210    9.0480   12.1180 C.ar  188  HIS188      0.1154
     90  CE1       10.0050   10.8500   10.9780 C.ar  188  HIS188      0.1986
     91  NE2       11.0080   10.1910   11.5330 N.ar  188  HIS188     -0.2212
     92  N          7.8780    9.7760    8.2360 N.3   190  GLY190     -0.1210
     93  CA         8.7920   10.7540    7.6440 C.3   190  GLY190      0.1956
     94  C         10.2110   10.2270    7.5660 C.2   190  GLY190      0.2611
     95  O         11.1570   10.9910    7.3550 O.2   190  GLY190     -0.2717
     96  N         10.3600    8.9230    7.7790 N.am  191  TRP191     -0.1976
     97  CA        11.6450    8.2430    7.6510 C.3   191  TRP191      0.1640
     98  C         11.5360    7.1820    6.5480 C.2   191  TRP191      0.2290
     99  O         12.2700    7.2200    5.5580 O.2   191  TRP191     -0.2864
    100  CB        12.0480    7.5910    8.9810 C.3   191  TRP191      0.0576
    101  CG        13.4750    7.0510    9.0410 C.ar  191  TRP191      0.0006
    102  CD1       14.3110    6.7750    7.9850 C.ar  191  TRP191      0.0946
    103  CD2       14.2040    6.7000   10.2270 C.ar  191  TRP191      0.0152
    104  NE1       15.5120    6.2850    8.4480 N.ar  191  TRP191     -0.2442
    105  CE2       15.4720    6.2270    9.8180 C.ar  191  TRP191      0.0810
    106  CE3       13.9080    6.7480   11.5990 C.ar  191  TRP191      0.0012
    107  CZ2       16.4480    5.8020   10.7330 C.ar  191  TRP191      0.0191
    108  CZ3       14.8790    6.3160   12.5080 C.ar  191  TRP191      0.0001
    109  CH2       16.1340    5.8580   12.0680 C.ar  191  TRP191      0.0015
    110  N          8.4920    6.5840    2.2730 N.3   194  TRP194     -0.1241
    111  CA         8.7340    6.5400    0.8320 C.3   194  TRP194      0.1605
    112  C          8.8450    5.1140    0.2800 C.2   194  TRP194      0.2264
    113  O          9.2860    4.1980    0.9790 O.2   194  TRP194     -0.2867
    114  CB         9.9950    7.3260    0.4800 C.3   194  TRP194      0.0550
    115  CG         9.8620    8.8010    0.7100 C.ar  194  TRP194      0.0003
    116  CD1        9.4590    9.7330   -0.1970 C.ar  194  TRP194      0.0946
    117  CD2       10.1270    9.5090    1.9250 C.ar  194  TRP194      0.0152
    118  NE1        9.4620   10.9810    0.3730 N.ar  194  TRP194     -0.2442
    119  CE2        9.8680   10.8750    1.6760 C.ar  194  TRP194      0.0810
    120  CE3       10.5730    9.1240    3.1950 C.ar  194  TRP194      0.0012
    121  CZ2       10.0320   11.8640    2.6530 C.ar  194  TRP194      0.0191
    122  CZ3       10.7330   10.1050    4.1720 C.ar  194  TRP194      0.0001
    123  CH2       10.4640   11.4630    3.8920 C.ar  194  TRP194      0.0015
    124  N         10.9580    3.7800   -1.7730 N.3   196  SER196     -0.1202
    125  CA        12.3160    3.2520   -1.7440 C.3   196  SER196      0.2020
    126  C         12.7370    2.6730   -0.3920 C.2   196  SER196      0.2618
    127  O         13.6350    1.8370   -0.3400 O.2   196  SER196     -0.2717
    128  CB        13.3060    4.3370   -2.1710 C.3   196  SER196      0.2103
    129  OG        13.2830    5.4080   -1.2470 O.3   196  SER196     -0.2182
    130  N         12.1040    3.1320    0.6920 N.am  197  ASN197     -0.1974
    131  CA        12.4750    2.7340    2.0560 C.3   197  ASN197      0.1688
    132  C         11.5270    1.7060    2.6800 C.2   197  ASN197      0.2292
    133  O         11.9520    0.8840    3.4860 O.2   197  ASN197     -0.2864
    134  CB        12.5350    3.9510    3.0030 C.3   197  ASN197      0.1181
    135  CG        13.5900    4.9850    2.6100 C.2   197  ASN197      0.2629
    136  OD1       13.4590    6.1660    2.9510 O.2   197  ASN197     -0.2716
    137  ND2       14.6420    4.5490    1.9210 N.am  197  ASN197     -0.0877
    138  N          8.6850    6.6510   17.8000 N.3   226  THR226     -0.1203
    139  CA         9.3660    6.6740   19.0920 C.3   226  THR226      0.1994
    140  C         10.3500    7.8340   19.1730 C.2   226  THR226      0.2618
    141  O         11.2210    7.9690   18.3230 O.2   226  THR226     -0.2717
    142  CB        10.1180    5.3750   19.3980 C.3   226  THR226      0.1784
    143  OG1        9.2560    4.2500   19.1890 O.3   226  THR226     -0.2211
    144  CG2       10.5800    5.3950   20.8600 C.3   226  THR226      0.0376
    145  N         10.1960    8.6640   20.2030 N.am  227  ALA227     -0.1965
    146  CA        10.9810    9.8980   20.3410 C.3   227  ALA227      0.1728
    147  C         10.8900   10.8390   19.1310 C.2   227  ALA227      0.2616
    148  O         11.7530   11.7070   18.9440 O.2   227  ALA227     -0.2715
    149  CB        12.4510    9.5880   20.6870 C.3   227  ALA227      0.0334
    150  N          9.8590   10.6800   18.3080 N.am  228  ASN228     -0.1972
    151  CA         9.6760   11.5990   17.1780 C.3   228  ASN228      0.1688
    152  C          8.3970   12.4300   17.3480 C.2   228  ASN228      0.2292
    153  O          7.7540   12.3850   18.4060 O.2   228  ASN228     -0.2864
    154  CB         9.7860   10.8740   15.8140 C.3   228  ASN228      0.1181
    155  CG        10.4360   11.7420   14.7290 C.2   228  ASN228      0.2629
    156  OD1       11.5980   11.5420   14.3590 O.2   228  ASN228     -0.2716
    157  ND2        9.6920   12.7040   14.2200 N.am  228  ASN228     -0.0877
    158  N          6.8070   15.7930   -0.3030 N.3   255  ASP255     -0.1225
    159  CA         7.9750   15.3930   -1.0920 C.3   255  ASP255      0.1805
    160  C          7.9260   13.9290   -1.5330 C.2   255  ASP255      0.2597
    161  O          8.8770   13.1650   -1.3210 O.2   255  ASP255     -0.2718
    162  CB         9.2670   15.6940   -0.3190 C.3   255  ASP255      0.1424
    163  CG        10.5110   15.5980   -1.1850 C.2   255  ASP255      0.3668
    164  OD1       10.3880   15.5890   -2.4280 O.co2 255  ASP255     -0.2456
    165  OD2       11.6180   15.5260   -0.6110 O.co2 255  ASP255     -0.2456
    166  N          6.7970   13.5500   -2.1250 N.am  256  TRP256     -0.1976
    167  CA         6.6000   12.2200   -2.7110 C.3   256  TRP256      0.1640
    168  C          6.4760   11.0700   -1.7090 C.2   256  TRP256      0.2290
    169  O          6.4090    9.8990   -2.1050 O.2   256  TRP256     -0.2864
    170  CB         7.6660   11.9310   -3.7820 C.3   256  TRP256      0.0576
    171  CG         7.5970   12.9440   -4.8550 C.ar  256  TRP256      0.0006
    172  CD1        8.4950   13.9460   -5.1040 C.ar  256  TRP256      0.0946
    173  CD2        6.5320   13.1080   -5.8030 C.ar  256  TRP256      0.0152
    174  NE1        8.0650   14.7070   -6.1660 N.ar  256  TRP256     -0.2442
    175  CE2        6.8640   14.2150   -6.6120 C.ar  256  TRP256      0.0810
    176  CE3        5.3380   12.4140   -6.0560 C.ar  256  TRP256      0.0012
    177  CZ2        6.0460   14.6460   -7.6630 C.ar  256  TRP256      0.0191
    178  CZ3        4.5210   12.8450   -7.0980 C.ar  256  TRP256      0.0001
    179  CH2        4.8780   13.9550   -7.8850 C.ar  256  TRP256      0.0015
    180  N         11.2520   20.5840    8.2870 N.3   322  HIS322     -0.1227
    181  CA        11.4720   19.3850    7.4800 C.3   322  HIS322      0.1737
    182  C         11.1430   18.1440    8.3220 C.2   322  HIS322      0.2438
    183  O         11.4150   18.1300    9.5260 O.2   322  HIS322     -0.2733
    184  CB        12.9210   19.3330    6.9900 C.3   322  HIS322      0.0758
    185  CG        13.1470   18.3750    5.8580 C.ar  322  HIS322      0.0818
    186  ND1       13.5590   17.0740    6.0550 N.ar  322  HIS322     -0.2268
    187  CD2       13.0200   18.5300    4.5170 C.ar  322  HIS322      0.1154
    188  CE1       13.6650   16.4650    4.8860 C.ar  322  HIS322      0.1986
    189  NE2       13.3510   17.3280    3.9360 N.ar  322  HIS322     -0.2212
    190  N         10.5510   17.0970    7.6970 N.am  323  PRO323     -0.2718
    191  CA        10.2220   15.8850    8.4790 C.3   323  PRO323      0.1535
    192  C         11.4490   15.1880    9.0760 C.2   323  PRO323      0.2599
    193  O         11.3190   14.4470   10.0580 O.2   323  PRO323     -0.2715
    194  CB         9.5170   14.9750    7.4610 C.3   323  PRO323      0.0310
    195  CG         9.9140   15.5050    6.1050 C.3   323  PRO323      0.0237
    196  CD        10.1140   16.9890    6.2900 C.3   323  PRO323      0.0939
    197  N         12.6280   15.4440    8.5060 N.am  324  GLY324     -0.1955
    198  CA        13.8850   14.8750    9.0030 C.3   324  GLY324      0.1869
    199  C         14.4700   15.5660   10.2290 C.2   324  GLY324      0.2309
    200  O         15.4770   15.1080   10.7810 O.2   324  GLY324     -0.2863
    201  N         14.6590   15.9320   13.7850 N.3   326  TRP326     -0.1241
    202  CA        14.2800   14.9720   14.8290 C.3   326  TRP326      0.1605
    203  C         14.5890   15.3920   16.2670 C.2   326  TRP326      0.2264
    204  O         14.0990   14.7580   17.2070 O.2   326  TRP326     -0.2867
    205  CB        14.9370   13.6050   14.5520 C.3   326  TRP326      0.0550
    206  CG        16.4430   13.6720   14.4270 C.ar  326  TRP326      0.0003
    207  CD1       17.1610   13.7680   13.2690 C.ar  326  TRP326      0.0946
    208  CD2       17.4010   13.6570   15.4950 C.ar  326  TRP326      0.0152
    209  NE1       18.5090   13.8000   13.5470 N.ar  326  TRP326     -0.2442
    210  CE2       18.6860   13.7290   14.9030 C.ar  326  TRP326      0.0810
    211  CE3       17.3030   13.5670   16.8930 C.ar  326  TRP326      0.0012
    212  CZ2       19.8600   13.7400   15.6580 C.ar  326  TRP326      0.0191
    213  CZ3       18.4790   13.5730   17.6490 C.ar  326  TRP326      0.0001
    214  CH2       19.7380   13.6620   17.0260 C.ar  326  TRP326      0.0015
    215  N         21.9860   16.8000    3.7530 N.3   385  ALA385     -0.1231
    216  CA        21.1930   16.0280    2.7960 C.3   385  ALA385      0.1694
    217  C         19.9120   15.4510    3.4100 C.2   385  ALA385      0.2591
    218  O         18.8230   15.6130    2.8420 O.2   385  ALA385     -0.2718
    219  CB        22.0470   14.9110    2.1980 C.3   385  ALA385      0.0304
    220  N         20.0550   14.8000    4.5720 N.am  386  ARG386     -0.1980
    221  CA        18.9540   14.1140    5.2750 C.3   386  ARG386      0.1597
    222  C         17.9150   15.0390    5.9350 C.2   386  ARG386      0.2287
    223  O         17.1050   14.5700    6.7470 O.2   386  ARG386     -0.2864
    224  CB        19.5050   13.1590    6.3490 C.3   386  ARG386      0.0334
    225  CG        20.2650   11.9280    5.8450 C.3   386  ARG386      0.0492
    226  CD        19.3490   10.7630    5.4300 C.3   386  ARG386      0.2205
    227  NE        20.1160    9.6700    4.8130 N.pl3 386  ARG386     -0.0865
    228  CZ        20.6810    9.7230    3.6040 C.cat 386  ARG386      0.5346
    229  NH1       20.5790   10.8230    2.8500 N.pl3 386  ARG386      0.1354
    230  NH2       21.3590    8.6780    3.1460 N.pl3 386  ARG386      0.1354
@<TRIPOS>BOND
     1   179   177   ar
     2   179   178   ar
     3   177   175   ar
     4   178   176   ar
     5   175   174   ar
     6   175   173   ar
     7   174   172   ar
     8   176   173   ar
     9   173   171   ar
    10   172   171   ar
    11   171   170    1
    12   170   167    1
    13   167   166    1
    14   167   168    1
    15   164   163   ar
    16   128   125    1
    17   128   129    1
    18   166   160   am
    19   169   168    2
    20   124   125    1
    21   125   126    1
    22   160   161    2
    23   160   159    1
    24   163   165   ar
    25   163   162    1
    26   159   162    1
    27   159   158    1
    28   126   127    2
    29   126   130   am
    30   116   118   ar
    31   116   115   ar
    32   112   111    1
    33   112   113    2
    34   118   119   ar
    35   114   115    1
    36   114   111    1
    37   130   131    1
    38   115   117   ar
    39   111   110    1
    40   119   117   ar
    41   119   121   ar
    42   137   135   am
    43   117   120   ar
    44   131   132    1
    45   131   134    1
    46   219   216    1
    47   135   136    2
    48   135   134    1
    49   121   123   ar
    50   132   133    2
    51   216   217    1
    52   216   215    1
    53   218   217    2
    54   229   228    1
    55   230   228    1
    56   120   122   ar
    57   217   220   am
    58   228   227    2
    59   123   122   ar
    60   189   187   ar
    61   189   188   ar
    62    65    64    2
    63   187   185   ar
    64   220   221    1
    65    63    64    1
    66    63    62    1
    67    63    66    1
    68    64    69   am
    69   227   226    1
    70   188   186   ar
    71    68    66    1
    72   221   222    1
    73   221   224    1
    74    66    67    1
    75   226   225    1
    76    99    98    2
    77    71    70    1
    78    71    72    2
    79    69    70    1
    80   225   224    1
    81   185   186   ar
    82   185   184    1
    83    70    73    1
    84   222   223    2
    85   195   196    1
    86   195   194    1
    87   196   190    1
    88    98    97    1
    89   184   181    1
    90    75    74    2
    91    95    94    2
    92    73    74    1
    93   194   191    1
    94   181   180    1
    95   181   182    1
    96    94    93    1
    97    94    96   am
    98    74    76   am
    99    93    92    1
   100    97    96    1
   101    97   100    1
   102    57    56    2
   103   190   182   am
   104   190   191    1
   105   102   104   ar
   106   102   101   ar
   107   182   183    2
   108   104   105   ar
   109    56    55    1
   110   191   192    1
   111   197   198    1
   112   197   192   am
   113   100   101    1
   114   198   199    1
   115   101   103   ar
   116   192   193    2
   117    85    84    2
   118    55    54    1
   119    55    58    1
   120   105   103   ar
   121   105   107   ar
   122    84    83    1
   123   103   106   ar
   124   199   200    2
   125   107   109   ar
   126    58    59    1
   127    22    19    1
   128    90    88   ar
   129    90    91   ar
   130    88    87   ar
   131    81    78    1
   132    61    59   am
   133    83    82    1
   134    83    86    1
   135    91    89   ar
   136   106   108   ar
   137    82    79   am
   138    19    20    1
   139    19    18    1
   140    59    60    2
   141    21    20    2
   142    87    89   ar
   143    87    86    1
   144   109   108   ar
   145    20    23   am
   146    79    78    1
   147    79    80    2
   148    78    77    1
   149   207   209   ar
   150   207   206   ar
   151   209   210   ar
   152    23    24    1
   153   201   202    1
   154   157   155   am
   155   156   155    2
   156   206   205    1
   157   206   208   ar
   158    24    27    1
   159    24    25    1
   160   205   202    1
   161    52    51   ar
   162   155   154    1
   163   202   203    1
   164   210   208   ar
   165   210   212   ar
   166   208   211   ar
   167    48    49    2
   168    48    47    1
   169    15    16    2
   170    15    14    1
   171    25    26    2
   172   212   214   ar
   173   154   151    1
   174    51    53   ar
   175    51    50    1
   176    47    50    1
   177    47    46    1
   178   203   204    2
   179    14    13    1
   180    14    17    1
   181    46    40   am
   182   211   213   ar
   183   214   213   ar
   184   151   152    1
   185   151   150    1
   186   152   153    2
   187   138   139    1
   188    40    41    2
   189    40    39    1
   190   150   147   am
   191   141   140    2
   192    39    38    1
   193    39    42    1
   194    28    29    1
   195   148   147    2
   196   139   140    1
   197   139   142    1
   198   147   146    1
   199   140   145   am
   200   143   142    1
   201   142   144    1
   202    44    42    1
   203    32    29    1
   204    42    43    1
   205    29    30    1
   206    43    45    1
   207   145   146    1
   208   146   149    1
   209    33    30   am
   210    33    34    1
   211    12    11    1
   212    35    36    2
   213    35    34    1
   214    30    31    2
   215     9    11   ar
   216     9     7   ar
   217    37    34    1
   218    11    10   ar
   219     7     6   ar
   220    10     8   ar
   221     6     8   ar
   222     6     5    1
   223     2     3    1
   224     2     5    1
   225     2     1    1
   226     3     4    2
