@<TRIPOS>MOLECULE
tmp/4avsD01.pdb
 93 86 0 0 0
SMALL
GASTEIGER

@<TRIPOS>ATOM
      1  N         49.8310    8.0680   -3.4040 N.3    58  ASP58      -0.1225
      2  CA        49.3890    7.9190   -2.0290 C.3    58  ASP58       0.1805
      3  C         48.0290    7.2560   -1.9690 C.2    58  ASP58       0.2597
      4  O         47.1890    7.4580   -2.8280 O.2    58  ASP58      -0.2718
      5  CB        49.2960    9.3020   -1.3960 C.3    58  ASP58       0.1424
      6  CG        49.0120    9.2320    0.1080 C.2    58  ASP58       0.3668
      7  OD1       49.6790    8.4240    0.7860 O.co2  58  ASP58      -0.2456
      8  OD2       48.1550    9.9840    0.6440 O.co2  58  ASP58      -0.2456
      9  N         47.8030    6.4930   -0.9100 N.am   59  ASN59      -0.1974
     10  CA        46.4910    5.8900   -0.6310 C.3    59  ASN59       0.1688
     11  C         46.0070    5.0920   -1.8390 C.2    59  ASN59       0.2292
     12  O         44.8390    5.1650   -2.2400 O.2    59  ASN59      -0.2864
     13  CB        45.4560    6.9330   -0.2350 C.3    59  ASN59       0.1181
     14  CG        45.8570    7.7050    0.9900 C.2    59  ASN59       0.2629
     15  OD1       46.8390    7.3810    1.6360 O.2    59  ASN59      -0.2716
     16  ND2       45.0610    8.7050    1.3510 N.am   59  ASN59      -0.0877
     17  N         44.0680    1.7160    0.8580 N.3    62  LEU62      -0.1245
     18  CA        44.1620    2.0440    2.2650 C.3    62  LEU62       0.1561
     19  C         42.8880    1.6360    2.9810 C.2    62  LEU62       0.2260
     20  O         41.7860    1.9890    2.5740 O.2    62  LEU62      -0.2867
     21  CB        44.4380    3.5450    2.4490 C.3    62  LEU62       0.0270
     22  CG        44.3480    4.1420    3.8560 C.3    62  LEU62       0.0019
     23  CD1       45.4190    3.6510    4.7900 C.3    62  LEU62       0.0001
     24  CD2       44.3840    5.6540    3.8080 C.3    62  LEU62       0.0001
     25  N         41.1460    2.2570    6.5200 N.3    64  TYR64      -0.1241
     26  CA        41.3070    3.3180    7.5280 C.3    64  TYR64       0.1605
     27  C         40.0710    3.3520    8.4220 C.2    64  TYR64       0.2264
     28  O         38.9660    3.2160    7.9360 O.2    64  TYR64      -0.2867
     29  CB        41.4910    4.6570    6.8070 C.3    64  TYR64       0.0534
     30  CG        41.9510    5.8310    7.6390 C.ar   64  TYR64      -0.0201
     31  CD1       43.2900    5.9830    7.9610 C.ar   64  TYR64      -0.0009
     32  CD2       41.0620    6.8180    8.0370 C.ar   64  TYR64      -0.0009
     33  CE1       43.7250    7.0630    8.6960 C.ar   64  TYR64       0.0417
     34  CE2       41.4880    7.9020    8.7750 C.ar   64  TYR64       0.0417
     35  CZ        42.8200    8.0270    9.0810 C.ar   64  TYR64       0.1957
     36  OH        43.3020    9.1080    9.7750 O.3    64  TYR64      -0.2866
     37  N         40.1170    3.2260    0.6790 N.3    74  TYR74      -0.1241
     38  CA        40.6020    4.0690   -0.3890 C.3    74  TYR74       0.1605
     39  C         41.1790    3.1960   -1.4850 C.2    74  TYR74       0.2264
     40  O         41.9210    2.2650   -1.2120 O.2    74  TYR74      -0.2867
     41  CB        41.7090    5.0040    0.0960 C.3    74  TYR74       0.0534
     42  CG        41.2810    6.0450    1.0760 C.ar   74  TYR74      -0.0201
     43  CD1       40.9710    5.7090    2.3910 C.ar   74  TYR74      -0.0009
     44  CD2       41.2420    7.3890    0.7130 C.ar   74  TYR74      -0.0009
     45  CE1       40.6000    6.6660    3.3030 C.ar   74  TYR74       0.0417
     46  CE2       40.8780    8.3530    1.6260 C.ar   74  TYR74       0.0417
     47  CZ        40.5630    7.9920    2.9250 C.ar   74  TYR74       0.1957
     48  OH        40.1940    8.9670    3.8450 O.3    74  TYR74      -0.2866
     49  N         43.2800    6.8220   -4.1210 N.3    77  ARG77      -0.1245
     50  CA        42.9230    8.0910   -3.4750 C.3    77  ARG77       0.1563
     51  C         41.4380    8.3690   -3.2880 C.2    77  ARG77       0.2260
     52  O         41.0590    9.2370   -2.5020 O.2    77  ARG77      -0.2867
     53  CB        43.6520    9.3030   -4.1370 C.3    77  ARG77       0.0307
     54  CG        45.0740    9.3310   -3.7260 C.3    77  ARG77       0.0489
     55  CD        46.0350    9.7420   -4.8150 C.3    77  ARG77       0.2205
     56  NE        45.7960    9.0300   -6.0670 N.pl3  77  ARG77      -0.0865
     57  CZ        46.1000    7.7620   -6.3180 C.cat  77  ARG77       0.5346
     58  NH1       46.6780    7.0070   -5.3960 N.pl3  77  ARG77       0.1354
     59  NH2       45.8190    7.2510   -7.5100 N.pl3  77  ARG77       0.1354
     60  N         50.4360    5.0470    8.7030 N.3   136  GLU136     -0.1245
     61  CA        49.8380    5.4470    7.4380 C.3   136  GLU136      0.1567
     62  C         50.9150    6.1150    6.6030 C.2   136  GLU136      0.2260
     63  O         51.5360    7.0740    7.0490 O.2   136  GLU136     -0.2867
     64  CB        48.6820    6.4230    7.7330 C.3   136  GLU136      0.0388
     65  CG        47.5870    6.4880    6.6620 C.3   136  GLU136      0.1160
     66  CD        48.0050    7.2070    5.4060 C.2   136  GLU136      0.3649
     67  OE1       48.5770    8.3160    5.5070 O.co2 136  GLU136     -0.2457
     68  OE2       47.7630    6.6680    4.3000 O.co2 136  GLU136     -0.2457
     69  N         52.4460    8.4830    3.6660 N.3   138  ASP138     -0.1239
     70  CA        52.1980    9.5510    2.6860 C.3   138  ASP138      0.1674
     71  C         53.2260    9.6030    1.5680 C.2   138  ASP138      0.2266
     72  O         53.0350   10.3300    0.5970 O.2   138  ASP138     -0.2867
     73  CB        52.0530   10.9210    3.3570 C.3   138  ASP138      0.1410
     74  CG        50.7510   11.0630    4.1090 C.2   138  ASP138      0.3668
     75  OD1       49.7720   10.3300    3.8370 O.co2 138  ASP138     -0.2456
     76  OD2       50.7040   11.8960    5.0290 O.co2 138  ASP138     -0.2456
     77  N         52.5480    9.6480   10.2210 N.3   145  ASP145     -0.1239
     78  CA        51.8380   10.6780   10.9900 C.3   145  ASP145      0.1674
     79  C         51.3790   10.0530   12.3010 C.2   145  ASP145      0.2266
     80  O         50.5710    9.1300   12.2980 O.2   145  ASP145     -0.2867
     81  CB        50.6560   11.1890   10.1540 C.3   145  ASP145      0.1410
     82  CG        49.7940   12.2070   10.8780 C.2   145  ASP145      0.3668
     83  OD1       49.9560   12.3760   12.1080 O.co2 145  ASP145     -0.2456
     84  OD2       48.9160   12.8200   10.2110 O.co2 145  ASP145     -0.2456
     85  N         47.8210    9.1670   13.0900 N.3   148  GLN148     -0.1245
     86  CA        47.1910    8.1140   12.3030 C.3   148  GLN148      0.1566
     87  C         47.7610    6.7340   12.6120 C.2   148  GLN148      0.2260
     88  O         47.3650    5.7330   11.9910 O.2   148  GLN148     -0.2867
     89  CB        47.3620    8.3920   10.8090 C.3   148  GLN148      0.0367
     90  CG        46.6930    9.6940   10.3720 C.3   148  GLN148      0.0905
     91  CD        46.8280    9.9490    8.8960 C.2   148  GLN148      0.2608
     92  OE1       47.9170    9.8400    8.3530 O.2   148  GLN148     -0.2717
     93  NE2       45.7190   10.2600    8.2290 N.am  148  GLN148     -0.0878
@<TRIPOS>BOND
     1    59    57    1
     2    57    56    2
     3    57    58    1
     4    56    55    1
     5    55    54    1
     6    53    54    1
     7    53    50    1
     8    49    50    1
     9    50    51    1
    10     1     2    1
    11    51    52    2
    12     4     3    2
    13    12    11    2
    14     2     3    1
    15     2     5    1
    16     3     9   am
    17    11    10    1
    18    39    40    2
    19    39    38    1
    20     5     6    1
    21     9    10    1
    22    10    13    1
    23    38    41    1
    24    38    37    1
    25    13    14    1
    26    41    42    1
    27     6     8   ar
    28     6     7   ar
    29    72    71    2
    30    44    42   ar
    31    44    46   ar
    32    17    18    1
    33    14    16   am
    34    14    15    2
    35    42    43   ar
    36    71    70    1
    37    46    47   ar
    38    18    21    1
    39    18    19    1
    40    43    45   ar
    41    21    22    1
    42    20    19    2
    43    70    73    1
    44    70    69    1
    45    47    45   ar
    46    47    48    1
    47    73    74    1
    48    24    22    1
    49    75    74   ar
    50    22    23    1
    51    74    76   ar
    52    68    66   ar
    53    66    67   ar
    54    66    65    1
    55    25    26    1
    56    62    63    2
    57    62    61    1
    58    65    64    1
    59    29    26    1
    60    29    30    1
    61    61    64    1
    62    61    60    1
    63    26    27    1
    64    30    31   ar
    65    30    32   ar
    66    28    27    2
    67    31    33   ar
    68    32    34   ar
    69    93    91   am
    70    92    91    2
    71    33    35   ar
    72    34    35   ar
    73    91    90    1
    74    35    36    1
    75    81    82    1
    76    81    78    1
    77    84    82   ar
    78    77    78    1
    79    90    89    1
    80    89    86    1
    81    82    83   ar
    82    78    79    1
    83    88    87    2
    84    80    79    2
    85    86    87    1
    86    86    85    1
