@<TRIPOS>MOLECULE
tmp/4avtB00.pdb
 91 84 0 0 0
SMALL
GASTEIGER

@<TRIPOS>ATOM
      1  N         36.3620  216.1030  106.6090 N.3    58  ASP58      -0.1225
      2  CA        37.6500  216.7540  106.4370 C.3    58  ASP58       0.1805
      3  C         37.9190  216.9010  104.9420 C.2    58  ASP58       0.2597
      4  O         37.3900  216.1470  104.1180 O.2    58  ASP58      -0.2718
      5  CB        38.7700  215.9580  107.1370 C.3    58  ASP58       0.1424
      6  CG        40.1750  216.6100  106.9850 C.2    58  ASP58       0.3668
      7  OD1       40.2920  217.8520  106.8450 O.co2  58  ASP58      -0.2456
      8  OD2       41.1830  215.8660  107.0140 O.co2  58  ASP58      -0.2456
      9  N         38.7270  217.9000  104.6080 N.am   59  ASN59      -0.1974
     10  CA        39.1690  218.1160  103.2480 C.3    59  ASN59       0.1688
     11  C         38.0260  217.9880  102.2560 C.2    59  ASN59       0.2292
     12  O         38.1220  217.2480  101.2790 O.2    59  ASN59      -0.2864
     13  CB        40.2780  217.1230  102.9020 C.3    59  ASN59       0.1181
     14  CG        41.3860  217.0860  103.9500 C.2    59  ASN59       0.2629
     15  OD1       41.5790  218.0310  104.7360 O.2    59  ASN59      -0.2716
     16  ND2       42.1230  215.9850  103.9650 N.am   59  ASN59      -0.0877
     17  N         39.7650  221.5520   99.2580 N.3    62  LEU62      -0.1245
     18  CA        41.0610  221.9930   99.7430 C.3    62  LEU62       0.1561
     19  C         42.0200  222.2160   98.5890 C.2    62  LEU62       0.2260
     20  O         42.2290  221.3200   97.7710 O.2    62  LEU62      -0.2867
     21  CB        41.6290  220.9610  100.7120 C.3    62  LEU62       0.0270
     22  CG        43.0990  221.1080  101.0680 C.3    62  LEU62       0.0019
     23  CD1       43.3590  222.4790  101.6840 C.3    62  LEU62       0.0001
     24  CD2       43.5000  219.9930  102.0050 C.3    62  LEU62       0.0001
     25  N         45.8770  222.8750   97.8630 N.3    64  TYR64      -0.1241
     26  CA        47.0310  222.5120   98.6620 C.3    64  TYR64       0.1605
     27  C         48.2710  222.3530   97.8060 C.2    64  TYR64       0.2264
     28  O         48.2630  221.5750   96.8520 O.2    64  TYR64      -0.2867
     29  CB        46.7340  221.1990   99.3480 C.3    64  TYR64       0.0534
     30  CG        47.7690  220.7360  100.3370 C.ar   64  TYR64      -0.0201
     31  CD1       47.8040  221.2440  101.6330 C.ar   64  TYR64      -0.0009
     32  CD2       48.6800  219.7510  100.0000 C.ar   64  TYR64      -0.0009
     33  CE1       48.7390  220.7860  102.5740 C.ar   64  TYR64       0.0417
     34  CE2       49.6220  219.2870  100.9240 C.ar   64  TYR64       0.0417
     35  CZ        49.6420  219.8110  102.2110 C.ar   64  TYR64       0.1957
     36  OH        50.5520  219.3570  103.1330 O.3    64  TYR64      -0.2866
     37  N         51.7820  221.0010   97.1010 N.3    66  GLU66      -0.1245
     38  CA        52.5820  219.8550   97.5090 C.3    66  GLU66       0.1567
     39  C         54.0490  220.2090   97.6660 C.2    66  GLU66       0.2260
     40  O         54.7100  219.7780   98.6060 O.2    66  GLU66      -0.2867
     41  CB        52.4510  218.7530   96.4580 C.3    66  GLU66       0.0388
     42  CG        51.0710  218.1110   96.3990 C.3    66  GLU66       0.1160
     43  CD        50.8000  217.1900   97.5960 C.2    66  GLU66       0.3649
     44  OE1       51.7850  216.6740   98.1890 O.co2  66  GLU66      -0.2457
     45  OE2       49.6080  216.9910   97.9520 O.co2  66  GLU66      -0.2457
     46  N         41.6730  218.8810   96.5420 N.3    74  TYR74      -0.1241
     47  CA        40.8940  217.8590   97.2090 C.3    74  TYR74       0.1605
     48  C         39.4190  218.1880   97.0550 C.2    74  TYR74       0.2264
     49  O         39.0180  219.3450   97.1840 O.2    74  TYR74      -0.2867
     50  CB        41.2480  217.8010   98.6870 C.3    74  TYR74       0.0534
     51  CG        42.5880  217.1780   98.9970 C.ar   74  TYR74      -0.0201
     52  CD1       43.7610  217.8870   98.8240 C.ar   74  TYR74      -0.0009
     53  CD2       42.6750  215.8860   99.4820 C.ar   74  TYR74      -0.0009
     54  CE1       44.9960  217.3160   99.1080 C.ar   74  TYR74       0.0417
     55  CE2       43.8970  215.3050   99.7750 C.ar   74  TYR74       0.0417
     56  CZ        45.0570  216.0250   99.5900 C.ar   74  TYR74       0.1957
     57  OH        46.2750  215.4430   99.8740 O.3    74  TYR74      -0.2866
     58  N         45.5420  224.4650  107.7430 N.3   136  GLU136     -0.1245
     59  CA        44.7860  223.3730  107.1370 C.3   136  GLU136      0.1567
     60  C         43.9720  222.6900  108.2210 C.2   136  GLU136      0.2260
     61  O         44.5310  222.2070  109.2060 O.2   136  GLU136     -0.2867
     62  CB        45.7120  222.3600  106.4430 C.3   136  GLU136      0.0388
     63  CG        44.9830  221.3310  105.5550 C.3   136  GLU136      0.1160
     64  CD        44.3250  220.1810  106.3430 C.2   136  GLU136      0.3649
     65  OE1       44.9900  219.6030  107.2510 O.co2 136  GLU136     -0.2457
     66  OE2       43.1460  219.8540  106.0380 O.co2 136  GLU136     -0.2457
     67  N         41.7290  219.9050  110.0870 N.3   138  ASP138     -0.1239
     68  CA        41.5320  218.4670  110.1870 C.3   138  ASP138      0.1674
     69  C         40.2910  218.1970  111.0510 C.2   138  ASP138      0.2266
     70  O         39.9920  217.0570  111.4020 O.2   138  ASP138     -0.2867
     71  CB        42.8080  217.7750  110.7080 C.3   138  ASP138      0.1410
     72  CG        44.0130  217.9490  109.7460 C.2   138  ASP138      0.3668
     73  OD1       44.0250  217.3090  108.6650 O.co2 138  ASP138     -0.2456
     74  OD2       44.9370  218.7370  110.0650 O.co2 138  ASP138     -0.2456
     75  N         47.6200  222.0260  111.7770 N.3   145  ASP145     -0.1239
     76  CA        48.9310  221.4040  111.7580 C.3   145  ASP145      0.1674
     77  C         49.9250  222.4860  111.3650 C.2   145  ASP145      0.2266
     78  O         49.7450  223.1800  110.3600 O.2   145  ASP145     -0.2867
     79  CB        48.9530  220.2360  110.7600 C.3   145  ASP145      0.1410
     80  CG        50.2950  219.4940  110.7260 C.2   145  ASP145      0.3668
     81  OD1       51.3200  220.0860  111.1270 O.co2 145  ASP145     -0.2456
     82  OD2       50.3250  218.3190  110.2820 O.co2 145  ASP145     -0.2456
     83  N         51.7820  222.4250  107.9550 N.3   148  GLN148     -0.1245
     84  CA        50.9830  222.6510  106.7550 C.3   148  GLN148      0.1566
     85  C         50.5200  224.0900  106.6810 C.2   148  GLN148      0.2260
     86  O         49.8190  224.4830  105.7560 O.2   148  GLN148     -0.2867
     87  CB        49.7720  221.7400  106.7520 C.3   148  GLN148      0.0367
     88  CG        50.1170  220.2890  106.9220 C.3   148  GLN148      0.0905
     89  CD        48.8990  219.3900  106.8070 C.2   148  GLN148      0.2608
     90  OE1       47.9960  219.3900  107.6660 O.2   148  GLN148     -0.2717
     91  NE2       48.8720  218.5980  105.7430 N.am  148  GLN148     -0.0878
@<TRIPOS>BOND
     1    42    41    1
     2    42    43    1
     3    41    38    1
     4    46    47    1
     5    28    27    2
     6    48    49    2
     7    48    47    1
     8    37    38    1
     9    47    50    1
    10    38    39    1
    11    43    45   ar
    12    43    44   ar
    13    39    40    2
    14    20    19    2
    15    27    26    1
    16    25    26    1
    17    19    18    1
    18    26    29    1
    19    50    51    1
    20    52    51   ar
    21    52    54   ar
    22    51    53   ar
    23    54    56   ar
    24    17    18    1
    25    29    30    1
    26    53    55   ar
    27    56    55   ar
    28    56    57    1
    29    18    21    1
    30    32    30   ar
    31    32    34   ar
    32    30    31   ar
    33    21    22    1
    34    34    35   ar
    35    22    23    1
    36    22    24    1
    37    12    11    2
    38    31    33   ar
    39    35    33   ar
    40    35    36    1
    41    11    10    1
    42    13    10    1
    43    13    14    1
    44    10     9    1
    45    14    16   am
    46    14    15    2
    47     4     3    2
    48     9     3   am
    49     3     2    1
    50    63    64    1
    51    63    62    1
    52    91    89   am
    53    86    85    2
    54    66    64   ar
    55    64    65   ar
    56     2     1    1
    57     2     5    1
    58    62    59    1
    59    85    84    1
    60    87    84    1
    61    87    88    1
    62    84    83    1
    63    89    88    1
    64    89    90    2
    65     7     6   ar
    66     6     8   ar
    67     6     5    1
    68    59    58    1
    69    59    60    1
    70    60    61    2
    71    73    72   ar
    72    72    74   ar
    73    72    71    1
    74    67    68    1
    75    68    71    1
    76    68    69    1
    77    82    80   ar
    78    78    77    2
    79    80    79    1
    80    80    81   ar
    81    79    76    1
    82    69    70    2
    83    77    76    1
    84    76    75    1
