@<TRIPOS>MOLECULE
tmp/4avuB00.pdb
 137 138 0 0 0
SMALL
GASTEIGER

@<TRIPOS>ATOM
      1  N        -52.4080  -40.0440    8.5900 N.3    79  PHE79      -0.1227
      2  CA       -52.5700  -39.0220    9.6220 C.3    79  PHE79       0.1736
      3  C        -52.7610  -39.6290   10.9840 C.2    79  PHE79       0.2595
      4  O        -53.2740  -40.7470   11.1080 O.2    79  PHE79      -0.2718
      5  CB       -53.7490  -38.1070    9.3280 C.3    79  PHE79       0.0547
      6  CG       -53.5850  -37.3140    8.0900 C.ar   79  PHE79      -0.0202
      7  CD1      -52.8150  -36.1510    8.0980 C.ar   79  PHE79      -0.0042
      8  CD2      -54.1590  -37.7360    6.9000 C.ar   79  PHE79      -0.0042
      9  CE1      -52.6330  -35.4090    6.9260 C.ar   79  PHE79      -0.0003
     10  CE2      -54.0020  -36.9980    5.7350 C.ar   79  PHE79      -0.0003
     11  CZ       -53.2390  -35.8230    5.7470 C.ar   79  PHE79      -0.0000
     12  N        -52.3540  -38.8660   11.9950 N.am   80  HIS80      -0.1961
     13  CA       -52.6090  -39.2030   13.3770 C.3    80  HIS80       0.1787
     14  C        -52.8580  -37.9800   14.2090 C.2    80  HIS80       0.2621
     15  O        -52.0140  -37.0930   14.2640 O.2    80  HIS80      -0.2715
     16  CB       -51.4410  -39.9590   13.9840 C.3    80  HIS80       0.0785
     17  CG       -51.7240  -40.4600   15.3660 C.ar   80  HIS80       0.0821
     18  ND1      -52.3030  -41.6470   15.5930 N.ar   80  HIS80      -0.2267
     19  CD2      -51.5340  -39.8840   16.5910 C.ar   80  HIS80       0.1154
     20  CE1      -52.4420  -41.8410   16.9010 C.ar   80  HIS80       0.1986
     21  NE2      -51.9850  -40.7640   17.5210 N.ar   80  HIS80      -0.2212
     22  N        -54.0170  -37.9560   14.8620 N.am   81  GLY81      -0.1940
     23  CA       -54.4430  -36.8760   15.7480 C.3    81  GLY81       0.2014
     24  C        -54.4080  -37.3850   17.1710 C.2    81  GLY81       0.2640
     25  O        -54.7770  -38.5130   17.4270 O.2    81  GLY81      -0.2714
     26  N        -53.9250  -36.5590   18.0960 N.am   82  SER82      -0.1936
     27  CA       -53.7690  -36.9730   19.4950 C.3    82  SER82       0.2040
     28  C        -53.5830  -35.7890   20.4590 C.2    82  SER82       0.2485
     29  O        -52.8960  -34.8340   20.1630 O.2    82  SER82      -0.2729
     30  CB       -52.5540  -37.8910   19.6260 C.3    82  SER82       0.2129
     31  OG       -52.3180  -38.2180   20.9800 O.3    82  SER82      -0.2179
     32  N        -54.1400  -35.8820   21.6540 N.am   83  PRO83      -0.2726
     33  CA       -53.6700  -34.9250   22.6570 C.3    83  PRO83       0.1402
     34  C        -52.1300  -34.9700   22.9390 C.2    83  PRO83       0.2269
     35  O        -51.5510  -33.9550   23.3020 O.2    83  PRO83      -0.2865
     36  CB       -54.4520  -35.3110   23.9130 C.3    83  PRO83       0.0296
     37  CG       -55.5460  -36.2040   23.4570 C.3    83  PRO83       0.0237
     38  CD       -55.1000  -36.8470   22.1880 C.3    83  PRO83       0.0939
     39  N        -50.1040  -44.5910   23.4700 N.3    97  HIS97      -0.1226
     40  CA       -50.7260  -43.9830   22.2700 C.3    97  HIS97       0.1752
     41  C        -51.6960  -44.9450   21.6120 C.2    97  HIS97       0.2596
     42  O        -52.4030  -44.5690   20.6770 O.2    97  HIS97      -0.2718
     43  CB       -49.6580  -43.4750   21.2890 C.3    97  HIS97       0.0759
     44  CG       -48.6230  -42.5960   21.9390 C.ar   97  HIS97       0.0818
     45  ND1      -47.3290  -42.9560   22.0420 N.ar   97  HIS97      -0.2268
     46  CD2      -48.7420  -41.3730   22.5940 C.ar   97  HIS97       0.1154
     47  CE1      -46.6470  -42.0020   22.7070 C.ar   97  HIS97       0.1986
     48  NE2      -47.5150  -41.0400   23.0540 N.ar   97  HIS97      -0.2212
     49  N        -51.7430  -46.1710   22.1390 N.am   98  ALA98      -0.1966
     50  CA       -52.6790  -47.2060   21.7150 C.3    98  ALA98       0.1728
     51  C        -54.1010  -46.9020   22.1680 C.2    98  ALA98       0.2616
     52  O        -54.3310  -46.3660   23.2540 O.2    98  ALA98      -0.2715
     53  CB       -52.2520  -48.5810   22.2370 C.3    98  ALA98       0.0334
     54  N        -55.0410  -47.2530   21.2990 N.am   99  TYR99      -0.1974
     55  CA       -56.4580  -47.0470   21.5230 C.3    99  TYR99       0.1639
     56  C        -57.0410  -48.3320   22.0850 C.2    99  TYR99       0.2290
     57  O        -57.3310  -49.2630   21.3340 O.2    99  TYR99      -0.2864
     58  CB       -57.1330  -46.7230   20.1970 C.3    99  TYR99       0.0560
     59  CG       -58.5860  -46.3480   20.2860 C.ar   99  TYR99      -0.0198
     60  CD1      -59.1450  -45.9290   21.4780 C.ar   99  TYR99      -0.0009
     61  CD2      -59.3930  -46.3590   19.1490 C.ar   99  TYR99      -0.0009
     62  CE1      -60.4780  -45.5520   21.5420 C.ar   99  TYR99       0.0417
     63  CE2      -60.7130  -45.9720   19.2040 C.ar   99  TYR99       0.0417
     64  CZ       -61.2470  -45.5710   20.4050 C.ar   99  TYR99       0.1957
     65  OH       -62.5550  -45.1840   20.5080 O.3    99  TYR99      -0.2866
     66  N        -53.6850  -46.1630   15.9280 N.3   109  TYR109     -0.1227
     67  CA       -54.5850  -45.9150   14.8140 C.3   109  TYR109      0.1736
     68  C        -54.1640  -44.7400   13.9480 C.2   109  TYR109      0.2595
     69  O        -53.7330  -43.7290   14.4740 O.2   109  TYR109     -0.2718
     70  CB       -56.0160  -45.6840   15.3290 C.3   109  TYR109      0.0548
     71  CG       -56.6880  -46.9530   15.8020 C.ar  109  TYR109     -0.0200
     72  CD1      -56.1100  -47.7430   16.8020 C.ar  109  TYR109     -0.0009
     73  CD2      -57.8880  -47.3770   15.2490 C.ar  109  TYR109     -0.0009
     74  CE1      -56.7170  -48.9210   17.2320 C.ar  109  TYR109      0.0417
     75  CE2      -58.5080  -48.5380   15.6770 C.ar  109  TYR109      0.0417
     76  CZ       -57.9110  -49.3100   16.6540 C.ar  109  TYR109      0.1957
     77  OH       -58.5210  -50.4690   17.0560 O.3   109  TYR109     -0.2866
     78  N        -54.3230  -44.8920   12.6270 N.am  110  PHE110     -0.1962
     79  CA       -53.9620  -43.8970   11.6170 C.3   110  PHE110      0.1771
     80  C        -55.0720  -43.7930   10.5970 C.2   110  PHE110      0.2619
     81  O        -55.7970  -44.7590   10.3720 O.2   110  PHE110     -0.2715
     82  CB       -52.6640  -44.3030   10.9290 C.3   110  PHE110      0.0574
     83  CG       -51.4620  -44.2500   11.8370 C.ar  110  PHE110     -0.0200
     84  CD1      -50.7310  -43.0730   11.9940 C.ar  110  PHE110     -0.0042
     85  CD2      -51.0690  -45.3620   12.5550 C.ar  110  PHE110     -0.0042
     86  CE1      -49.6320  -43.0200   12.8410 C.ar  110  PHE110     -0.0003
     87  CE2      -49.9570  -45.3110   13.4070 C.ar  110  PHE110     -0.0003
     88  CZ       -49.2460  -44.1420   13.5590 C.ar  110  PHE110     -0.0000
     89  N        -55.2290  -42.6270    9.9740 N.am  111  ALA111     -0.1977
     90  CA       -56.3270  -42.4280    9.0060 C.3   111  ALA111      0.1597
     91  C        -55.8490  -41.8890    7.6750 C.2   111  ALA111      0.2287
     92  O        -54.8480  -41.1190    7.6050 O.2   111  ALA111     -0.2864
     93  CB       -57.4170  -41.5190    9.5800 C.3   111  ALA111      0.0319
     94  N        -60.7720  -37.4790    9.7450 N.3   116  LYS116     -0.1231
     95  CA       -60.8950  -38.5440   10.7620 C.3   116  LYS116      0.1693
     96  C        -59.9190  -38.2970   11.9090 C.2   116  LYS116      0.2592
     97  O        -60.2800  -38.2950   13.0550 O.2   116  LYS116     -0.2718
     98  CB       -60.6920  -39.9630   10.1440 C.3   116  LYS116      0.0285
     99  CG       -60.6250  -41.1440   11.1310 C.3   116  LYS116      0.0035
    100  CD       -61.7630  -41.2140   12.1660 C.3   116  LYS116      0.0206
    101  CE       -63.0740  -41.7660   11.6040 C.3   116  LYS116      0.1093
    102  NZ       -64.2110  -41.7790   12.5930 N.3   116  LYS116     -0.1314
    103  N        -58.6500  -38.1110   11.5770 N.am  117  SER117     -0.1952
    104  CA       -57.6560  -37.7980   12.6040 C.3   117  SER117      0.1924
    105  C        -57.9860  -36.5150   13.3810 C.2   117  SER117      0.2314
    106  O        -57.6740  -36.4170   14.5640 O.2   117  SER117     -0.2863
    107  CB       -56.2480  -37.7460   12.0080 C.3   117  SER117      0.2116
    108  OG       -55.7820  -39.0410   11.6840 O.3   117  SER117     -0.2180
    109  N        -59.6520  -36.7400   16.7580 N.3   120  TYR120     -0.1241
    110  CA       -58.9240  -37.2480   17.9430 C.3   120  TYR120      0.1605
    111  C        -57.9670  -36.2490   18.5660 C.2   120  TYR120      0.2264
    112  O        -57.3250  -36.5420   19.5590 O.2   120  TYR120     -0.2867
    113  CB       -58.1810  -38.5250   17.6000 C.3   120  TYR120      0.0534
    114  CG       -59.1540  -39.6440   17.3420 C.ar  120  TYR120     -0.0201
    115  CD1      -59.8110  -39.7380   16.1300 C.ar  120  TYR120     -0.0009
    116  CD2      -59.4710  -40.5640   18.3360 C.ar  120  TYR120     -0.0009
    117  CE1      -60.7380  -40.7370   15.8810 C.ar  120  TYR120      0.0417
    118  CE2      -60.4040  -41.5740   18.1010 C.ar  120  TYR120      0.0417
    119  CZ       -61.0240  -41.6570   16.8700 C.ar  120  TYR120      0.1957
    120  OH       -61.9480  -42.6260   16.6220 O.3   120  TYR120     -0.2866
    121  N        -60.2590  -38.8330   22.5280 N.3   124  ILE124     -0.1245
    122  CA       -61.3100  -39.7450   22.0240 C.3   124  ILE124      0.1561
    123  C        -62.6470  -39.0030   21.9710 C.2   124  ILE124      0.2260
    124  O        -63.0330  -38.3280   22.9290 O.2   124  ILE124     -0.2867
    125  CB       -61.5000  -41.0070   22.9180 C.3   124  ILE124      0.0252
    126  CG1      -60.1540  -41.6750   23.2060 C.3   124  ILE124      0.0019
    127  CG2      -62.4610  -42.0160   22.2720 C.3   124  ILE124      0.0019
    128  CD1      -59.1990  -41.5920   22.0510 C.3   124  ILE124      0.0001
    129  N        -58.6690  -46.9760    7.5680 N.3   187  GLU187     -0.1245
    130  CA       -57.9350  -46.7410    8.8310 C.3   187  GLU187      0.1567
    131  C        -56.9620  -47.8760    9.0610 C.2   187  GLU187      0.2260
    132  O        -57.2320  -48.9990    8.6880 O.2   187  GLU187     -0.2867
    133  CB       -58.8790  -46.7030   10.0130 C.3   187  GLU187      0.0388
    134  CG       -59.6860  -45.4250   10.0610 C.3   187  GLU187      0.1160
    135  CD       -60.7920  -45.4350   11.1130 C.2   187  GLU187      0.3649
    136  OE1      -60.6300  -46.0910   12.1790 O.co2 187  GLU187     -0.2457
    137  OE2      -61.8300  -44.7820   10.8230 O.co2 187  GLU187     -0.2457
@<TRIPOS>BOND
     1    10    11   ar
     2    10     8   ar
     3    11     9   ar
     4     8     6   ar
     5     9     7   ar
     6   129   130    1
     7    92    91    2
     8    91    90    1
     9     6     7   ar
    10     6     5    1
    11     1     2    1
    12   132   131    2
    13   130   131    1
    14   130   133    1
    15    90    93    1
    16    90    89    1
    17     5     2    1
    18     2     3    1
    19    94    95    1
    20    89    80   am
    21   133   134    1
    22   134   135    1
    23    98    95    1
    24    98    99    1
    25    81    80    2
    26    80    79    1
    27    95    96    1
    28   137   135   ar
    29    82    79    1
    30    82    83    1
    31     3     4    2
    32     3    12   am
    33   135   136   ar
    34    99   100    1
    35   103    96   am
    36   103   104    1
    37   101   100    1
    38   101   102    1
    39    79    78    1
    40   108   107    1
    41    83    84   ar
    42    83    85   ar
    43    96    97    2
    44    84    86   ar
    45    12    13    1
    46   107   104    1
    47    85    87   ar
    48   104   105    1
    49    78    68   am
    50    86    88   ar
    51    13    16    1
    52    13    14    1
    53   105   106    2
    54    87    88   ar
    55    68    69    2
    56    68    67    1
    57    16    17    1
    58    14    15    2
    59    14    22   am
    60    67    70    1
    61    67    66    1
    62    22    23    1
    63    73    75   ar
    64    73    71   ar
    65    70    71    1
    66    17    18   ar
    67    17    19   ar
    68    18    20   ar
    69    75    76   ar
    70    23    24    1
    71    71    72   ar
    72   117   115   ar
    73   117   119   ar
    74   115   114   ar
    75    19    21   ar
    76   120   119    1
    77    76    77    1
    78    76    74   ar
    79   109   110    1
    80    72    74   ar
    81   119   118   ar
    82    20    21   ar
    83    24    25    2
    84    24    26   am
    85   114   113    1
    86   114   116   ar
    87   113   110    1
    88   110   111    1
    89    26    27    1
    90   118   116   ar
    91   111   112    2
    92    61    63   ar
    93    61    59   ar
    94    63    64   ar
    95    27    30    1
    96    27    28    1
    97    30    31    1
    98    29    28    2
    99    58    59    1
   100    58    55    1
   101    59    60   ar
   102    64    65    1
   103    64    62   ar
   104    28    32   am
   105    42    41    2
   106    43    44    1
   107    43    40    1
   108    54    55    1
   109    54    51   am
   110    57    56    2
   111    60    62   ar
   112    55    56    1
   113    41    49   am
   114    41    40    1
   115    32    38    1
   116    32    33    1
   117    50    49    1
   118    50    51    1
   119    50    53    1
   120    44    45   ar
   121    44    46   ar
   122   123   122    1
   123   123   124    2
   124   122   121    1
   125   122   125    1
   126    45    47   ar
   127   128   126    1
   128    51    52    2
   129    38    37    1
   130    40    39    1
   131   127   125    1
   132    46    48   ar
   133    33    34    1
   134    33    36    1
   135    47    48   ar
   136   125   126    1
   137    34    35    2
   138    37    36    1
