@<TRIPOS>MOLECULE
tmp/4avwB00.pdb
 132 132 0 0 0
SMALL
GASTEIGER

@<TRIPOS>ATOM
      1  N        -50.7610  -40.6130    8.5810 N.3    79  PHE79      -0.1227
      2  CA       -50.9740  -39.6480    9.6450 C.3    79  PHE79       0.1736
      3  C        -51.1290  -40.2900   10.9860 C.2    79  PHE79       0.2595
      4  O        -51.6260  -41.4250   11.0670 O.2    79  PHE79      -0.2718
      5  CB       -52.2200  -38.8150    9.3670 C.3    79  PHE79       0.0547
      6  CG       -52.0860  -37.9990    8.1530 C.ar   79  PHE79      -0.0202
      7  CD1      -51.3030  -36.8520    8.1760 C.ar   79  PHE79      -0.0042
      8  CD2      -52.6420  -38.4180    6.9640 C.ar   79  PHE79      -0.0042
      9  CE1      -51.1100  -36.1120    7.0380 C.ar   79  PHE79      -0.0003
     10  CE2      -52.4760  -37.6770    5.8220 C.ar   79  PHE79      -0.0003
     11  CZ       -51.6880  -36.5190    5.8550 C.ar   79  PHE79      -0.0000
     12  N        -50.7330  -39.5380   12.0270 N.am   80  HIS80      -0.1961
     13  CA       -50.9570  -39.9040   13.4190 C.3    80  HIS80       0.1787
     14  C        -51.2350  -38.6990   14.2640 C.2    80  HIS80       0.2621
     15  O        -50.3770  -37.8080   14.3640 O.2    80  HIS80      -0.2715
     16  CB       -49.7430  -40.6170   14.0060 C.3    80  HIS80       0.0785
     17  CG       -49.9860  -41.1800   15.3740 C.ar   80  HIS80       0.0821
     18  ND1      -50.5810  -42.3730   15.5620 N.ar   80  HIS80      -0.2267
     19  CD2      -49.7330  -40.6550   16.6510 C.ar   80  HIS80       0.1154
     20  CE1      -50.6800  -42.6170   16.9030 C.ar   80  HIS80       0.1986
     21  NE2      -50.1700  -41.5640   17.5610 N.ar   80  HIS80      -0.2212
     22  N        -52.4120  -38.6580   14.8900 N.am   81  GLY81      -0.1940
     23  CA       -52.7450  -37.6110   15.8600 C.3    81  GLY81       0.2014
     24  C        -52.7400  -38.1220   17.2910 C.2    81  GLY81       0.2640
     25  O        -53.1440  -39.2530   17.5580 O.2    81  GLY81      -0.2714
     26  N        -52.3200  -37.2880   18.2310 N.am   82  SER82      -0.1936
     27  CA       -52.2030  -37.7210   19.5960 C.3    82  SER82       0.2040
     28  C        -51.9110  -36.5560   20.5000 C.2    82  SER82       0.2485
     29  O        -51.1510  -35.6630   20.1180 O.2    82  SER82      -0.2729
     30  CB       -51.0360  -38.7060   19.7000 C.3    82  SER82       0.2129
     31  OG       -50.6340  -38.9180   21.0340 O.3    82  SER82      -0.2179
     32  N        -52.4490  -36.5840   21.7200 N.am   83  PRO83      -0.2726
     33  CA       -51.9820  -35.6010   22.7080 C.3    83  PRO83       0.1402
     34  C        -50.4790  -35.7460   23.0650 C.2    83  PRO83       0.2269
     35  O        -49.8870  -34.8390   23.6180 O.2    83  PRO83      -0.2865
     36  CB       -52.8750  -35.8700   23.9420 C.3    83  PRO83       0.0296
     37  CG       -53.9590  -36.7990   23.4870 C.3    83  PRO83       0.0237
     38  CD       -53.4210  -37.5330   22.2920 C.3    83  PRO83       0.0939
     39  N        -48.0060  -45.6070   23.3910 N.3    97  HIS97      -0.1241
     40  CA       -48.8450  -45.0070   22.3390 C.3    97  HIS97       0.1621
     41  C        -49.8490  -45.9560   21.7280 C.2    97  HIS97       0.2264
     42  O        -50.4890  -45.6170   20.7360 O.2    97  HIS97      -0.2867
     43  CB       -47.9460  -44.3720   21.2710 C.3    97  HIS97       0.0745
     44  CG       -46.9550  -43.3940   21.8490 C.ar   97  HIS97       0.0817
     45  ND1      -45.6330  -43.5640   21.7560 N.ar   97  HIS97      -0.2268
     46  CD2      -47.1470  -42.2500   22.6100 C.ar   97  HIS97       0.1154
     47  CE1      -45.0040  -42.5690   22.4040 C.ar   97  HIS97       0.1986
     48  NE2      -45.9300  -41.7710   22.9300 N.ar   97  HIS97      -0.2212
     49  N        -53.2910  -47.9780   21.2840 N.3    99  TYR99      -0.1241
     50  CA       -54.6980  -47.7660   21.5330 C.3    99  TYR99       0.1605
     51  C        -55.2470  -49.0880   22.0350 C.2    99  TYR99       0.2264
     52  O        -55.4890  -49.9920   21.2370 O.2    99  TYR99      -0.2867
     53  CB       -55.3720  -47.3470   20.2280 C.3    99  TYR99       0.0534
     54  CG       -56.8340  -47.0170   20.3130 C.ar   99  TYR99      -0.0201
     55  CD1      -57.4410  -46.6860   21.5330 C.ar   99  TYR99      -0.0009
     56  CD2      -57.6110  -46.9890   19.1620 C.ar   99  TYR99      -0.0009
     57  CE1      -58.7840  -46.3440   21.5900 C.ar   99  TYR99       0.0417
     58  CE2      -58.9410  -46.6480   19.2140 C.ar   99  TYR99       0.0417
     59  CZ       -59.5160  -46.3320   20.4350 C.ar   99  TYR99       0.1957
     60  OH       -60.8440  -46.0140   20.4980 O.3    99  TYR99      -0.2866
     61  N        -51.8680  -46.8540   15.9420 N.3   109  TYR109     -0.1227
     62  CA       -52.7640  -46.6330   14.8130 C.3   109  TYR109      0.1736
     63  C        -52.3560  -45.4380   13.9560 C.2   109  TYR109      0.2595
     64  O        -52.0040  -44.3850   14.5000 O.2   109  TYR109     -0.2718
     65  CB       -54.1910  -46.3780   15.3330 C.3   109  TYR109      0.0548
     66  CG       -54.8930  -47.6330   15.7740 C.ar  109  TYR109     -0.0200
     67  CD1      -54.3690  -48.4240   16.7860 C.ar  109  TYR109     -0.0009
     68  CD2      -56.0690  -48.0430   15.1680 C.ar  109  TYR109     -0.0009
     69  CE1      -55.0020  -49.5890   17.1930 C.ar  109  TYR109      0.0417
     70  CE2      -56.7050  -49.2080   15.5490 C.ar  109  TYR109      0.0417
     71  CZ       -56.1670  -49.9850   16.5630 C.ar  109  TYR109      0.1957
     72  OH       -56.8060  -51.1530   16.9470 O.3   109  TYR109     -0.2866
     73  N        -52.4690  -45.6030   12.6320 N.am  110  PHE110     -0.1962
     74  CA       -52.2190  -44.5700   11.6550 C.3   110  PHE110      0.1771
     75  C        -53.3640  -44.5010   10.6770 C.2   110  PHE110      0.2619
     76  O        -54.0330  -45.4920   10.4510 O.2   110  PHE110     -0.2715
     77  CB       -50.9150  -44.8900   10.9290 C.3   110  PHE110      0.0574
     78  CG       -49.7340  -44.8880   11.8480 C.ar  110  PHE110     -0.0200
     79  CD1      -49.4510  -46.0060   12.6340 C.ar  110  PHE110     -0.0042
     80  CD2      -48.9530  -43.7450   11.9900 C.ar  110  PHE110     -0.0042
     81  CE1      -48.3850  -45.9900   13.5240 C.ar  110  PHE110     -0.0003
     82  CE2      -47.8850  -43.7160   12.8660 C.ar  110  PHE110     -0.0003
     83  CZ       -47.5960  -44.8320   13.6380 C.ar  110  PHE110     -0.0000
     84  N        -53.5860  -43.3460   10.0690 N.am  111  ALA111     -0.1977
     85  CA       -54.6790  -43.1810    9.1110 C.3   111  ALA111      0.1597
     86  C        -54.1880  -42.6040    7.7990 C.2   111  ALA111      0.2287
     87  O        -53.2650  -41.7620    7.7700 O.2   111  ALA111     -0.2864
     88  CB       -55.7370  -42.2560    9.6730 C.3   111  ALA111      0.0319
     89  N        -59.1160  -38.2110    9.8330 N.3   116  LYS116     -0.1231
     90  CA       -59.2700  -39.3060   10.8200 C.3   116  LYS116      0.1693
     91  C        -58.3230  -39.0800   11.9970 C.2   116  LYS116      0.2592
     92  O        -58.7450  -39.0750   13.1520 O.2   116  LYS116     -0.2718
     93  CB       -59.0550  -40.6840   10.1700 C.3   116  LYS116      0.0285
     94  CG       -58.9110  -41.8840   11.1150 C.3   116  LYS116      0.0035
     95  CD       -60.0440  -42.0620   12.1200 C.3   116  LYS116      0.0206
     96  CE       -61.3930  -42.2590   11.4530 C.3   116  LYS116      0.1093
     97  NZ       -62.4110  -42.5920   12.4700 N.3   116  LYS116     -0.1314
     98  N        -57.0470  -38.8790   11.6850 N.am  117  SER117     -0.1952
     99  CA       -56.0340  -38.5790   12.7130 C.3   117  SER117      0.1924
    100  C        -56.3580  -37.2770   13.4860 C.2   117  SER117      0.2314
    101  O        -56.0690  -37.1730   14.6910 O.2   117  SER117     -0.2863
    102  CB       -54.6380  -38.5090   12.0780 C.3   117  SER117      0.2116
    103  OG       -54.1270  -39.7790   11.7290 O.3   117  SER117     -0.2180
    104  N        -58.0800  -37.5120   16.7880 N.3   120  TYR120     -0.1241
    105  CA       -57.3150  -37.9650   17.9670 C.3   120  TYR120      0.1605
    106  C        -56.3260  -36.9500   18.5610 C.2   120  TYR120      0.2264
    107  O        -55.7170  -37.2100   19.5960 O.2   120  TYR120     -0.2867
    108  CB       -56.5590  -39.2560   17.6480 C.3   120  TYR120      0.0534
    109  CG       -57.5010  -40.4090   17.4220 C.ar  120  TYR120     -0.0201
    110  CD1      -58.0510  -40.6030   16.1810 C.ar  120  TYR120     -0.0009
    111  CD2      -57.8850  -41.2600   18.4630 C.ar  120  TYR120     -0.0009
    112  CE1      -58.9400  -41.6140   15.9450 C.ar  120  TYR120      0.0417
    113  CE2      -58.7750  -42.3080   18.2330 C.ar  120  TYR120      0.0417
    114  CZ       -59.3150  -42.4580   16.9580 C.ar  120  TYR120      0.1957
    115  OH       -60.2070  -43.4310   16.6130 O.3   120  TYR120     -0.2866
    116  N        -58.7780  -39.6310   22.6580 N.3   124  ILE124     -0.1245
    117  CA       -59.7190  -40.5900   22.0890 C.3   124  ILE124      0.1561
    118  C        -61.0530  -39.9150   21.9930 C.2   124  ILE124      0.2260
    119  O        -61.4980  -39.2980   22.9370 O.2   124  ILE124     -0.2867
    120  CB       -59.8850  -41.8230   22.9920 C.3   124  ILE124      0.0252
    121  CG1      -58.5550  -42.5630   23.1570 C.3   124  ILE124      0.0019
    122  CG2      -60.9410  -42.7620   22.4410 C.3   124  ILE124      0.0019
    123  CD1      -57.7970  -42.8510   21.8800 C.3   124  ILE124      0.0001
    124  N        -56.9960  -47.5610    7.7700 N.3   187  GLU187     -0.1245
    125  CA       -56.3150  -47.2600    8.9900 C.3   187  GLU187      0.1567
    126  C        -55.3680  -48.4660    9.1760 C.2   187  GLU187      0.2260
    127  O        -55.7110  -49.5860    8.7660 O.2   187  GLU187     -0.2867
    128  CB       -57.3850  -47.0280   10.0880 C.3   187  GLU187      0.0388
    129  CG       -58.3800  -45.9280    9.6420 C.3   187  GLU187      0.1160
    130  CD       -59.6790  -45.8220   10.4420 C.2   187  GLU187      0.3649
    131  OE1      -59.6460  -46.1120   11.6560 O.co2 187  GLU187     -0.2457
    132  OE2      -60.7310  -45.4260    9.8510 O.co2 187  GLU187     -0.2457
@<TRIPOS>BOND
     1    10    11   ar
     2    10     8   ar
     3    11     9   ar
     4     8     6   ar
     5     9     7   ar
     6    87    86    2
     7   124   125    1
     8    86    85    1
     9     6     7   ar
    10     6     5    1
    11     1     2    1
    12   127   126    2
    13   125   126    1
    14   125   128    1
    15    85    88    1
    16    85    84    1
    17     5     2    1
    18   129   128    1
    19   129   130    1
    20     2     3    1
    21    89    90    1
    22   132   130   ar
    23    84    75   am
    24    93    90    1
    25    93    94    1
    26   130   131   ar
    27    76    75    2
    28    75    74    1
    29    90    91    1
    30    77    74    1
    31    77    78    1
    32     3     4    2
    33     3    12   am
    34    94    95    1
    35    96    95    1
    36    96    97    1
    37    74    73    1
    38    98    91   am
    39    98    99    1
    40   103   102    1
    41    78    80   ar
    42    78    79   ar
    43    80    82   ar
    44    91    92    2
    45    12    13    1
    46   102    99    1
    47    73    63   am
    48    79    81   ar
    49    99   100    1
    50    82    83   ar
    51    13    16    1
    52    13    14    1
    53   100   101    2
    54    81    83   ar
    55    63    64    2
    56    63    62    1
    57    16    17    1
    58    14    15    2
    59    14    22   am
    60    62    65    1
    61    62    61    1
    62    22    23    1
    63    68    70   ar
    64    68    66   ar
    65    65    66    1
    66    17    18   ar
    67    17    19   ar
    68    70    71   ar
    69    18    20   ar
    70    66    67   ar
    71    23    24    1
    72   112   110   ar
    73   112   114   ar
    74   110   109   ar
    75    71    72    1
    76    71    69   ar
    77   115   114    1
    78    19    21   ar
    79    67    69   ar
    80   104   105    1
    81    20    21   ar
    82   114   113   ar
    83    24    25    2
    84    24    26   am
    85   109   108    1
    86   109   111   ar
    87   108   105    1
    88   105   106    1
    89    26    27    1
    90   113   111   ar
    91   106   107    2
    92    56    58   ar
    93    56    54   ar
    94    58    59   ar
    95    27    30    1
    96    27    28    1
    97    30    31    1
    98    29    28    2
    99    53    54    1
   100    53    50    1
   101    54    55   ar
   102    59    60    1
   103    59    57   ar
   104    28    32   am
   105    42    41    2
   106    52    51    2
   107    43    44    1
   108    43    40    1
   109    49    50    1
   110    55    57   ar
   111    50    51    1
   112    32    38    1
   113    32    33    1
   114    41    40    1
   115    45    44   ar
   116    45    47   ar
   117    44    46   ar
   118   123   121    1
   119   118   117    1
   120   118   119    2
   121   117   116    1
   122   117   120    1
   123    38    37    1
   124    40    39    1
   125    47    48   ar
   126   122   120    1
   127    46    48   ar
   128    33    34    1
   129    33    36    1
   130   120   121    1
   131    34    35    2
   132    37    36    1
