@<TRIPOS>MOLECULE
tmp/4aw0A01.pdb
 124 119 0 0 0
SMALL
GASTEIGER

@<TRIPOS>ATOM
      1  N          1.5250   35.2980  -10.8000 N.3     2  LYS2       -0.1245
      2  CA         0.2430   34.7360  -11.2180 C.3     2  LYS2        0.1561
      3  C          0.5170   33.7040  -12.2990 C.2     2  LYS2        0.2260
      4  O          1.3790   33.9130  -13.1580 O.2     2  LYS2       -0.2867
      5  CB        -0.6960   35.8170  -11.7680 C.3     2  LYS2        0.0271
      6  CG        -1.4250   36.6460  -10.7050 C.3     2  LYS2        0.0035
      7  CD        -2.5040   35.8290  -10.0260 C.3     2  LYS2        0.0206
      8  CE        -3.2080   36.6110   -8.9410 C.3     2  LYS2        0.1093
      9  NZ        -4.2800   35.7840   -8.3170 N.3     2  LYS2       -0.1314
     10  N        -16.4330   35.0580  -17.9840 N.3    41  LYS41      -0.1245
     11  CA       -16.7170   36.3880  -17.4550 C.3    41  LYS41       0.1561
     12  C        -18.0420   36.9390  -17.9570 C.2    41  LYS41       0.2260
     13  O        -18.7840   37.5530  -17.1980 O.2    41  LYS41      -0.2867
     14  CB       -15.5880   37.3510  -17.8000 C.3    41  LYS41       0.0271
     15  CG       -14.3410   37.1330  -16.9680 C.3    41  LYS41       0.0035
     16  CD       -13.2180   38.0420  -17.4300 C.3    41  LYS41       0.0206
     17  CE       -12.1560   38.1870  -16.3620 C.3    41  LYS41       0.1093
     18  NZ       -11.0660   39.1080  -16.7970 N.3    41  LYS41      -0.1314
     19  N        -20.9030   35.2200  -16.0690 N.3    44  ILE44      -0.1231
     20  CA       -20.8540   35.6470  -14.6760 C.3    44  ILE44       0.1692
     21  C        -21.4440   37.0520  -14.5170 C.2    44  ILE44       0.2591
     22  O        -22.1740   37.3270  -13.5660 O.2    44  ILE44      -0.2718
     23  CB       -19.3860   35.6030  -14.1570 C.3    44  ILE44       0.0266
     24  CG1      -18.9250   34.1530  -14.0070 C.3    44  ILE44       0.0019
     25  CG2      -19.2290   36.3200  -12.8400 C.3    44  ILE44       0.0020
     26  CD1      -19.7460   33.3380  -13.0410 C.3    44  ILE44       0.0001
     27  N        -21.1400   37.9310  -15.4590 N.am   45  ILE45      -0.1980
     28  CA       -21.6190   39.3020  -15.3830 C.3    45  ILE45       0.1595
     29  C        -23.1240   39.3250  -15.6500 C.2    45  ILE45       0.2287
     30  O        -23.8890   39.9540  -14.9110 O.2    45  ILE45      -0.2864
     31  CB       -20.8320   40.2110  -16.3590 C.3    45  ILE45       0.0276
     32  CG1      -19.4250   40.4660  -15.8030 C.3    45  ILE45       0.0022
     33  CG2      -21.5550   41.5330  -16.5790 C.3    45  ILE45       0.0022
     34  CD1      -18.4530   41.0300  -16.7960 C.3    45  ILE45       0.0001
     35  N        -20.9120   37.9570  -10.0180 N.3    50  VAL50      -0.1245
     36  CA       -19.5770   38.4560   -9.6970 C.3    50  VAL50       0.1561
     37  C        -19.2440   38.3430   -8.2210 C.2    50  VAL50       0.2260
     38  O        -18.1630   37.8830   -7.8570 O.2    50  VAL50      -0.2867
     39  CB       -19.3860   39.9180  -10.1180 C.3    50  VAL50       0.0252
     40  CG1      -18.0870   40.4710   -9.5260 C.3    50  VAL50       0.0019
     41  CG2      -19.3900   40.0480  -11.6600 C.3    50  VAL50       0.0019
     42  N        -18.1720   34.8220   -7.1430 N.3    53  VAL53      -0.1231
     43  CA       -16.8110   34.4840   -7.5540 C.3    53  VAL53       0.1692
     44  C        -15.7710   35.0070   -6.5760 C.2    53  VAL53       0.2592
     45  O        -14.9100   34.2690   -6.1200 O.2    53  VAL53      -0.2718
     46  CB       -16.4930   35.0850   -8.9380 C.3    53  VAL53       0.0266
     47  CG1      -15.0200   34.8770   -9.3040 C.3    53  VAL53       0.0020
     48  CG2      -17.3990   34.4640   -9.9880 C.3    53  VAL53       0.0020
     49  N        -15.8560   36.2860   -6.2360 N.am   54  THR54      -0.1953
     50  CA       -14.9230   36.8780   -5.2890 C.3    54  THR54       0.1897
     51  C        -15.0860   36.2490   -3.9060 C.2    54  THR54       0.2313
     52  O        -14.1120   36.0240   -3.1990 O.2    54  THR54      -0.2863
     53  CB       -15.1280   38.3940   -5.1830 C.3    54  THR54       0.1794
     54  OG1      -15.0990   38.9750   -6.4930 O.3    54  THR54      -0.2208
     55  CG2      -14.0390   39.0210   -4.3260 C.3    54  THR54       0.0378
     56  N        -13.3110   32.8330   -3.7370 N.3    57  ARG57      -0.1245
     57  CA       -11.8780   33.0300   -3.5710 C.3    57  ARG57       0.1563
     58  C        -11.5130   33.4540   -2.1460 C.2    57  ARG57       0.2260
     59  O        -10.6240   32.8730   -1.5270 O.2    57  ARG57      -0.2867
     60  CB       -11.3540   34.1020   -4.5450 C.3    57  ARG57       0.0307
     61  CG        -9.8440   34.3470   -4.3490 C.3    57  ARG57       0.0489
     62  CD        -9.3710   35.6070   -5.0530 C.3    57  ARG57       0.2205
     63  NE        -9.9170   36.7900   -4.4150 N.pl3  57  ARG57      -0.0865
     64  CZ        -9.5670   38.0360   -4.7150 C.cat  57  ARG57       0.5346
     65  NH1       -8.6590   38.2760   -5.6560 N.pl3  57  ARG57       0.1354
     66  NH2      -10.1260   39.0370   -4.0590 N.pl3  57  ARG57       0.1354
     67  N         -5.4480   31.5570   -8.1400 N.3    74  THR74      -0.1203
     68  CA        -6.4580   32.0770   -9.0400 C.3    74  THR74       0.1994
     69  C         -5.7430   32.8700  -10.1310 C.2    74  THR74       0.2618
     70  O         -4.6560   33.4030   -9.9250 O.2    74  THR74      -0.2717
     71  CB        -7.4640   33.0140   -8.3370 C.3    74  THR74       0.1784
     72  OG1       -6.7780   34.0240   -7.5770 O.3    74  THR74      -0.2211
     73  CG2       -8.3440   32.2340   -7.3990 C.3    74  THR74       0.0376
     74  N         -6.3730   32.9330  -11.2890 N.am   75  PHE75      -0.1961
     75  CA        -5.9100   33.8270  -12.3380 C.3    75  PHE75       0.1771
     76  C         -7.0330   34.0780  -13.3160 C.2    75  PHE75       0.2619
     77  O         -8.1230   33.5340  -13.1830 O.2    75  PHE75      -0.2715
     78  CB        -4.6340   33.2970  -13.0060 C.3    75  PHE75       0.0574
     79  CG        -4.7470   31.9140  -13.5910 C.ar   75  PHE75      -0.0200
     80  CD1       -5.1470   31.7290  -14.9050 C.ar   75  PHE75      -0.0042
     81  CD2       -4.3620   30.7970  -12.8550 C.ar   75  PHE75      -0.0042
     82  CE1       -5.2160   30.4410  -15.4490 C.ar   75  PHE75      -0.0003
     83  CE2       -4.4280   29.5190  -13.4030 C.ar   75  PHE75      -0.0003
     84  CZ        -4.8420   29.3510  -14.7100 C.ar   75  PHE75      -0.0000
     85  N         -6.7740   34.9340  -14.2980 N.am   76  GLN76      -0.1977
     86  CA        -7.7930   35.3000  -15.2510 C.3    76  GLN76       0.1601
     87  C         -7.1390   35.6770  -16.5680 C.2    76  GLN76       0.2287
     88  O         -5.9250   35.8600  -16.6540 O.2    76  GLN76      -0.2864
     89  CB        -8.5730   36.5080  -14.7300 C.3    76  GLN76       0.0394
     90  CG        -7.7340   37.7860  -14.7170 C.3    76  GLN76       0.0908
     91  CD        -8.4410   38.9520  -14.0840 C.2    76  GLN76       0.2608
     92  OE1       -9.4300   39.4540  -14.6150 O.2    76  GLN76      -0.2717
     93  NE2       -7.9440   39.3910  -12.9340 N.am   76  GLN76      -0.0878
     94  N        -12.2640   33.2120  -15.9430 N.3    81  LEU81      -0.1231
     95  CA       -11.7920   33.1480  -14.5790 C.3    81  LEU81       0.1693
     96  C        -11.3610   31.7160  -14.2440 C.2    81  LEU81       0.2592
     97  O        -12.0740   30.7570  -14.5620 O.2    81  LEU81      -0.2718
     98  CB       -12.9180   33.5730  -13.6250 C.3    81  LEU81       0.0284
     99  CG       -13.3220   35.0350  -13.8470 C.3    81  LEU81       0.0019
    100  CD1      -14.7160   35.3020  -13.2900 C.3    81  LEU81       0.0001
    101  CD2      -12.2900   35.9600  -13.2170 C.3    81  LEU81       0.0001
    102  N        -10.2360   31.5740  -13.5280 N.am   82  TYR82      -0.1962
    103  CA        -9.7130   30.2480  -13.1840 C.3    82  TYR82       0.1771
    104  C         -9.3790   30.1090  -11.6980 C.2    82  TYR82       0.2619
    105  O         -8.6680   30.9470  -11.1400 O.2    82  TYR82      -0.2715
    106  CB        -8.4200   29.9620  -13.9600 C.3    82  TYR82       0.0574
    107  CG        -8.4860   30.1470  -15.4410 C.ar   82  TYR82      -0.0198
    108  CD1       -8.3890   31.4200  -16.0070 C.ar   82  TYR82      -0.0009
    109  CD2       -8.5780   29.0620  -16.2870 C.ar   82  TYR82      -0.0009
    110  CE1       -8.4070   31.6050  -17.3800 C.ar   82  TYR82       0.0417
    111  CE2       -8.6060   29.2390  -17.6690 C.ar   82  TYR82       0.0417
    112  CZ        -8.5400   30.5060  -18.2040 C.ar   82  TYR82       0.1957
    113  OH        -8.5450   30.7020  -19.5720 O.3    82  TYR82      -0.2866
    114  N         -9.8570   29.0280  -11.1130 N.am   83  PHE83      -0.1974
    115  CA        -9.5110   28.6330   -9.7440 C.3    83  PHE83       0.1639
    116  C         -8.7000   27.3500   -9.7740 C.2    83  PHE83       0.2290
    117  O         -9.1850   26.3500  -10.2700 O.2    83  PHE83      -0.2864
    118  CB       -10.7500   28.2780   -8.9130 C.3    83  PHE83       0.0560
    119  CG       -11.7020   29.4090   -8.6420 C.ar   83  PHE83      -0.0200
    120  CD1      -12.6610   29.7840   -9.5930 C.ar   83  PHE83      -0.0042
    121  CD2      -11.7060   30.0350   -7.3940 C.ar   83  PHE83      -0.0042
    122  CE1      -13.5670   30.8140   -9.3100 C.ar   83  PHE83      -0.0003
    123  CE2      -12.6040   31.0430   -7.1090 C.ar   83  PHE83      -0.0003
    124  CZ       -13.5350   31.4300   -8.0560 C.ar   83  PHE83      -0.0000
@<TRIPOS>BOND
     1   113   112    1
     2   112   111   ar
     3   112   110   ar
     4    10    11    1
     5    12    11    1
     6    12    13    2
     7    14    11    1
     8    14    15    1
     9   111   109   ar
    10    16    15    1
    11    16    17    1
    12   110   108   ar
    13    18    17    1
    14    34    32    1
    15    88    87    2
    16    33    31    1
    17    87    86    1
    18    31    32    1
    19    31    28    1
    20   109   107   ar
    21    19    20    1
    22   108   107   ar
    23    94    95    1
    24    29    28    1
    25    29    30    2
    26    27    28    1
    27    27    21   am
    28    82    80   ar
    29    82    84   ar
    30   107   106    1
    31    86    89    1
    32    86    85    1
    33    80    79   ar
    34    89    90    1
    35    90    91    1
    36    84    83   ar
    37    20    21    1
    38    20    23    1
    39    92    91    2
    40    95    96    1
    41    95    98    1
    42    97    96    2
    43    21    22    2
    44    85    76   am
    45    96   102   am
    46    23    24    1
    47    23    25    1
    48    91    93   am
    49    24    26    1
    50   106   103    1
    51    99    98    1
    52    99   100    1
    53    99   101    1
    54    79    78    1
    55    79    81   ar
    56   102   103    1
    57    83    81   ar
    58    76    77    2
    59    76    75    1
    60   103   104    1
    61     4     3    2
    62    78    75    1
    63    75    74    1
    64     3     2    1
    65     5     2    1
    66     5     6    1
    67   104   105    2
    68   104   114   am
    69    41    39    1
    70    74    69   am
    71     2     1    1
    72   114   115    1
    73     6     7    1
    74   117   116    2
    75    69    70    2
    76    69    68    1
    77    39    36    1
    78    39    40    1
    79     7     8    1
    80    35    36    1
    81    48    46    1
    82   116   115    1
    83   115   118    1
    84    36    37    1
    85   120   122   ar
    86   120   119   ar
    87   122   124   ar
    88    47    46    1
    89    68    71    1
    90    68    67    1
    91     8     9    1
    92    46    43    1
    93   118   119    1
    94   119   121   ar
    95    71    72    1
    96    71    73    1
    97    37    38    2
    98   124   123   ar
    99    43    42    1
   100    43    44    1
   101   121   123   ar
   102    44    49   am
   103    44    45    2
   104    54    53    1
   105    49    50    1
   106    65    64    1
   107    50    53    1
   108    50    51    1
   109    53    55    1
   110    62    63    1
   111    62    61    1
   112    64    63    2
   113    64    66    1
   114    60    61    1
   115    60    57    1
   116    51    52    2
   117    56    57    1
   118    57    58    1
   119    58    59    2
