@<TRIPOS>MOLECULE
tmp/4aw1A01.pdb
 124 119 0 0 0
SMALL
GASTEIGER

@<TRIPOS>ATOM
      1  N          1.5410   34.9670  -11.4160 N.3     9  LYS9       -0.1245
      2  CA         0.2550   34.3470  -11.7130 C.3     9  LYS9        0.1561
      3  C          0.4110   33.3140  -12.8230 C.2     9  LYS9        0.2260
      4  O          1.1260   33.5370  -13.8010 O.2     9  LYS9       -0.2867
      5  CB        -0.7720   35.4030  -12.1280 C.3     9  LYS9        0.0271
      6  CG        -1.2960   36.2450  -10.9740 C.3     9  LYS9        0.0035
      7  CD        -2.4430   35.5340  -10.2740 C.3     9  LYS9        0.0206
      8  CE        -2.8700   36.2390   -9.0050 C.3     9  LYS9        0.1093
      9  NZ        -3.7740   35.3740   -8.1990 N.3     9  LYS9       -0.1314
     10  N        -16.7940   34.8310  -16.8680 N.3    48  LYS48      -0.1245
     11  CA       -17.0690   36.1870  -16.3950 C.3    48  LYS48       0.1561
     12  C        -18.4290   36.7350  -16.8660 C.2    48  LYS48       0.2260
     13  O        -19.1780   37.3050  -16.0730 O.2    48  LYS48      -0.2867
     14  CB       -15.9670   37.1310  -16.8580 C.3    48  LYS48       0.0271
     15  CG       -14.6420   36.9020  -16.1930 C.3    48  LYS48       0.0035
     16  CD       -13.6060   37.8710  -16.7140 C.3    48  LYS48       0.0206
     17  CE       -12.2900   37.7390  -15.9650 C.3    48  LYS48       0.1093
     18  NZ       -11.3000   38.7160  -16.4930 N.3    48  LYS48      -0.1314
     19  N        -21.1260   35.3160  -14.7810 N.3    51  ILE51      -0.1231
     20  CA       -21.0190   35.7910  -13.4080 C.3    51  ILE51       0.1692
     21  C        -21.5610   37.2170  -13.3120 C.2    51  ILE51       0.2591
     22  O        -22.2750   37.5720  -12.3720 O.2    51  ILE51      -0.2718
     23  CB       -19.5520   35.7510  -12.9490 C.3    51  ILE51       0.0266
     24  CG1      -19.0630   34.2980  -12.8810 C.3    51  ILE51       0.0019
     25  CG2      -19.3810   36.4510  -11.6140 C.3    51  ILE51       0.0020
     26  CD1      -19.7680   33.4490  -11.8410 C.3    51  ILE51       0.0001
     27  N        -21.2480   38.0340  -14.3060 N.am   52  ILE52      -0.1980
     28  CA       -21.6950   39.4130  -14.2810 C.3    52  ILE52       0.1595
     29  C        -23.2100   39.5040  -14.4790 C.2    52  ILE52       0.2287
     30  O        -23.9090   40.1820  -13.7180 O.2    52  ILE52      -0.2864
     31  CB       -20.9700   40.2490  -15.3360 C.3    52  ILE52       0.0276
     32  CG1      -19.4850   40.3670  -14.9590 C.3    52  ILE52       0.0022
     33  CG2      -21.6180   41.6170  -15.4440 C.3    52  ILE52       0.0022
     34  CD1      -18.6050   40.8730  -16.0890 C.3    52  ILE52       0.0001
     35  N        -20.6590   38.5200   -8.8130 N.3    57  VAL57      -0.1245
     36  CA       -19.2710   38.9650   -8.6900 C.3    57  VAL57       0.1561
     37  C        -18.7410   38.8280   -7.2590 C.2    57  VAL57       0.2260
     38  O        -17.6410   38.3110   -7.0610 O.2    57  VAL57      -0.2867
     39  CB       -19.0730   40.4100   -9.1880 C.3    57  VAL57       0.0252
     40  CG1      -17.6680   40.9060   -8.8480 C.3    57  VAL57       0.0019
     41  CG2      -19.3160   40.4840  -10.6890 C.3    57  VAL57       0.0019
     42  N        -17.5150   35.2520   -6.0870 N.3    60  VAL60      -0.1231
     43  CA       -16.2370   34.7980   -6.6310 C.3    60  VAL60       0.1692
     44  C        -15.0890   35.1850   -5.7110 C.2    60  VAL60       0.2592
     45  O        -14.2570   34.3600   -5.3470 O.2    60  VAL60      -0.2718
     46  CB       -15.9620   35.4270   -8.0050 C.3    60  VAL60       0.0266
     47  CG1      -14.5370   35.1140   -8.4680 C.3    60  VAL60       0.0020
     48  CG2      -16.9740   34.9330   -9.0120 C.3    60  VAL60       0.0020
     49  N        -15.0360   36.4620   -5.3570 N.am   61  THR61      -0.1953
     50  CA       -13.9820   36.9660   -4.4860 C.3    61  THR61       0.1897
     51  C        -14.0960   36.3280   -3.1080 C.2    61  THR61       0.2313
     52  O        -13.0920   36.0130   -2.4630 O.2    61  THR61      -0.2863
     53  CB       -14.0630   38.4960   -4.3320 C.3    61  THR61       0.1794
     54  OG1      -15.2310   38.8490   -3.5790 O.3    61  THR61      -0.2208
     55  CG2      -14.1110   39.1700   -5.6980 C.3    61  THR61       0.0378
     56  N        -12.6340   32.8090   -3.0710 N.3    64  ARG64      -0.1245
     57  CA       -11.1720   32.8390   -3.0120 C.3    64  ARG64       0.1563
     58  C        -10.6910   33.1860   -1.6070 C.2    64  ARG64       0.2260
     59  O         -9.8040   32.5330   -1.0700 O.2    64  ARG64      -0.2867
     60  CB       -10.5960   33.8610   -3.9950 C.3    64  ARG64       0.0307
     61  CG        -9.0760   33.9900   -3.9000 C.3    64  ARG64       0.0489
     62  CD        -8.5940   35.2470   -4.5890 C.3    64  ARG64       0.2205
     63  NE        -9.0570   36.4350   -3.8860 N.pl3  64  ARG64      -0.0865
     64  CZ        -8.8370   37.6810   -4.2890 C.cat  64  ARG64       0.5346
     65  NH1       -8.1670   37.9110   -5.4110 N.pl3  64  ARG64       0.1354
     66  NH2       -9.2890   38.6980   -3.5620 N.pl3  64  ARG64       0.1354
     67  N         -5.0840   31.2810   -8.0320 N.3    81  THR81      -0.1203
     68  CA        -6.1800   31.8140   -8.8290 C.3    81  THR81       0.1994
     69  C         -5.5660   32.5990   -9.9770 C.2    81  THR81       0.2618
     70  O         -4.4500   33.1210   -9.8700 O.2    81  THR81      -0.2717
     71  CB        -7.0900   32.7630   -8.0170 C.3    81  THR81       0.1784
     72  OG1       -6.2780   33.7050   -7.3070 O.3    81  THR81      -0.2211
     73  CG2       -7.9640   31.9950   -7.0250 C.3    81  THR81       0.0376
     74  N         -6.2860   32.6640  -11.0850 N.am   82  PHE82      -0.1961
     75  CA        -5.8960   33.5420  -12.1650 C.3    82  PHE82       0.1771
     76  C         -7.0950   33.7980  -13.0630 C.2    82  PHE82       0.2619
     77  O         -8.1590   33.2000  -12.8790 O.2    82  PHE82      -0.2715
     78  CB        -4.6700   32.9940  -12.9250 C.3    82  PHE82       0.0574
     79  CG        -4.8770   31.6540  -13.5960 C.ar   82  PHE82      -0.0200
     80  CD1       -5.3630   31.5750  -14.9030 C.ar   82  PHE82      -0.0042
     81  CD2       -4.5340   30.4800  -12.9530 C.ar   82  PHE82      -0.0042
     82  CE1       -5.5310   30.3360  -15.5280 C.ar   82  PHE82      -0.0003
     83  CE2       -4.7020   29.2490  -13.5770 C.ar   82  PHE82      -0.0003
     84  CZ        -5.1910   29.1840  -14.8610 C.ar   82  PHE82      -0.0000
     85  N         -6.9430   34.7310  -13.9930 N.am   83  GLN83      -0.1977
     86  CA        -8.0160   35.0410  -14.9160 C.3    83  GLN83       0.1601
     87  C         -7.4510   35.2860  -16.3030 C.2    83  GLN83       0.2287
     88  O         -6.2450   35.4540  -16.4740 O.2    83  GLN83      -0.2864
     89  CB        -8.7620   36.2850  -14.4460 C.3    83  GLN83       0.0394
     90  CG        -7.8940   37.5300  -14.4720 C.3    83  GLN83       0.0908
     91  CD        -8.5320   38.7040  -13.7770 C.2    83  GLN83       0.2608
     92  OE1       -9.6190   39.1540  -14.1520 O.2    83  GLN83      -0.2717
     93  NE2       -7.8640   39.2080  -12.7510 N.am   83  GLN83      -0.0878
     94  N        -12.4770   32.9760  -15.1290 N.3    88  LEU88      -0.1231
     95  CA       -11.8880   32.9880  -13.8030 C.3    88  LEU88       0.1693
     96  C        -11.5250   31.5470  -13.4660 C.2    88  LEU88       0.2592
     97  O        -12.3320   30.6550  -13.6910 O.2    88  LEU88      -0.2718
     98  CB       -12.9070   33.5080  -12.7940 C.3    88  LEU88       0.0284
     99  CG       -13.3380   34.9550  -13.0350 C.3    88  LEU88       0.0019
    100  CD1      -14.7470   35.2170  -12.4970 C.3    88  LEU88       0.0001
    101  CD2      -12.3390   35.8980  -12.4250 C.3    88  LEU88       0.0001
    102  N        -10.3290   31.3380  -12.9240 N.am   89  TYR89      -0.1962
    103  CA        -9.8030   30.0000  -12.6570 C.3    89  TYR89       0.1771
    104  C         -9.3720   29.8470  -11.2060 C.2    89  TYR89       0.2619
    105  O         -8.5790   30.6400  -10.7230 O.2    89  TYR89      -0.2715
    106  CB        -8.5560   29.7280  -13.5090 C.3    89  TYR89       0.0574
    107  CG        -8.7390   29.8710  -15.0100 C.ar   89  TYR89      -0.0198
    108  CD1       -8.7260   31.1200  -15.6140 C.ar   89  TYR89      -0.0009
    109  CD2       -8.8710   28.7630  -15.8100 C.ar   89  TYR89      -0.0009
    110  CE1       -8.8800   31.2510  -16.9970 C.ar   89  TYR89       0.0417
    111  CE2       -9.0250   28.8770  -17.1740 C.ar   89  TYR89       0.0417
    112  CZ        -9.0190   30.1210  -17.7650 C.ar   89  TYR89       0.1957
    113  OH        -9.1720   30.2120  -19.1340 O.3    89  TYR89      -0.2866
    114  N         -9.8740   28.8140  -10.5380 N.am   90  PHE90      -0.1974
    115  CA        -9.4220   28.4390   -9.2030 C.3    90  PHE90       0.1639
    116  C         -8.6330   27.1400   -9.3010 C.2    90  PHE90       0.2290
    117  O         -9.1680   26.1230   -9.7430 O.2    90  PHE90      -0.2864
    118  CB       -10.5940   28.1440   -8.2640 C.3    90  PHE90       0.0560
    119  CG       -11.4920   29.3080   -7.9770 C.ar   90  PHE90      -0.0200
    120  CD1      -12.4770   29.6840   -8.8810 C.ar   90  PHE90      -0.0042
    121  CD2      -11.4100   29.9810   -6.7600 C.ar   90  PHE90      -0.0042
    122  CE1      -13.3310   30.7360   -8.5920 C.ar   90  PHE90      -0.0003
    123  CE2      -12.2610   31.0410   -6.4790 C.ar   90  PHE90      -0.0003
    124  CZ       -13.2240   31.4090   -7.3920 C.ar   90  PHE90      -0.0000
@<TRIPOS>BOND
     1   113   112    1
     2   112   111   ar
     3   112   110   ar
     4   111   109   ar
     5   110   108   ar
     6    10    11    1
     7    12    11    1
     8    12    13    2
     9    14    11    1
    10    14    15    1
    11    16    15    1
    12    16    17    1
    13    18    17    1
    14    88    87    2
    15    87    86    1
    16    34    32    1
    17   109   107   ar
    18   108   107   ar
    19    82    80   ar
    20    82    84   ar
    21    33    31    1
    22    31    32    1
    23    31    28    1
    24    94    95    1
    25   107   106    1
    26    86    89    1
    27    86    85    1
    28    80    79   ar
    29    84    83   ar
    30    19    20    1
    31    29    28    1
    32    29    30    2
    33    90    89    1
    34    90    91    1
    35    27    28    1
    36    27    21   am
    37    92    91    2
    38    85    76   am
    39    95    96    1
    40    95    98    1
    41     4     3    2
    42    91    93   am
    43    97    96    2
    44    79    81   ar
    45    79    78    1
    46    83    81   ar
    47   106   103    1
    48    96   102   am
    49    20    21    1
    50    20    23    1
    51    21    22    2
    52    76    77    2
    53    76    75    1
    54    99    98    1
    55    99   100    1
    56    99   101    1
    57    23    24    1
    58    23    25    1
    59    78    75    1
    60   102   103    1
    61    24    26    1
    62     3     2    1
    63   103   104    1
    64    75    74    1
    65     5     2    1
    66     5     6    1
    67     2     1    1
    68   104   105    2
    69   104   114   am
    70    74    69   am
    71     6     7    1
    72    41    39    1
    73   114   115    1
    74     7     8    1
    75    69    70    2
    76    69    68    1
    77   117   116    2
    78   116   115    1
    79   115   118    1
    80    39    40    1
    81    39    36    1
    82    48    46    1
    83     8     9    1
    84   120   122   ar
    85   120   119   ar
    86    68    67    1
    87    68    71    1
    88    35    36    1
    89    36    37    1
    90   122   124   ar
    91    47    46    1
    92   118   119    1
    93    71    72    1
    94    71    73    1
    95    46    43    1
    96   119   121   ar
    97   124   123   ar
    98    37    38    2
    99   121   123   ar
   100    43    42    1
   101    43    44    1
   102    44    49   am
   103    44    45    2
   104    55    53    1
   105    65    64    1
   106    49    50    1
   107    62    61    1
   108    62    63    1
   109    50    53    1
   110    50    51    1
   111    53    54    1
   112    64    63    2
   113    64    66    1
   114    60    61    1
   115    60    57    1
   116    51    52    2
   117    56    57    1
   118    57    58    1
   119    58    59    2
