@<TRIPOS>MOLECULE
tmp/4aw5A00.pdb
 186 175 0 0 0
SMALL
GASTEIGER

@<TRIPOS>ATOM
      1  N         13.7120  -13.0600   16.0360 N.3    15  ILE15      -0.1231
      2  CA        12.9870  -13.1090   14.7430 C.3    15  ILE15       0.1692
      3  C         13.8520  -12.7900   13.5020 C.2    15  ILE15       0.2593
      4  O         13.4290  -13.0080   12.3820 O.2    15  ILE15      -0.2718
      5  CB        11.7550  -12.1320   14.7540 C.3    15  ILE15       0.0266
      6  CG1       12.1760  -10.7100   15.1710 C.3    15  ILE15       0.0019
      7  CG2       10.6300  -12.6850   15.6310 C.3    15  ILE15       0.0020
      8  CD1       11.4620   -9.6270   14.4450 C.3    15  ILE15       0.0001
      9  N         15.0460  -12.2650   13.7100 N.am   16  GLY16      -0.1942
     10  CA        15.9700  -12.0140   12.6310 C.3    16  GLY16       0.2014
     11  C         17.3710  -11.6820   13.1540 C.2    16  GLY16       0.2639
     12  O         17.6990  -11.8570   14.3420 O.2    16  GLY16      -0.2714
     13  N         18.2020  -11.1960   12.2400 N.am   17  ALA17      -0.1963
     14  CA        19.5750  -10.8240   12.5400 C.3    17  ALA17       0.1728
     15  C         19.9870   -9.6920   11.6080 C.2    17  ALA17       0.2617
     16  O         20.1780   -9.9080   10.4160 O.2    17  ALA17      -0.2715
     17  CB        20.4960  -12.0480   12.3670 C.3    17  ALA17       0.0334
     18  N         20.0850   -8.4810   12.1420 N.am   18  GLY18      -0.1940
     19  CA        20.5640   -7.3310   11.3860 C.3    18  GLY18       0.2014
     20  C         22.0830   -7.3200   11.3880 C.2    18  GLY18       0.2638
     21  O         22.7060   -8.1960   12.0000 O.2    18  GLY18      -0.2714
     22  N         22.6850   -6.3240   10.7460 N.am   19  GLU19      -0.1977
     23  CA        24.1250   -6.3590   10.5010 C.3    19  GLU19       0.1602
     24  C         24.9800   -6.3750   11.7920 C.2    19  GLU19       0.2287
     25  O         26.1070   -6.8880   11.7780 O.2    19  GLU19      -0.2864
     26  CB        24.5560   -5.2190    9.5510 C.3    19  GLU19       0.0415
     27  CG        25.2180   -5.6900    8.2460 C.3    19  GLU19       0.1163
     28  CD        26.0280   -4.5960    7.5380 C.2    19  GLU19       0.3649
     29  OE1       26.3100   -3.5380    8.1560 O.co2  19  GLU19      -0.2457
     30  OE2       26.3970   -4.7920    6.3600 O.co2  19  GLU19      -0.2457
     31  N         17.7400   -9.4550   16.1640 N.3    23  VAL23      -0.1245
     32  CA        16.5200   -8.6630   16.1660 C.3    23  VAL23       0.1561
     33  C         15.4660   -9.5410   16.8170 C.2    23  VAL23       0.2260
     34  O         15.3380  -10.7230   16.4820 O.2    23  VAL23      -0.2867
     35  CB        16.0970   -8.2110   14.7240 C.3    23  VAL23       0.0252
     36  CG1       14.8330   -7.4000   14.7530 C.3    23  VAL23       0.0019
     37  CG2       17.2100   -7.3980   14.0780 C.3    23  VAL23       0.0019
     38  N          9.4430   -4.3570   17.6470 N.3    39  ALA39      -0.1245
     39  CA        10.6970   -5.0430   17.3190 C.3    39  ALA39       0.1562
     40  C         11.8260   -4.3580   18.0950 C.2    39  ALA39       0.2260
     41  O         11.7840   -3.1550   18.3230 O.2    39  ALA39      -0.2867
     42  CB        10.9760   -4.9970   15.8150 C.3    39  ALA39       0.0290
     43  N         16.1330   -4.0900   18.2960 N.3    41  LYS41      -0.1245
     44  CA        17.4680   -4.3530   17.7240 C.3    41  LYS41       0.1561
     45  C         18.5050   -4.1740   18.8310 C.2    41  LYS41       0.2260
     46  O         18.4760   -3.1850   19.5540 O.2    41  LYS41      -0.2867
     47  CB        17.7620   -3.4250   16.5380 C.3    41  LYS41       0.0271
     48  CG        16.6730   -3.4420   15.4370 C.3    41  LYS41       0.0035
     49  CD        17.0430   -2.5670   14.2320 C.3    41  LYS41       0.0206
     50  CE        17.8510   -3.3450   13.1930 C.3    41  LYS41       0.1093
     51  NZ        18.9720   -2.5350   12.6760 N.3    41  LYS41      -0.1314
     52  N         21.0310    5.2690   13.3250 N.3    58  GLU58      -0.1245
     53  CA        19.7290    4.8220   12.8560 C.3    58  GLU58       0.1567
     54  C         18.5640    5.4410   13.6330 C.2    58  GLU58       0.2260
     55  O         17.5890    5.8750   13.0470 O.2    58  GLU58      -0.2867
     56  CB        19.6260    3.2980   12.9210 C.3    58  GLU58       0.0388
     57  CG        18.2900    2.8020   12.3930 C.3    58  GLU58       0.1160
     58  CD        18.3380    1.3910   11.9200 C.2    58  GLU58       0.3649
     59  OE1       18.8060    0.5520   12.6990 O.co2  58  GLU58      -0.2457
     60  OE2       17.8910    1.1380   10.7750 O.co2  58  GLU58      -0.2457
     61  N          8.9570    3.5540    9.0900 N.3    71  ILE71      -0.1245
     62  CA         8.8970    2.7680   10.3200 C.3    71  ILE71       0.1561
     63  C          9.0610    3.6800   11.5460 C.2    71  ILE71       0.2260
     64  O          9.7700    4.6580   11.4730 O.2    71  ILE71      -0.2867
     65  CB         9.8950    1.5700   10.2470 C.3    71  ILE71       0.0252
     66  CG1        9.5930    0.5670   11.3380 C.3    71  ILE71       0.0019
     67  CG2       11.3420    1.9900   10.3730 C.3    71  ILE71       0.0019
     68  CD1       10.2200   -0.8000   11.0580 C.3    71  ILE71       0.0001
     69  N         11.5270   -0.3700   17.7460 N.3    87  THR87      -0.1203
     70  CA        10.7540    0.1330   16.6210 C.3    87  THR87       0.1994
     71  C          9.4800   -0.6560   16.5270 C.2    87  THR87       0.2618
     72  O          9.1900   -1.4970   17.3690 O.2    87  THR87      -0.2717
     73  CB        11.5500   -0.0010   15.2820 C.3    87  THR87       0.1784
     74  OG1       11.6820   -1.3820   14.9350 O.3    87  THR87      -0.2211
     75  CG2       13.0130    0.4390   15.4520 C.3    87  THR87       0.0376
     76  N          8.7220   -0.4170   15.4620 N.am   88  GLU88      -0.1965
     77  CA         7.4260   -1.0060   15.3740 C.3    88  GLU88       0.1733
     78  C          7.5780   -2.4240   14.7890 C.2    88  GLU88       0.2616
     79  O          8.4240   -2.6520   13.8910 O.2    88  GLU88      -0.2715
     80  CB         6.4400   -0.0270   14.6960 C.3    88  GLU88       0.0429
     81  CG         6.1790   -0.2390   13.2400 C.3    88  GLU88       0.1163
     82  CD         5.2620    0.8140   12.6270 C.2    88  GLU88       0.3649
     83  OE1        5.7460    1.9050   12.2590 O.co2  88  GLU88      -0.2457
     84  OE2        4.0630    0.5210   12.4750 O.co2  88  GLU88      -0.2457
     85  N          6.8200   -3.3790   15.3640 N.am   89  PHE89      -0.1960
     86  CA         6.8910   -4.7790   14.9600 C.3    89  PHE89       0.1771
     87  C          6.0400   -4.9170   13.6890 C.2    89  PHE89       0.2619
     88  O          4.9610   -4.3670   13.6140 O.2    89  PHE89      -0.2715
     89  CB         6.4200   -5.7320   16.0790 C.3    89  PHE89       0.0574
     90  CG         6.2820   -7.1850   15.6440 C.ar   89  PHE89      -0.0200
     91  CD1        7.3960   -7.9350   15.2860 C.ar   89  PHE89      -0.0042
     92  CD2        5.0400   -7.7940   15.5880 C.ar   89  PHE89      -0.0042
     93  CE1        7.2730   -9.2750   14.8450 C.ar   89  PHE89      -0.0003
     94  CE2        4.8990   -9.1240   15.1360 C.ar   89  PHE89      -0.0003
     95  CZ         6.0290   -9.8660   14.7770 C.ar   89  PHE89      -0.0000
     96  N          6.5590   -5.6510   12.7060 N.am   90  MET90      -0.1963
     97  CA         6.0120   -5.7190   11.3320 C.3    90  MET90       0.1736
     98  C          5.7710   -7.1950   11.0210 C.2    90  MET90       0.2616
     99  O          6.7080   -7.9250   10.7160 O.2    90  MET90      -0.2715
    100  CB         7.0290   -5.1260   10.3350 C.3    90  MET90       0.0427
    101  CG         7.2030   -3.6080   10.3760 C.3    90  MET90       0.0599
    102  SD         5.7130   -2.5690   10.3750 S.3    90  MET90      -0.1393
    103  CE         5.4270   -2.4190    8.5760 C.3    90  MET90       0.0692
    104  N          4.5160   -7.6210   11.1320 N.am   91  GLU91      -0.1963
    105  CA         4.0990   -9.0530   11.1530 C.3    91  GLU91       0.1733
    106  C          4.5300   -9.8920    9.9680 C.2    91  GLU91       0.2616
    107  O          4.7270  -11.0880   10.1040 O.2    91  GLU91      -0.2715
    108  CB         2.5610   -9.1940   11.2100 C.3    91  GLU91       0.0429
    109  CG         1.8530   -9.5350   12.5370 C.3    91  GLU91       0.1163
    110  CD         0.7550  -10.6490   12.3860 C.2    91  GLU91       0.3649
    111  OE1        0.9390  -11.6130   11.6040 O.co2  91  GLU91      -0.2457
    112  OE2       -0.3220  -10.5710   13.0340 O.co2  91  GLU91      -0.2457
    113  N          4.6010   -9.2990    8.7850 N.am   92  ASN92      -0.1958
    114  CA         4.9860  -10.0470    7.5730 C.3    92  ASN92       0.1819
    115  C          6.4480   -9.8020    7.1180 C.2    92  ASN92       0.2622
    116  O          6.8150  -10.1420    5.9870 O.2    92  ASN92      -0.2715
    117  CB         3.9680   -9.7400    6.4660 C.3    92  ASN92       0.1195
    118  CG         2.6200  -10.3990    6.7060 C.2    92  ASN92       0.2630
    119  OD1        2.5820  -11.5380    7.1090 O.2    92  ASN92      -0.2716
    120  ND2        1.4940   -9.6920    6.3870 N.am   92  ASN92      -0.0877
    121  N          7.2720   -9.2070    7.9940 N.am   93  GLY93      -0.1940
    122  CA         8.7320   -9.1110    7.8160 C.3    93  GLY93       0.2014
    123  C          9.1380   -8.4350    6.5020 C.2    93  GLY93       0.2638
    124  O          8.4050   -7.6070    5.9930 O.2    93  GLY93      -0.2714
    125  N         10.3010   -8.7680    5.9670 N.am   94  ALA94      -0.1977
    126  CA        10.8450   -8.1020    4.7860 C.3    94  ALA94       0.1597
    127  C         10.0040   -8.3410    3.5400 C.2    94  ALA94       0.2287
    128  O          9.5110   -9.4060    3.3240 O.2    94  ALA94      -0.2864
    129  CB        12.2390   -8.5720    4.5540 C.3    94  ALA94       0.0319
    130  N          7.4800  -15.8890   -0.7670 N.3   101  LEU101     -0.1245
    131  CA         6.5780  -16.7720   -0.0400 C.3   101  LEU101      0.1561
    132  C          5.1700  -16.8070   -0.6780 C.2   101  LEU101      0.2260
    133  O          4.5120  -17.8480   -0.7220 O.2   101  LEU101     -0.2867
    134  CB         6.4990  -16.3550    1.4210 C.3   101  LEU101      0.0270
    135  CG         5.8870  -17.3250    2.4150 C.3   101  LEU101      0.0019
    136  CD1        6.5700  -18.7170    2.3800 C.3   101  LEU101      0.0001
    137  CD2        5.9860  -16.6940    3.8200 C.3   101  LEU101      0.0001
    138  N         19.7390    3.5400   -0.2990 N.3   134  ASP134     -0.1239
    139  CA        19.7370    2.0720   -0.1610 C.3   134  ASP134      0.1674
    140  C         18.3040    1.4940   -0.2800 C.2   134  ASP134      0.2266
    141  O         18.0050    0.4120    0.2280 O.2   134  ASP134     -0.2867
    142  CB        20.5210    1.6120    1.1240 C.3   134  ASP134      0.1410
    143  CG        20.7840    0.0960    1.1510 C.2   134  ASP134      0.3668
    144  OD1       20.8970   -0.5090    0.0610 O.co2 134  ASP134     -0.2456
    145  OD2       20.8350   -0.6200    2.1970 O.co2 134  ASP134     -0.2456
    146  N         14.3600   -5.4400    0.1450 N.3   138  ARG138     -0.1231
    147  CA        14.8320   -6.0360    1.4200 C.3   138  ARG138      0.1694
    148  C         14.8260   -5.0540    2.6130 C.2   138  ARG138      0.2592
    149  O         14.8860   -5.4930    3.7690 O.2   138  ARG138     -0.2718
    150  CB        16.2380   -6.6390    1.2710 C.3   138  ARG138      0.0321
    151  CG        17.3940   -5.5990    1.2590 C.3   138  ARG138      0.0489
    152  CD        18.7990   -6.1310    0.7150 C.3   138  ARG138      0.2205
    153  NE        19.6130   -4.9970    0.2850 N.pl3 138  ARG138     -0.0865
    154  CZ        19.7150   -4.5320   -0.9640 C.cat 138  ARG138      0.5346
    155  NH1       19.1010   -5.1200   -1.9820 N.pl3 138  ARG138      0.1354
    156  NH2       20.4310   -3.4500   -1.2080 N.pl3 138  ARG138      0.1354
    157  N         14.8060   -3.7440    2.3220 N.am  139  ASN139     -0.1974
    158  CA        14.6600   -2.6780    3.3220 C.3   139  ASN139      0.1688
    159  C         13.2580   -2.1130    3.4350 C.2   139  ASN139      0.2292
    160  O         13.0850   -1.0840    4.0520 O.2   139  ASN139     -0.2864
    161  CB        15.6570   -1.5390    3.0590 C.3   139  ASN139      0.1181
    162  CG        17.1310   -2.0150    3.0670 C.2   139  ASN139      0.2629
    163  OD1       17.5110   -2.9200    3.8320 O.2   139  ASN139     -0.2716
    164  ND2       17.9570   -1.4090    2.2140 N.am  139  ASN139     -0.0877
    165  N          9.4540   -3.1830    4.9740 N.3   141  LEU141     -0.1245
    166  CA         8.8080   -4.1460    5.8760 C.3   141  LEU141      0.1561
    167  C          7.2990   -4.0560    5.7060 C.2   141  LEU141      0.2260
    168  O          6.7990   -3.0150    5.3520 O.2   141  LEU141     -0.2867
    169  CB         9.1960   -3.8740    7.3390 C.3   141  LEU141      0.0270
    170  CG        10.6810   -4.0350    7.7560 C.3   141  LEU141      0.0019
    171  CD1       10.9530   -3.2560    8.9480 C.3   141  LEU141      0.0001
    172  CD2       11.1120   -5.4190    8.0970 C.3   141  LEU141      0.0001
    173  N         12.2480    0.9970    6.0450 N.3   151  SER151     -0.1202
    174  CA        13.2340    0.9190    7.1140 C.3   151  SER151      0.2020
    175  C         14.6850    1.1300    6.5820 C.2   151  SER151      0.2618
    176  O         14.9200    1.7600    5.5130 O.2   151  SER151     -0.2717
    177  CB        13.1340   -0.4330    7.7740 C.3   151  SER151      0.2103
    178  OG        13.4380   -1.4240    6.7960 O.3   151  SER151     -0.2182
    179  N         15.6350    0.5790    7.3450 N.am  152  ASP152     -0.1973
    180  CA        17.0970    0.8000    6.9330 C.3   152  ASP152      0.1709
    181  C         17.4970    2.1890    6.9880 C.2   152  ASP152      0.2293
    182  O         17.5780    2.7780    5.9080 O.2   152  ASP152     -0.2864
    183  CB        17.4780    0.5500    5.3970 C.3   152  ASP152      0.1436
    184  CG        19.0500    0.6600    5.1460 C.2   152  ASP152      0.3671
    185  OD1       19.8120    0.6500    6.1420 O.co2 152  ASP152     -0.2456
    186  OD2       19.6090    0.8040    4.0400 O.co2 152  ASP152     -0.2456
@<TRIPOS>BOND
     1   155   154    1
     2   156   154    1
     3   154   153    2
     4   130   131    1
     5   133   132    2
     6   132   131    1
     7   138   139    1
     8   140   139    1
     9   140   141    2
    10   139   142    1
    11   131   134    1
    12   144   143   ar
    13   146   147    1
    14   153   152    1
    15   152   151    1
    16   142   143    1
    17   143   145   ar
    18   151   150    1
    19   150   147    1
    20   147   148    1
    21   134   135    1
    22   164   162   am
    23   157   148   am
    24   157   158    1
    25   136   135    1
    26   135   137    1
    27   148   149    2
    28   161   162    1
    29   161   158    1
    30   162   163    2
    31   158   159    1
    32   128   127    2
    33   159   160    2
    34   127   126    1
    35   186   184   ar
    36   129   126    1
    37   126   125    1
    38   165   166    1
    39   184   183    1
    40   184   185   ar
    41   168   167    2
    42   183   180    1
    43   176   175    2
    44   167   166    1
    45   166   169    1
    46   182   181    2
    47   125   123   am
    48   116   115    2
    49   124   123    2
    50   173   174    1
    51    30    28   ar
    52   120   118   am
    53   117   118    1
    54   117   114    1
    55   123   122    1
    56   175   174    1
    57   175   179   am
    58   118   119    2
    59   178   177    1
    60   180   181    1
    61   180   179    1
    62   174   177    1
    63   115   114    1
    64   115   121   am
    65   169   170    1
    66    28    29   ar
    67    28    27    1
    68   114   113    1
    69   170   172    1
    70   170   171    1
    71   122   121    1
    72    27    26    1
    73   103   102    1
    74   113   106   am
    75    61    62    1
    76    26    23    1
    77   106   107    2
    78   106   105    1
    79    65    62    1
    80    65    67    1
    81    65    66    1
    82    62    63    1
    83   100   101    1
    84   100    97    1
    85   102   101    1
    86    16    15    2
    87    23    22    1
    88    23    24    1
    89    99    98    2
    90    22    20   am
    91    60    58   ar
    92    98   104   am
    93    98    97    1
    94    68    66    1
    95   104   105    1
    96   105   108    1
    97   108   109    1
    98    97    96    1
    99    19    20    1
   100    19    18    1
   101    20    21    2
   102    64    63    2
   103   111   110   ar
   104    15    18   am
   105    15    14    1
   106    25    24    2
   107    58    57    1
   108    58    59   ar
   109    13    14    1
   110    13    11   am
   111    83    82   ar
   112    17    14    1
   113     4     3    2
   114   110   109    1
   115   110   112   ar
   116    57    56    1
   117    84    82   ar
   118    82    81    1
   119    10    11    1
   120    10     9    1
   121    51    50    1
   122    96    87   am
   123    53    56    1
   124    53    52    1
   125    53    54    1
   126    55    54    2
   127    11    12    2
   128    50    49    1
   129    81    80    1
   130     3     9   am
   131     3     2    1
   132    88    87    2
   133    87    86    1
   134    79    78    2
   135    37    35    1
   136    49    48    1
   137     8     6    1
   138    80    77    1
   139    35    36    1
   140    35    32    1
   141     2     5    1
   142     2     1    1
   143     5     6    1
   144     5     7    1
   145    95    93   ar
   146    95    94   ar
   147    78    85   am
   148    78    77    1
   149    93    91   ar
   150    74    73    1
   151    86    85    1
   152    86    89    1
   153    94    92   ar
   154    73    75    1
   155    73    70    1
   156    91    90   ar
   157    77    76    1
   158    48    47    1
   159    76    71   am
   160    92    90   ar
   161    90    89    1
   162    42    39    1
   163    31    32    1
   164    32    33    1
   165    34    33    2
   166    71    70    1
   167    71    72    2
   168    47    44    1
   169    70    69    1
   170    39    38    1
   171    39    40    1
   172    44    43    1
   173    44    45    1
   174    40    41    2
   175    45    46    2
