@<TRIPOS>MOLECULE
tmp/4aw6C00.pdb
 112 108 0 0 0
SMALL
GASTEIGER

@<TRIPOS>ATOM
      1  N        162.7980  183.5550   97.5010 N.3   184  TRP184     -0.1241
      2  CA       162.6040  184.8740   98.1080 C.3   184  TRP184      0.1605
      3  C        161.4170  185.5700   97.4410 C.2   184  TRP184      0.2264
      4  O        160.6100  186.1880   98.1340 O.2   184  TRP184     -0.2867
      5  CB       163.8850  185.7250   97.9920 C.3   184  TRP184      0.0550
      6  CG       163.6890  187.1950   98.2190 C.ar  184  TRP184      0.0003
      7  CD1      163.4180  187.8120   99.4030 C.ar  184  TRP184      0.0946
      8  CD2      163.7560  188.2320   97.2310 C.ar  184  TRP184      0.0152
      9  NE1      163.3150  189.1710   99.2180 N.ar  184  TRP184     -0.2442
     10  CE2      163.5160  189.4570   97.8930 C.ar  184  TRP184      0.0810
     11  CE3      163.9940  188.2450   95.8470 C.ar  184  TRP184      0.0012
     12  CZ2      163.5120  190.6820   97.2200 C.ar  184  TRP184      0.0191
     13  CZ3      163.9900  189.4610   95.1820 C.ar  184  TRP184      0.0001
     14  CH2      163.7470  190.6600   95.8640 C.ar  184  TRP184      0.0015
     15  N        157.8280  186.6440   98.9040 N.3   188  LEU188     -0.1245
     16  CA       157.4620  188.0350   98.6110 C.3   188  LEU188      0.1561
     17  C        155.9990  188.1040   98.1510 C.2   188  LEU188      0.2260
     18  O        155.2690  188.9880   98.5980 O.2   188  LEU188     -0.2867
     19  CB       158.3970  188.6200   97.5360 C.3   188  LEU188      0.0270
     20  CG       158.4060  190.1400   97.3540 C.3   188  LEU188      0.0019
     21  CD1      159.8170  190.6480   97.1380 C.3   188  LEU188      0.0001
     22  CD2      157.5270  190.5670   96.1810 C.3   188  LEU188      0.0001
     23  N        152.6670  189.5250  100.5680 N.3   192  LEU192     -0.1245
     24  CA       151.7680  190.5720  100.0670 C.3   192  LEU192      0.1561
     25  C        150.3410  190.0660   99.8060 C.2   192  LEU192      0.2260
     26  O        149.4000  190.8550   99.9280 O.2   192  LEU192     -0.2867
     27  CB       152.3230  191.2190   98.7910 C.3   192  LEU192      0.0270
     28  CG       153.6600  191.9510   98.9120 C.3   192  LEU192      0.0019
     29  CD1      154.2230  192.2690   97.5380 C.3   192  LEU192      0.0001
     30  CD2      153.5420  193.2120   99.7630 C.3   192  LEU192      0.0001
     31  N        145.1670  197.4390   99.3090 N.3   254  PHE254     -0.1227
     32  CA       146.2240  197.2580   98.3150 C.3   254  PHE254      0.1736
     33  C        146.5900  198.6190   97.6730 C.2   254  PHE254      0.2595
     34  O        147.7400  199.0700   97.7830 O.2   254  PHE254     -0.2718
     35  CB       145.8050  196.2140   97.2540 C.3   254  PHE254      0.0547
     36  CG       146.6620  196.1820   96.0100 C.ar  254  PHE254     -0.0202
     37  CD1      147.9510  195.6630   96.0450 C.ar  254  PHE254     -0.0042
     38  CD2      146.1800  196.6740   94.8040 C.ar  254  PHE254     -0.0042
     39  CE1      148.7480  195.6480   94.9010 C.ar  254  PHE254     -0.0003
     40  CE2      146.9780  196.6610   93.6580 C.ar  254  PHE254     -0.0003
     41  CZ       148.2550  196.1440   93.7140 C.ar  254  PHE254     -0.0000
     42  N        145.6130  199.2640   97.0130 N.am  255  PHE255     -0.1976
     43  CA       145.8180  200.5510   96.3630 C.3   255  PHE255      0.1639
     44  C        144.6160  201.4620   96.6360 C.2   255  PHE255      0.2290
     45  O        144.5040  201.9960   97.7430 O.2   255  PHE255     -0.2864
     46  CB       146.0810  200.3690   94.8530 C.3   255  PHE255      0.0560
     47  CG       146.6100  201.5940   94.1730 C.ar  255  PHE255     -0.0200
     48  CD1      147.7820  202.1840   94.5580 C.ar  255  PHE255     -0.0042
     49  CD2      145.8670  202.1800   93.2240 C.ar  255  PHE255     -0.0042
     50  CE1      148.1940  203.3960   93.9140 C.ar  255  PHE255     -0.0003
     51  CE2      146.3060  203.3560   92.5590 C.ar  255  PHE255     -0.0003
     52  CZ       147.4760  203.9320   92.9280 C.ar  255  PHE255     -0.0000
     53  N        141.1790  200.8420  100.1380 N.3   258  LYS258     -0.1245
     54  CA       141.6240  200.8870  101.5370 C.3   258  LYS258      0.1561
     55  C        140.4170  200.8670  102.4750 C.2   258  LYS258      0.2260
     56  O        139.4130  201.5260  102.1980 O.2   258  LYS258     -0.2867
     57  CB       142.4890  202.1350  101.8220 C.3   258  LYS258      0.0271
     58  CG       143.8310  202.1940  101.0990 C.3   258  LYS258      0.0035
     59  CD       144.9510  201.4750  101.8490 C.3   258  LYS258      0.0206
     60  CE       146.3200  201.7550  101.2700 C.3   258  LYS258      0.1093
     61  NZ       146.4820  201.2510   99.8750 N.3   258  LYS258     -0.1314
     62  N        154.7680  201.2340  103.6970 N.3   293  VAL293     -0.1245
     63  CA       155.5940  200.8510  102.5450 C.3   293  VAL293      0.1561
     64  C        157.0510  200.6090  102.9790 C.2   293  VAL293      0.2260
     65  O        157.6340  199.6070  102.5610 O.2   293  VAL293     -0.2867
     66  CB       155.5140  201.8650  101.3730 C.3   293  VAL293      0.0252
     67  CG1      156.0470  201.2460  100.0840 C.3   293  VAL293      0.0019
     68  CG2      154.0850  202.3580  101.1600 C.3   293  VAL293      0.0019
     69  N        157.5840  197.2000  104.6750 N.3   296  ILE296     -0.1231
     70  CA       157.5560  196.0650  103.7420 C.3   296  ILE296      0.1692
     71  C        158.9290  195.9670  103.0650 C.2   296  ILE296      0.2591
     72  O        159.4760  194.8650  102.9560 O.2   296  ILE296     -0.2718
     73  CB       156.3890  196.1340  102.7060 C.3   296  ILE296      0.0266
     74  CG1      155.0300  196.3600  103.4000 C.3   296  ILE296      0.0019
     75  CG2      156.3350  194.8610  101.8430 C.3   296  ILE296      0.0020
     76  CD1      153.9670  197.0530  102.5420 C.3   296  ILE296      0.0001
     77  N        159.4950  197.1280  102.6530 N.am  297  ILE297     -0.1980
     78  CA       160.8070  197.2470  101.9930 C.3   297  ILE297      0.1595
     79  C        161.9110  196.7030  102.9220 C.2   297  ILE297      0.2287
     80  O        162.8450  196.0700  102.4250 O.2   297  ILE297     -0.2864
     81  CB       161.0900  198.7030  101.5190 C.3   297  ILE297      0.0276
     82  CG1      160.1400  199.0880  100.3690 C.3   297  ILE297      0.0022
     83  CG2      162.5550  198.9000  101.0910 C.3   297  ILE297      0.0022
     84  CD1      159.8380  200.5680  100.2530 C.3   297  ILE297      0.0001
     85  N        161.3800  192.6610  103.2070 N.3   300  GLN300     -0.1231
     86  CA       161.7850  191.9540  101.9900 C.3   300  GLN300      0.1698
     87  C        163.2940  192.0790  101.7430 C.2   300  GLN300      0.2592
     88  O        163.8670  191.2460  101.0390 O.2   300  GLN300     -0.2718
     89  CB       160.9840  192.4270  100.7680 C.3   300  GLN300      0.0381
     90  CG       159.4890  192.0800  100.8180 C.3   300  GLN300      0.0905
     91  CD       159.1920  190.6190  101.0720 C.2   300  GLN300      0.2608
     92  OE1      159.7650  189.7100  100.4560 O.2   300  GLN300     -0.2717
     93  NE2      158.2810  190.3660  101.9990 N.am  300  GLN300     -0.0878
     94  N        163.9350  193.1050  102.3340 N.am  301  MET301     -0.1979
     95  CA       165.3820  193.3260  102.2620 C.3   301  MET301      0.1605
     96  C        166.0630  192.3310  103.1940 C.2   301  MET301      0.2287
     97  O        167.1470  191.8370  102.8860 O.2   301  MET301     -0.2864
     98  CB       165.7160  194.7730  102.6570 C.3   301  MET301      0.0413
     99  CG       167.0870  195.2370  102.2390 C.3   301  MET301      0.0598
    100  SD       167.1580  197.0490  102.0960 S.3   301  MET301     -0.1393
    101  CE       167.1290  197.5350  103.8200 C.3   301  MET301      0.0692
    102  N        165.7780  188.7350  101.6350 N.3   304  PHE304     -0.1241
    103  CA       166.7140  188.5840  100.5180 C.3   304  PHE304      0.1605
    104  C        168.0970  188.2600  101.0650 C.2   304  PHE304      0.2264
    105  O        168.7270  187.3100  100.5940 O.2   304  PHE304     -0.2867
    106  CB       166.7580  189.8240   99.6000 C.3   304  PHE304      0.0534
    107  CG       167.6750  189.6500   98.4030 C.ar  304  PHE304     -0.0203
    108  CD1      167.2530  188.9520   97.2760 C.ar  304  PHE304     -0.0042
    109  CD2      168.9700  190.1580   98.4170 C.ar  304  PHE304     -0.0042
    110  CE1      168.1080  188.7680   96.1850 C.ar  304  PHE304     -0.0003
    111  CE2      169.8260  189.9670   97.3260 C.ar  304  PHE304     -0.0003
    112  CZ       169.3870  189.2770   96.2180 C.ar  304  PHE304     -0.0000
@<TRIPOS>BOND
     1    51    52   ar
     2    51    49   ar
     3    52    50   ar
     4    49    47   ar
     5    40    41   ar
     6    40    38   ar
     7    41    39   ar
     8    50    48   ar
     9    47    48   ar
    10    47    46    1
    11    38    36   ar
    12    46    43    1
    13    39    37   ar
    14    13    11   ar
    15    13    14   ar
    16    11     8   ar
    17    14    12   ar
    18    36    37   ar
    19    36    35    1
    20    22    20    1
    21   110   112   ar
    22   110   108   ar
    23   112   111   ar
    24    43    44    1
    25    43    42    1
    26    44    45    2
    27    42    33   am
    28    21    20    1
    29    12    10   ar
    30     8    10   ar
    31     8     6   ar
    32    35    32    1
    33   108   107   ar
    34   111   109   ar
    35    20    19    1
    36     3     2    1
    37     3     4    2
    38     1     2    1
    39    19    16    1
    40    29    28    1
    41    33    34    2
    42    33    32    1
    43    10     9   ar
    44     5     2    1
    45     5     6    1
    46    17    18    2
    47    17    16    1
    48     6     7   ar
    49    32    31    1
    50   107   109   ar
    51   107   106    1
    52    16    15    1
    53    27    28    1
    54    27    24    1
    55    28    30    1
    56     9     7   ar
    57   106   103    1
    58    25    26    2
    59    25    24    1
    60    61    60    1
    61    24    23    1
    62    67    66    1
    63    53    54    1
    64    84    82    1
    65    82    81    1
    66    92    91    2
    67   103   104    1
    68   103   102    1
    69   105   104    2
    70    89    90    1
    71    89    86    1
    72    90    91    1
    73    88    87    2
    74    91    93   am
    75    83    81    1
    76    58    57    1
    77    58    59    1
    78    68    66    1
    79    60    59    1
    80    66    63    1
    81    81    78    1
    82    54    57    1
    83    54    55    1
    84    87    86    1
    85    87    94   am
    86    75    73    1
    87    86    85    1
    88    78    77    1
    89    78    79    1
    90   100    99    1
    91   100   101    1
    92    56    55    2
    93    99    98    1
    94    95    94    1
    95    95    98    1
    96    95    96    1
    97    80    79    2
    98    76    74    1
    99    63    64    1
   100    63    62    1
   101    65    64    2
   102    77    71   am
   103    73    74    1
   104    73    70    1
   105    97    96    2
   106    72    71    2
   107    71    70    1
   108    70    69    1
