@<TRIPOS>MOLECULE
tmp/4aw7A00.pdb
 180 178 0 0 0
SMALL
GASTEIGER

@<TRIPOS>ATOM
      1  N         43.3190   84.1620   14.5040 N.3    28  HIS28      -0.1241
      2  CA        44.7720   84.0720   14.4690 C.3    28  HIS28       0.1621
      3  C         45.3590   85.4850   14.5370 C.2    28  HIS28       0.2264
      4  O         45.8000   86.0560   13.5390 O.2    28  HIS28      -0.2867
      5  CB        45.2020   83.3150   13.1790 C.3    28  HIS28       0.0745
      6  CG        46.6520   82.9730   13.1510 C.ar   28  HIS28       0.0817
      7  ND1       47.6190   83.8840   12.8170 N.ar   28  HIS28      -0.2268
      8  CD2       47.3170   81.8340   13.4900 C.ar   28  HIS28       0.1154
      9  CE1       48.8160   83.3160   12.9270 C.ar   28  HIS28       0.1986
     10  NE2       48.6680   82.0640   13.3350 N.ar   28  HIS28      -0.2212
     11  N         50.5530   85.1320   17.6220 N.3    51  LYS51      -0.1231
     12  CA        51.3750   86.2550   17.2490 C.3    51  LYS51       0.1693
     13  C         52.7900   85.7870   16.9760 C.2    51  LYS51       0.2592
     14  O         53.3280   85.0210   17.7560 O.2    51  LYS51      -0.2718
     15  CB        51.4110   87.2420   18.4330 C.3    51  LYS51       0.0285
     16  CG        52.3130   88.3790   18.2950 C.3    51  LYS51       0.0035
     17  CD        51.7220   89.4250   17.4480 C.3    51  LYS51       0.0206
     18  CE        52.3190   90.8130   17.7670 C.3    51  LYS51       0.1093
     19  NZ        51.6960   91.8140   16.8140 N.3    51  LYS51      -0.1314
     20  N         53.3720   86.3170   15.9080 N.am   52  PHE52      -0.1962
     21  CA        54.7790   86.0790   15.5770 C.3    52  PHE52       0.1771
     22  C         55.6590   87.1070   16.2710 C.2    52  PHE52       0.2619
     23  O         56.0620   88.1220   15.6950 O.2    52  PHE52      -0.2715
     24  CB        54.9650   86.0980   14.0750 C.3    52  PHE52       0.0574
     25  CG        54.4870   84.8430   13.4040 C.ar   52  PHE52      -0.0200
     26  CD1       53.1600   84.5880   13.1950 C.ar   52  PHE52      -0.0042
     27  CD2       55.3950   83.8580   13.0730 C.ar   52  PHE52      -0.0042
     28  CE1       52.7660   83.4030   12.6110 C.ar   52  PHE52      -0.0003
     29  CE2       55.0000   82.6850   12.4600 C.ar   52  PHE52      -0.0003
     30  CZ        53.7000   82.4540   12.2480 C.ar   52  PHE52      -0.0000
     31  N         55.8830   86.8880   17.5430 N.am   53  TRP53      -0.1974
     32  CA        56.8010   87.7010   18.3320 C.3    53  TRP53       0.1640
     33  C         57.0840   86.9810   19.6160 C.2    53  TRP53       0.2290
     34  O         56.2000   86.3320   20.1640 O.2    53  TRP53      -0.2864
     35  CB        56.1990   89.0660   18.6410 C.3    53  TRP53       0.0576
     36  CG        57.3000   90.0840   18.9500 C.ar   53  TRP53       0.0006
     37  CD1       57.6960   90.5340   20.1680 C.ar   53  TRP53       0.0946
     38  CD2       58.1450   90.7310   17.9830 C.ar   53  TRP53       0.0152
     39  NE1       58.7080   91.4560   20.0110 N.ar   53  TRP53      -0.2442
     40  CE2       59.0100   91.5750   18.6800 C.ar   53  TRP53       0.0810
     41  CE3       58.2320   90.6770   16.5900 C.ar   53  TRP53       0.0012
     42  CZ2       59.9560   92.3760   18.0240 C.ar   53  TRP53       0.0191
     43  CZ3       59.1600   91.4680   15.9340 C.ar   53  TRP53       0.0001
     44  CH2       60.0170   92.2890   16.6550 C.ar   53  TRP53       0.0015
     45  N         62.3650   89.6880   20.0010 N.3    58  TYR58      -0.1241
     46  CA        62.7040   90.7730   20.9370 C.3    58  TYR58       0.1605
     47  C         64.2270   90.9360   21.0700 C.2    58  TYR58       0.2264
     48  O         64.7640   92.0380   20.9910 O.2    58  TYR58      -0.2867
     49  CB        62.0910   90.4610   22.2960 C.3    58  TYR58       0.0534
     50  CG        62.4730   91.4450   23.3950 C.ar   58  TYR58      -0.0201
     51  CD1       63.6560   91.2730   24.1110 C.ar   58  TYR58      -0.0009
     52  CD2       61.6550   92.5310   23.7350 C.ar   58  TYR58      -0.0009
     53  CE1       64.0370   92.1540   25.1080 C.ar   58  TYR58       0.0417
     54  CE2       62.0320   93.4280   24.7410 C.ar   58  TYR58       0.0417
     55  CZ        63.2260   93.2240   25.4240 C.ar   58  TYR58       0.1957
     56  OH        63.6270   94.0750   26.4400 O.3    58  TYR58      -0.2866
     57  N         66.0620   92.2610   17.9520 N.3    61  ASN61      -0.1225
     58  CA        65.7630   93.6950   17.8200 C.3    61  ASN61       0.1785
     59  C         66.7220   94.5640   18.6490 C.2    61  ASN61       0.2597
     60  O         67.0290   95.6970   18.2410 O.2    61  ASN61      -0.2718
     61  CB        64.2910   93.9440   18.1790 C.3    61  ASN61       0.1169
     62  CG        63.8980   95.3990   18.1490 C.2    61  ASN61       0.2627
     63  OD1       63.8620   96.0340   19.1940 O.2    61  ASN61      -0.2716
     64  ND2       63.5580   95.9060   16.9860 N.am   61  ASN61      -0.0877
     65  N         67.2290   94.0050   19.7400 N.am   62  LYS62      -0.1980
     66  CA        68.2240   94.6990   20.5970 C.3    62  LYS62       0.1596
     67  C         69.6660   94.4650   20.1590 C.2    62  LYS62       0.2287
     68  O         70.4520   95.4100   20.1250 O.2    62  LYS62      -0.2864
     69  CB        68.1040   94.2520   22.0510 C.3    62  LYS62       0.0298
     70  CG        66.6880   94.3320   22.6440 C.3    62  LYS62       0.0038
     71  CD        66.0580   95.7030   22.5160 C.3    62  LYS62       0.0206
     72  CE        64.5690   95.6990   22.9170 C.3    62  LYS62       0.1093
     73  NZ        63.7580   94.6850   22.0510 N.3    62  LYS62      -0.1314
     74  N         59.0570   83.0840   13.6800 N.3    89  HIS89      -0.1241
     75  CA        59.4820   82.6190   12.3710 C.3    89  HIS89       0.1621
     76  C         60.8060   81.8730   12.5200 C.2    89  HIS89       0.2264
     77  O         61.6780   82.3040   13.2840 O.2    89  HIS89      -0.2867
     78  CB        59.7060   83.7620   11.4060 C.3    89  HIS89       0.0745
     79  CG        58.4850   84.5430   11.0520 C.ar   89  HIS89       0.0817
     80  ND1       57.4670   84.0240   10.2810 N.ar   89  HIS89      -0.2268
     81  CD2       58.1380   85.8200   11.3330 C.ar   89  HIS89       0.1154
     82  CE1       56.5420   84.9560   10.1210 C.ar   89  HIS89       0.1986
     83  NE2       56.9310   86.0590   10.7420 N.ar   89  HIS89      -0.2212
     84  N         63.6380   81.9490   11.2240 N.3    91  TYR91      -0.1241
     85  CA        64.5580   82.8430   10.5120 C.3    91  TYR91       0.1605
     86  C         65.9750   82.6340   11.0290 C.2    91  TYR91       0.2264
     87  O         66.1460   82.3080   12.2010 O.2    91  TYR91      -0.2867
     88  CB        64.1900   84.3360   10.7840 C.3    91  TYR91       0.0534
     89  CG        62.9380   84.9290   10.1440 C.ar   91  TYR91      -0.0201
     90  CD1       62.3170   84.3330    9.0510 C.ar   91  TYR91      -0.0009
     91  CD2       62.4040   86.1320   10.6400 C.ar   91  TYR91      -0.0009
     92  CE1       61.1520   84.9070    8.4780 C.ar   91  TYR91       0.0417
     93  CE2       61.2780   86.7060   10.0630 C.ar   91  TYR91       0.0417
     94  CZ        60.6720   86.0860    8.9780 C.ar   91  TYR91       0.1957
     95  OH        59.5390   86.6340    8.4150 O.3    91  TYR91      -0.2866
     96  N         63.5300   86.1820   29.7230 N.3   111  TYR111     -0.1241
     97  CA        62.6500   87.1250   29.0810 C.3   111  TYR111      0.1605
     98  C         61.2530   87.0340   29.7160 C.2   111  TYR111      0.2264
     99  O         60.7080   88.0450   30.1660 O.2   111  TYR111     -0.2867
    100  CB        62.5450   86.7920   27.5730 C.3   111  TYR111      0.0534
    101  CG        61.5570   87.6550   26.8310 C.ar  111  TYR111     -0.0201
    102  CD1       61.8460   88.9750   26.5300 C.ar  111  TYR111     -0.0009
    103  CD2       60.3140   87.1480   26.4200 C.ar  111  TYR111     -0.0009
    104  CE1       60.9420   89.7590   25.8390 C.ar  111  TYR111      0.0417
    105  CE2       59.4340   87.9300   25.7320 C.ar  111  TYR111      0.0417
    106  CZ        59.7400   89.2300   25.4480 C.ar  111  TYR111      0.1957
    107  OH        58.8680   90.0470   24.7710 O.3   111  TYR111     -0.2866
    108  N         57.7830   78.3220   14.3020 N.3   126  ASN126     -0.1240
    109  CA        56.7130   77.9580   13.3900 C.3   126  ASN126      0.1653
    110  C         57.2530   77.1730   12.2050 C.2   126  ASN126      0.2266
    111  O         58.2670   77.5660   11.6080 O.2   126  ASN126     -0.2867
    112  CB        56.0640   79.2190   12.8720 C.3   126  ASN126      0.1155
    113  CG        54.8760   78.9190   11.9790 C.2   126  ASN126      0.2627
    114  OD1       53.9550   78.1890   12.3830 O.2   126  ASN126     -0.2716
    115  ND2       54.8780   79.4720   10.7630 N.am  126  ASN126     -0.0877
    116  N         47.0830   76.3450   13.7340 N.3   248  GLU248     -0.1245
    117  CA        46.4190   76.8640   12.5390 C.3   248  GLU248      0.1567
    118  C         45.5630   75.7550   11.9470 C.2   248  GLU248      0.2260
    119  O         46.0240   74.6350   11.8310 O.2   248  GLU248     -0.2867
    120  CB        47.3890   77.2740   11.4300 C.3   248  GLU248      0.0388
    121  CG        48.4800   78.2810   11.8230 C.3   248  GLU248      0.1160
    122  CD        49.4930   78.4980   10.7270 C.2   248  GLU248      0.3649
    123  OE1       49.2180   78.1800    9.5490 O.co2 248  GLU248     -0.2457
    124  OE2       50.5980   78.9820   11.0190 O.co2 248  GLU248     -0.2457
    125  N         42.4230   79.6580   10.8840 N.3   292  PHE292     -0.1241
    126  CA        43.3680   80.5330   10.2110 C.3   292  PHE292      0.1605
    127  C         42.6660   81.6500    9.4600 C.2   292  PHE292      0.2264
    128  O         42.5330   81.6140    8.2300 O.2   292  PHE292     -0.2867
    129  CB        44.3810   79.7600    9.3650 C.3   292  PHE292      0.0534
    130  CG        45.5780   80.5860    9.0110 C.ar  292  PHE292     -0.0203
    131  CD1       46.5360   80.8440    9.9780 C.ar  292  PHE292     -0.0042
    132  CD2       45.7730   81.0900    7.7340 C.ar  292  PHE292     -0.0042
    133  CE1       47.6690   81.5490    9.6760 C.ar  292  PHE292     -0.0003
    134  CE2       46.9350   81.7910    7.4520 C.ar  292  PHE292     -0.0003
    135  CZ        47.8340   82.0330    8.4030 C.ar  292  PHE292     -0.0000
    136  N         42.6870   85.9650   10.3480 N.3   294  SER294     -0.1202
    137  CA        43.4030   86.8700   11.2020 C.3   294  SER294      0.2020
    138  C         42.6710   88.1720   11.4930 C.2   294  SER294      0.2618
    139  O         41.7450   88.1920   12.3030 O.2   294  SER294     -0.2717
    140  CB        44.8250   87.0530   10.7050 C.3   294  SER294      0.2103
    141  OG        44.8290   87.6230    9.4110 O.3   294  SER294     -0.2182
    142  N         43.1240   89.2700   10.8880 N.am  295  ASP295     -0.1973
    143  CA        42.7820   90.5930   11.3650 C.3   295  ASP295      0.1709
    144  C         42.9120   91.5820   10.2140 C.2   295  ASP295      0.2293
    145  O         42.5090   91.2750    9.0640 O.2   295  ASP295     -0.2864
    146  CB        43.5830   90.8950   12.6290 C.3   295  ASP295      0.1436
    147  CG        45.0700   90.6580   12.4590 C.2   295  ASP295      0.3671
    148  OD1       45.5830   90.8300   11.3400 O.co2 295  ASP295     -0.2456
    149  OD2       45.7250   90.3300   13.4810 O.co2 295  ASP295     -0.2456
    150  N         45.8240   92.6000    9.1750 N.3   297  ALA297     -0.1245
    151  CA        47.0860   92.1610    8.5530 C.3   297  ALA297      0.1562
    152  C         47.7660   93.2740    7.7530 C.2   297  ALA297      0.2260
    153  O         48.1410   93.1320    6.5780 O.2   297  ALA297     -0.2867
    154  CB        46.8800   90.8840    7.7040 C.3   297  ALA297      0.0290
    155  N         50.6230   94.6240    7.8260 N.3   299  TRP299     -0.1241
    156  CA        51.9780   94.3090    7.3660 C.3   299  TRP299      0.1605
    157  C         52.0280   93.8770    5.8910 C.2   299  TRP299      0.2264
    158  O         53.0770   94.0430    5.2420 O.2   299  TRP299     -0.2867
    159  CB        52.6140   93.2220    8.2760 C.3   299  TRP299      0.0550
    160  CG        51.7970   91.9570    8.3180 C.ar  299  TRP299      0.0003
    161  CD1       50.8250   91.6450    9.2310 C.ar  299  TRP299      0.0946
    162  CD2       51.8050   90.8920    7.3600 C.ar  299  TRP299      0.0152
    163  NE1       50.2550   90.4520    8.9130 N.ar  299  TRP299     -0.2442
    164  CE2       50.8350   89.9470    7.7820 C.ar  299  TRP299      0.0810
    165  CE3       52.5500   90.6230    6.2060 C.ar  299  TRP299      0.0012
    166  CZ2       50.5900   88.7810    7.0910 C.ar  299  TRP299      0.0191
    167  CZ3       52.3080   89.4530    5.5200 C.ar  299  TRP299      0.0001
    168  CH2       51.3090   88.5570    5.9400 C.ar  299  TRP299      0.0015
    169  N         46.3500   90.3670    2.8170 N.3   310  TYR310     -0.1241
    170  CA        46.7250   88.9530    2.9460 C.3   310  TYR310      0.1605
    171  C         45.4600   88.0970    2.8830 C.2   310  TYR310      0.2264
    172  O         44.4280   88.4720    3.4080 O.2   310  TYR310     -0.2867
    173  CB        47.4340   88.7440    4.2770 C.3   310  TYR310      0.0534
    174  CG        47.9780   87.3750    4.5180 C.ar  310  TYR310     -0.0201
    175  CD1       48.8090   86.7460    3.6060 C.ar  310  TYR310     -0.0009
    176  CD2       47.7250   86.7220    5.7100 C.ar  310  TYR310     -0.0009
    177  CE1       49.3460   85.4780    3.8720 C.ar  310  TYR310      0.0417
    178  CE2       48.2470   85.4630    5.9810 C.ar  310  TYR310      0.0417
    179  CZ        49.0560   84.8360    5.0690 C.ar  310  TYR310      0.1957
    180  OH        49.5670   83.5970    5.3770 O.3   310  TYR310     -0.2866
@<TRIPOS>BOND
     1   169   170    1
     2   171   170    1
     3   171   172    2
     4   170   173    1
     5   175   177   ar
     6   175   174   ar
     7   177   179   ar
     8   173   174    1
     9   174   176   ar
    10   179   180    1
    11   179   178   ar
    12   158   157    2
    13   167   168   ar
    14   167   165   ar
    15   176   178   ar
    16   157   156    1
    17   168   166   ar
    18   165   162   ar
    19   153   152    2
    20   166   164   ar
    21   162   164   ar
    22   162   160   ar
    23   156   155    1
    24   156   159    1
    25   134   132   ar
    26   134   135   ar
    27   154   151    1
    28   132   130   ar
    29   152   151    1
    30   164   163   ar
    31   128   127    2
    32   159   160    1
    33   160   161   ar
    34   135   133   ar
    35    95    94    1
    36    92    94   ar
    37    92    90   ar
    38   151   150    1
    39   163   161   ar
    40    94    93   ar
    41   130   129    1
    42   130   131   ar
    43    90    89   ar
    44   145   144    2
    45   129   126    1
    46   141   140    1
    47   127   126    1
    48   123   122   ar
    49   133   131   ar
    50    93    91   ar
    51    82    80   ar
    52    82    83   ar
    53    89    91   ar
    54    89    88    1
    55   126   125    1
    56   144   143    1
    57    80    79   ar
    58   136   137    1
    59    85    88    1
    60    85    86    1
    61    85    84    1
    62   140   137    1
    63   122   124   ar
    64   122   121    1
    65    83    81   ar
    66   115   113   am
    67   142   143    1
    68   142   138   am
    69    86    87    2
    70    79    81   ar
    71    79    78    1
    72   137   138    1
    73   148   147   ar
    74   143   146    1
    75    78    75    1
    76   120   121    1
    77   120   117    1
    78   138   139    2
    79   111   110    2
    80   119   118    2
    81   118   117    1
    82   113   114    2
    83   113   112    1
    84   110   109    1
    85    30    29   ar
    86    30    28   ar
    87    75    76    1
    88    75    74    1
    89   147   146    1
    90   147   149   ar
    91    29    27   ar
    92    76    77    2
    93   117   116    1
    94    28    26   ar
    95     7     9   ar
    96     7     6   ar
    97   112   109    1
    98     9    10   ar
    99    27    25   ar
   100     6     5    1
   101     6     8   ar
   102     5     2    1
   103    26    25   ar
   104    10     8   ar
   105   109   108    1
   106    25    24    1
   107     4     3    2
   108    24    21    1
   109     2     1    1
   110     2     3    1
   111    21    20    1
   112    21    22    1
   113    23    22    2
   114    20    13   am
   115    43    41   ar
   116    43    44   ar
   117    22    31   am
   118    41    38   ar
   119    44    42   ar
   120    19    18    1
   121    13    12    1
   122    13    14    2
   123    64    62   am
   124    12    11    1
   125    12    15    1
   126    17    18    1
   127    17    16    1
   128    31    32    1
   129    58    57    1
   130    58    61    1
   131    58    59    1
   132    38    40   ar
   133    38    36   ar
   134    42    40   ar
   135    62    61    1
   136    62    63    2
   137    60    59    2
   138    16    15    1
   139    32    35    1
   140    32    33    1
   141    35    36    1
   142    59    65   am
   143    40    39   ar
   144    36    37   ar
   145    33    34    2
   146    65    66    1
   147    45    46    1
   148    39    37   ar
   149    68    67    2
   150    67    66    1
   151    66    69    1
   152    46    47    1
   153    46    49    1
   154    48    47    2
   155    69    70    1
   156    73    72    1
   157    49    50    1
   158    71    70    1
   159    71    72    1
   160    50    52   ar
   161    50    51   ar
   162    52    54   ar
   163    51    53   ar
   164    54    55   ar
   165   107   106    1
   166    53    55   ar
   167    55    56    1
   168   106   105   ar
   169   106   104   ar
   170   105   103   ar
   171   104   102   ar
   172   103   101   ar
   173   102   101   ar
   174   101   100    1
   175   100    97    1
   176    97    98    1
   177    97    96    1
   178    98    99    2
