@<TRIPOS>MOLECULE
tmp/4aw8A00.pdb
 157 155 0 0 0
SMALL
GASTEIGER

@<TRIPOS>ATOM
      1  N         16.0220   13.4450  -24.5000 N.3    51  LYS51      -0.1245
      2  CA        16.5800   14.7680  -24.2280 C.3    51  LYS51       0.1561
      3  C         17.5900   15.1740  -25.3010 C.2    51  LYS51       0.2260
      4  O         17.5980   16.3200  -25.7590 O.2    51  LYS51      -0.2867
      5  CB        17.2280   14.8030  -22.8390 C.3    51  LYS51       0.0271
      6  CG        16.2800   15.2280  -21.7220 C.3    51  LYS51       0.0035
      7  CD        16.6220   14.5560  -20.4060 C.3    51  LYS51       0.0206
      8  CE        16.0180   15.2960  -19.2210 C.3    51  LYS51       0.1093
      9  NZ        14.7930   16.0680  -19.5730 N.3    51  LYS51      -0.1314
     10  N         25.4820   14.5860  -16.4300 N.3    66  TYR66      -0.1227
     11  CA        24.8750   15.6290  -15.5970 C.3    66  TYR66       0.1736
     12  C         23.9430   14.9940  -14.5700 C.2    66  TYR66       0.2595
     13  O         23.9610   15.3670  -13.3880 O.2    66  TYR66      -0.2718
     14  CB        24.0770   16.5860  -16.4930 C.3    66  TYR66       0.0548
     15  CG        23.1810   17.5670  -15.7730 C.ar   66  TYR66      -0.0200
     16  CD1       23.7180   18.6160  -15.0320 C.ar   66  TYR66      -0.0009
     17  CD2       21.7930   17.4570  -15.8520 C.ar   66  TYR66      -0.0009
     18  CE1       22.9010   19.5210  -14.3790 C.ar   66  TYR66       0.0417
     19  CE2       20.9660   18.3660  -15.2000 C.ar   66  TYR66       0.0417
     20  CZ        21.5270   19.3910  -14.4780 C.ar   66  TYR66       0.1957
     21  OH        20.7180   20.2910  -13.8210 O.3    66  TYR66      -0.2866
     22  N         23.1210   14.0510  -15.0460 N.am   67  TYR67      -0.1976
     23  CA        22.2040   13.3180  -14.1620 C.3    67  TYR67       0.1639
     24  C         22.9240   12.3370  -13.2360 C.2    67  TYR67       0.2290
     25  O         22.4700   12.0940  -12.1190 O.2    67  TYR67      -0.2864
     26  CB        21.0770   12.6480  -14.9580 C.3    67  TYR67       0.0560
     27  CG        20.0130   13.6630  -15.3070 C.ar   67  TYR67      -0.0198
     28  CD1       19.1310   14.1300  -14.3460 C.ar   67  TYR67      -0.0009
     29  CD2       19.9040   14.1650  -16.6010 C.ar   67  TYR67      -0.0009
     30  CE1       18.1770   15.0850  -14.6560 C.ar   67  TYR67       0.0417
     31  CE2       18.9330   15.1090  -16.9340 C.ar   67  TYR67       0.0417
     32  CZ        18.0830   15.5700  -15.9550 C.ar   67  TYR67       0.1957
     33  OH        17.1220   16.5130  -16.2720 O.3    67  TYR67      -0.2866
     34  N         22.0450   12.6310   -9.4230 N.3    71  TYR71      -0.1241
     35  CA        21.3620   11.5670   -8.6890 C.3    71  TYR71       0.1605
     36  C         22.2170   10.8380   -7.6610 C.2    71  TYR71       0.2264
     37  O         21.6700   10.2430   -6.7090 O.2    71  TYR71      -0.2867
     38  CB        20.7600   10.5330   -9.6500 C.3    71  TYR71       0.0534
     39  CG        19.6380   11.0420  -10.5500 C.ar   71  TYR71      -0.0201
     40  CD1       18.9060   12.1810  -10.2300 C.ar   71  TYR71      -0.0009
     41  CD2       19.3040   10.3510  -11.7020 C.ar   71  TYR71      -0.0009
     42  CE1       17.8520   12.6400  -11.0700 C.ar   71  TYR71       0.0417
     43  CE2       18.2670   10.7900  -12.5460 C.ar   71  TYR71       0.0417
     44  CZ        17.5480   11.9300  -12.2080 C.ar   71  TYR71       0.1957
     45  OH        16.5350   12.3340  -13.0380 O.3    71  TYR71      -0.2866
     46  N         17.6390   30.3400  -11.1460 N.3   108  TYR108     -0.1241
     47  CA        18.8000   29.5750  -11.5950 C.3   108  TYR108      0.1605
     48  C         19.5050   30.3380  -12.6990 C.2   108  TYR108      0.2264
     49  O         18.9530   31.2790  -13.2420 O.2   108  TYR108     -0.2867
     50  CB        18.3620   28.1940  -12.0960 C.3   108  TYR108      0.0534
     51  CG        17.6070   27.4190  -11.0530 C.ar  108  TYR108     -0.0201
     52  CD1       18.1150   27.2770   -9.7560 C.ar  108  TYR108     -0.0009
     53  CD2       16.3850   26.8350  -11.3500 C.ar  108  TYR108     -0.0009
     54  CE1       17.4200   26.5690   -8.7830 C.ar  108  TYR108      0.0417
     55  CE2       15.6780   26.1220  -10.3800 C.ar  108  TYR108      0.0417
     56  CZ        16.2050   25.9980   -9.1080 C.ar  108  TYR108      0.1957
     57  OH        15.5030   25.2950   -8.1560 O.3   108  TYR108     -0.2866
     58  N         13.0490   29.2710  -12.3310 N.3   113  LYS113     -0.1231
     59  CA        12.9890   29.3830  -10.8770 C.3   113  LYS113      0.1693
     60  C         12.5180   28.0820  -10.2220 C.2   113  LYS113      0.2593
     61  O         12.0090   27.1890  -10.8750 O.2   113  LYS113     -0.2718
     62  CB        12.0690   30.5340  -10.4750 C.3   113  LYS113      0.0285
     63  CG        12.5260   31.9030  -10.9820 C.3   113  LYS113      0.0035
     64  CD        11.3520   32.8870  -11.1320 C.3   113  LYS113      0.0206
     65  CE        10.6670   33.1580   -9.8290 C.3   113  LYS113      0.1093
     66  NZ         9.5460   34.1150  -10.0440 N.3   113  LYS113     -0.1314
     67  N         12.7150   27.9810   -8.9190 N.am  114  GLY114     -0.1942
     68  CA        12.2530   26.8210   -8.1630 C.3   114  GLY114      0.2014
     69  C         12.1140   27.2610   -6.7260 C.2   114  GLY114      0.2639
     70  O         12.6370   28.3260   -6.3380 O.2   114  GLY114     -0.2714
     71  N         11.4030   26.4600   -5.9360 N.am  115  VAL115     -0.1963
     72  CA        11.2480   26.7400   -4.5270 C.3   115  VAL115      0.1727
     73  C         11.7700   25.5260   -3.7740 C.2   115  VAL115      0.2616
     74  O         11.4070   24.4000   -4.0910 O.2   115  VAL115     -0.2715
     75  CB         9.7400   26.9770   -4.1360 C.3   115  VAL115      0.0290
     76  CG1        9.6120   27.2870   -2.6630 C.3   115  VAL115      0.0023
     77  CG2        9.1300   28.1000   -4.9590 C.3   115  VAL115      0.0023
     78  N         12.6260   25.7770   -2.7860 N.am  116  ARG116     -0.1977
     79  CA        13.0450   24.7560   -1.8350 C.3   116  ARG116      0.1597
     80  C         12.2890   24.8920   -0.5130 C.2   116  ARG116      0.2287
     81  O         12.0800   26.0090   -0.0320 O.2   116  ARG116     -0.2864
     82  CB        14.5480   24.8450   -1.5840 C.3   116  ARG116      0.0334
     83  CG        15.3630   24.4250   -2.8140 C.3   116  ARG116      0.0492
     84  CD        16.7660   23.9790   -2.4500 C.3   116  ARG116      0.2205
     85  NE        17.6300   24.0370   -3.6290 N.pl3 116  ARG116     -0.0865
     86  CZ        18.9510   23.9680   -3.5950 C.cat 116  ARG116      0.5346
     87  NH1       19.5780   23.8710   -2.4280 N.pl3 116  ARG116      0.1354
     88  NH2       19.6390   24.0310   -4.7290 N.pl3 116  ARG116      0.1354
     89  N         12.9410   19.9210   -3.0090 N.3   135  SER135     -0.1217
     90  CA        12.6240   20.6440   -4.2170 C.3   135  SER135      0.1889
     91  C         11.9180   19.7110   -5.1950 C.2   135  SER135      0.2288
     92  O         12.4730   18.7000   -5.6140 O.2   135  SER135     -0.2866
     93  CB        13.9080   21.2390   -4.7920 C.3   135  SER135      0.2089
     94  OG        13.7000   21.7660   -6.0710 O.3   135  SER135     -0.2183
     95  N          9.3550   20.9320   -7.9140 N.3   137  HIS137     -0.1241
     96  CA         8.6130   21.6140   -8.9750 C.3   137  HIS137      0.1621
     97  C          7.1870   22.0200   -8.6000 C.2   137  HIS137      0.2264
     98  O          6.3340   22.2080   -9.4880 O.2   137  HIS137     -0.2867
     99  CB         8.5600   20.7330  -10.2080 C.3   137  HIS137      0.0745
    100  CG         9.8790   20.1450  -10.5590 C.ar  137  HIS137      0.0817
    101  ND1       10.8690   20.8860  -11.1600 N.ar  137  HIS137     -0.2268
    102  CD2       10.3950   18.9090  -10.3520 C.ar  137  HIS137      0.1154
    103  CE1       11.9300   20.1260  -11.3330 C.ar  137  HIS137      0.1986
    104  NE2       11.6730   18.9250  -10.8450 N.ar  137  HIS137     -0.2212
    105  N          7.3770   13.0380   -6.7460 N.3   146  HIS146     -0.1241
    106  CA         8.8050   12.6990   -6.7220 C.3   146  HIS146      0.1621
    107  C          9.5100   13.9790   -6.3010 C.2   146  HIS146      0.2264
    108  O          8.9840   15.1040   -6.5070 O.2   146  HIS146     -0.2867
    109  CB         9.3160   12.2350   -8.0890 C.3   146  HIS146      0.0745
    110  CG         9.4050   13.3320   -9.1040 C.ar  146  HIS146      0.0817
    111  ND1        8.3510   13.6710   -9.9250 N.ar  146  HIS146     -0.2268
    112  CD2       10.4170   14.1750   -9.4260 C.ar  146  HIS146      0.1154
    113  CE1        8.7090   14.6690  -10.7140 C.ar  146  HIS146      0.1986
    114  NE2        9.9590   14.9920  -10.4340 N.ar  146  HIS146     -0.2212
    115  N         13.5500   16.0060   -5.2530 N.3   148  HIS148     -0.1241
    116  CA        14.9850   16.1070   -5.0090 C.3   148  HIS148      0.1621
    117  C         15.1100   16.5360   -3.5700 C.2   148  HIS148      0.2264
    118  O         14.2920   17.2980   -3.0750 O.2   148  HIS148     -0.2867
    119  CB        15.6100   17.1660   -5.9310 C.3   148  HIS148      0.0745
    120  CG        15.1870   17.0190   -7.3570 C.ar  148  HIS148      0.0817
    121  ND1       15.5970   15.9680   -8.1480 N.ar  148  HIS148     -0.2268
    122  CD2       14.3610   17.7700   -8.1260 C.ar  148  HIS148      0.1154
    123  CE1       15.0370   16.0690   -9.3410 C.ar  148  HIS148      0.1986
    124  NE2       14.2860   17.1570   -9.3550 N.ar  148  HIS148     -0.2212
    125  N         18.0130   17.9240   -0.7790 N.3   150  PHE150     -0.1241
    126  CA        19.3450   18.3760   -0.4070 C.3   150  PHE150      0.1605
    127  C         19.5530   18.1240    1.0830 C.2   150  PHE150      0.2264
    128  O         18.7480   18.5700    1.9190 O.2   150  PHE150     -0.2867
    129  CB        19.4750   19.8550   -0.7290 C.3   150  PHE150      0.0534
    130  CG        19.2200   20.1690   -2.1780 C.ar  150  PHE150     -0.0203
    131  CD1       17.9080   20.3550   -2.6570 C.ar  150  PHE150     -0.0042
    132  CD2       20.2860   20.2660   -3.0690 C.ar  150  PHE150     -0.0042
    133  CE1       17.6780   20.6350   -4.0090 C.ar  150  PHE150     -0.0003
    134  CE2       20.0740   20.5480   -4.4400 C.ar  150  PHE150     -0.0003
    135  CZ        18.7600   20.7430   -4.9010 C.ar  150  PHE150     -0.0000
    136  N         24.0810   22.9730   -6.1200 N.3   163  MET163     -0.1245
    137  CA        23.3730   22.9910   -7.3980 C.3   163  MET163      0.1570
    138  C         23.6470   21.7470   -8.2330 C.2   163  MET163      0.2261
    139  O         22.9750   21.5020   -9.2180 O.2   163  MET163     -0.2867
    140  CB        23.7730   24.2180   -8.2340 C.3   163  MET163      0.0387
    141  CG        23.3240   25.5350   -7.6610 C.3   163  MET163      0.0595
    142  SD        21.5270   25.6640   -7.6890 S.3   163  MET163     -0.1393
    143  CE        21.3140   27.0210   -6.5380 C.3   163  MET163      0.0692
    144  N         21.6970   16.3610   -6.2340 N.3   166  TRP166     -0.1241
    145  CA        20.2960   16.4650   -5.7980 C.3   166  TRP166      0.1605
    146  C         19.6460   15.0930   -5.9040 C.2   166  TRP166      0.2264
    147  O         18.8810   14.8430   -6.8350 O.2   166  TRP166     -0.2867
    148  CB        19.5170   17.5070   -6.6320 C.3   166  TRP166      0.0550
    149  CG        20.1960   17.9590   -7.9210 C.ar  166  TRP166      0.0003
    150  CD1       21.0390   19.0500   -8.0660 C.ar  166  TRP166      0.0946
    151  CD2       20.0890   17.3630   -9.2200 C.ar  166  TRP166      0.0152
    152  NE1       21.4640   19.1500   -9.3780 N.ar  166  TRP166     -0.2442
    153  CE2       20.8990   18.1350  -10.1060 C.ar  166  TRP166      0.0810
    154  CE3       19.3970   16.2500   -9.7300 C.ar  166  TRP166      0.0012
    155  CZ2       21.0370   17.8220  -11.4670 C.ar  166  TRP166      0.0191
    156  CZ3       19.5360   15.9360  -11.0840 C.ar  166  TRP166      0.0001
    157  CH2       20.3560   16.7290  -11.9400 C.ar  166  TRP166      0.0015
@<TRIPOS>BOND
     1     4     3    2
     2     3     2    1
     3     1     2    1
     4     2     5    1
     5     5     6    1
     6     6     7    1
     7     7     8    1
     8     9     8    1
     9    31    29   ar
    10    31    32   ar
    11    29    27   ar
    12    14    15    1
    13    14    11    1
    14    10    11    1
    15    33    32    1
    16    32    30   ar
    17    17    15   ar
    18    17    19   ar
    19    15    16   ar
    20    11    12    1
    21    27    26    1
    22    27    28   ar
    23    19    20   ar
    24    22    12   am
    25    22    23    1
    26    16    18   ar
    27    26    23    1
    28    30    28   ar
    29    12    13    2
    30    20    18   ar
    31    20    21    1
    32    23    24    1
    33    49    48    2
    34    24    25    2
    35    45    44    1
    36    48    47    1
    37    43    44   ar
    38    43    41   ar
    39    58    59    1
    40    44    42   ar
    41    50    47    1
    42    50    51    1
    43   157   155   ar
    44   157   156   ar
    45    41    39   ar
    46    47    46    1
    47   155   153   ar
    48    53    51   ar
    49    53    55   ar
    50   103   101   ar
    51   103   104   ar
    52   101   100   ar
    53    64    63    1
    54    64    65    1
    55   156   154   ar
    56    42    40   ar
    57    51    52   ar
    58    63    62    1
    59    59    62    1
    60    59    60    1
    61    61    60    2
    62   104   102   ar
    63   113   114   ar
    64   113   111   ar
    65   100   102   ar
    66   100    99    1
    67    39    40   ar
    68    39    38    1
    69   114   112   ar
    70    55    56   ar
    71    60    67   am
    72    99    96    1
    73   153   152   ar
    74   153   151   ar
    75    66    65    1
    76   111   110   ar
    77    52    54   ar
    78   154   151   ar
    79    38    35    1
    80    98    97    2
    81   112   110   ar
    82    34    35    1
    83   152   150   ar
    84   124   123   ar
    85   124   122   ar
    86   123   121   ar
    87   151   149   ar
    88   139   138    2
    89    56    54   ar
    90    56    57    1
    91   110   109    1
    92    96    97    1
    93    96    95    1
    94    67    68    1
    95    35    36    1
    96   140   141    1
    97   140   137    1
    98   138   137    1
    99    68    69    1
   100   121   120   ar
   101   122   120   ar
   102   109   106    1
   103   150   149   ar
   104   149   148    1
   105   142   141    1
   106   142   143    1
   107    36    37    2
   108   137   136    1
   109   120   119    1
   110   147   146    2
   111   105   106    1
   112    69    70    2
   113    69    71   am
   114   106   107    1
   115   148   145    1
   116   108   107    2
   117   144   145    1
   118    94    93    1
   119    71    72    1
   120   119   116    1
   121   146   145    1
   122    92    91    2
   123   115   116    1
   124    91    90    1
   125   116   117    1
   126    77    75    1
   127   135   134   ar
   128   135   133   ar
   129    93    90    1
   130    88    86    1
   131    72    75    1
   132    72    73    1
   133   134   132   ar
   134    90    89    1
   135    75    76    1
   136    74    73    2
   137   133   131   ar
   138    73    78   am
   139    85    86    2
   140    85    84    1
   141    86    87    1
   142   117   118    2
   143   132   130   ar
   144    83    84    1
   145    83    82    1
   146    78    79    1
   147   131   130   ar
   148   130   129    1
   149    79    82    1
   150    79    80    1
   151   125   126    1
   152   129   126    1
   153    80    81    2
   154   126   127    1
   155   127   128    2
