@<TRIPOS>MOLECULE
tmp/4awgC00.pdb
 207 199 0 0 0
SMALL
GASTEIGER

@<TRIPOS>ATOM
      1  N          3.6490  -21.9710   58.0420 N.3    18  ALA18      -0.1245
      2  CA         3.7000  -22.5050   56.6660 C.3    18  ALA18       0.1562
      3  C          4.3010  -23.9240   56.5370 C.2    18  ALA18       0.2260
      4  O          3.6930  -24.8030   55.9070 O.2    18  ALA18      -0.2867
      5  CB         4.4580  -21.5530   55.7570 C.3    18  ALA18       0.0290
      6  N          1.9880  -26.5130   57.9880 N.3    21  ALA21      -0.1231
      7  CA         0.8110  -26.5780   57.1250 C.3    21  ALA21       0.1694
      8  C          1.1040  -27.3300   55.8260 C.2    21  ALA21       0.2591
      9  O          0.2360  -28.0320   55.3050 O.2    21  ALA21      -0.2718
     10  CB         0.3090  -25.1740   56.8110 C.3    21  ALA21       0.0304
     11  N          2.3200  -27.1750   55.2980 N.am   22  MET22      -0.1979
     12  CA         2.7280  -27.9160   54.1040 C.3    22  MET22       0.1605
     13  C          2.8870  -29.3860   54.4220 C.2    22  MET22       0.2287
     14  O          2.4760  -30.2350   53.6460 O.2    22  MET22      -0.2864
     15  CB         4.0710  -27.4230   53.5430 C.3    22  MET22       0.0413
     16  CG         4.0320  -26.2010   52.6560 C.3    22  MET22       0.0598
     17  SD         5.5790  -26.0080   51.7280 S.3    22  MET22      -0.1393
     18  CE         5.3020  -27.1570   50.3790 C.3    22  MET22       0.0692
     19  N          1.5300  -31.2130   56.7730 N.3    24  GLU24      -0.1231
     20  CA         0.2600  -31.8470   57.0920 C.3    24  GLU24       0.1699
     21  C         -0.6750  -31.9640   55.8860 C.2    24  GLU24       0.2592
     22  O         -1.5870  -32.7940   55.8760 O.2    24  GLU24      -0.2718
     23  CB        -0.3850  -31.1040   58.2690 C.3    24  GLU24       0.0402
     24  CG        -1.5560  -31.8150   58.9630 C.3    24  GLU24       0.1161
     25  CD        -2.8560  -31.0750   58.7620 C.2    24  GLU24       0.3649
     26  OE1       -2.8090  -30.0650   58.0330 O.co2  24  GLU24      -0.2457
     27  OE2       -3.8950  -31.4800   59.3280 O.co2  24  GLU24      -0.2457
     28  N         -0.4370  -31.1640   54.8550 N.am   25  TYR25      -0.1976
     29  CA        -1.1680  -31.3380   53.6040 C.3    25  TYR25       0.1639
     30  C         -0.5330  -32.4830   52.8160 C.2    25  TYR25       0.2290
     31  O         -1.2290  -33.2480   52.1560 O.2    25  TYR25      -0.2864
     32  CB        -1.1900  -30.0330   52.8050 C.3    25  TYR25       0.0560
     33  CG        -1.9340  -30.0830   51.4670 C.ar   25  TYR25      -0.0198
     34  CD1       -3.2460  -30.5670   51.3710 C.ar   25  TYR25      -0.0009
     35  CD2       -1.3270  -29.6060   50.2990 C.ar   25  TYR25      -0.0009
     36  CE1       -3.9130  -30.5940   50.1480 C.ar   25  TYR25       0.0417
     37  CE2       -1.9820  -29.6290   49.0800 C.ar   25  TYR25       0.0417
     38  CZ        -3.2730  -30.1230   49.0080 C.ar   25  TYR25       0.1957
     39  OH        -3.9170  -30.1280   47.7910 O.3    25  TYR25      -0.2866
     40  N          3.4310  -32.3740   51.5830 N.3    27  GLU27      -0.1245
     41  CA         4.3700  -31.7490   50.6600 C.3    27  GLU27       0.1567
     42  C          5.6250  -31.3510   51.4250 C.2    27  GLU27       0.2260
     43  O          5.5210  -30.7520   52.4880 O.2    27  GLU27      -0.2867
     44  CB         3.7380  -30.5030   50.0730 C.3    27  GLU27       0.0388
     45  CG         2.7150  -30.7650   48.9730 C.3    27  GLU27       0.1160
     46  CD         2.0270  -29.4940   48.5200 C.2    27  GLU27       0.3649
     47  OE1        1.4460  -28.8060   49.3940 O.co2  27  GLU27      -0.2457
     48  OE2        2.0690  -29.1870   47.3010 O.co2  27  GLU27      -0.2457
     49  N          3.4200  -20.2580   49.6980 N.3    39  ILE39      -0.1245
     50  CA         2.5820  -20.4810   50.8740 C.3    39  ILE39       0.1561
     51  C          2.8290  -19.4610   51.9960 C.2    39  ILE39       0.2260
     52  O          1.8910  -19.0690   52.6760 O.2    39  ILE39      -0.2867
     53  CB         2.7680  -21.9310   51.3760 C.3    39  ILE39       0.0252
     54  CG1        2.1380  -22.8900   50.3400 C.3    39  ILE39       0.0019
     55  CG2        2.1740  -22.0830   52.7660 C.3    39  ILE39       0.0019
     56  CD1        2.5050  -24.3540   50.4680 C.3    39  ILE39       0.0001
     57  N          1.1360  -16.3250   50.9470 N.3    42  HIS42      -0.1226
     58  CA        -0.3160  -16.4570   51.0060 C.3    42  HIS42       0.1752
     59  C         -0.8190  -16.2870   52.4330 C.2    42  HIS42       0.2595
     60  O         -1.8110  -15.5920   52.6630 O.2    42  HIS42      -0.2718
     61  CB        -0.7250  -17.7730   50.3820 C.3    42  HIS42       0.0759
     62  CG        -2.2070  -18.0590   50.4730 C.ar   42  HIS42       0.0818
     63  ND1       -2.7800  -18.5800   51.5780 N.ar   42  HIS42      -0.2268
     64  CD2       -3.2200  -17.9000   49.5480 C.ar   42  HIS42       0.1154
     65  CE1       -4.0880  -18.7230   51.3710 C.ar   42  HIS42       0.1986
     66  NE2       -4.3640  -18.2910   50.1360 N.ar   42  HIS42      -0.2212
     67  N         -0.0950  -16.8620   53.3970 N.am   43  LEU43      -0.1980
     68  CA        -0.4300  -16.7390   54.8280 C.3    43  LEU43       0.1596
     69  C         -0.2880  -15.2970   55.2640 C.2    43  LEU43       0.2287
     70  O         -1.1340  -14.7670   55.9580 O.2    43  LEU43      -0.2864
     71  CB         0.5430  -17.5600   55.6920 C.3    43  LEU43       0.0297
     72  CG         0.0430  -18.4400   56.8440 C.3    43  LEU43       0.0022
     73  CD1        1.2130  -18.9360   57.7250 C.3    43  LEU43       0.0001
     74  CD2       -1.0750  -17.7960   57.6560 C.3    43  LEU43       0.0001
     75  N         -6.9620  -20.0090   57.4870 N.3    81  GLU81      -0.1231
     76  CA        -5.7270  -20.5500   56.9130 C.3    81  GLU81       0.1699
     77  C         -4.6220  -20.5290   57.9590 C.2    81  GLU81       0.2593
     78  O         -4.6670  -19.7690   58.9180 O.2    81  GLU81      -0.2718
     79  CB        -5.3590  -19.7190   55.6790 C.3    81  GLU81       0.0402
     80  CG        -4.1480  -20.1360   54.8400 C.3    81  GLU81       0.1161
     81  CD        -4.3740  -21.4020   54.0470 C.2    81  GLU81       0.3649
     82  OE1       -4.2910  -22.4560   54.6730 O.co2  81  GLU81      -0.2457
     83  OE2       -4.6170  -21.3690   52.8140 O.co2  81  GLU81      -0.2457
     84  N         -3.6570  -21.4230   57.7980 N.am   82  GLY82      -0.1942
     85  CA        -2.5350  -21.5250   58.7250 C.3    82  GLY82       0.2014
     86  C         -2.7780  -22.4300   59.9080 C.2    82  GLY82       0.2639
     87  O         -1.8580  -22.7500   60.6140 O.2    82  GLY82      -0.2714
     88  N         -4.0230  -22.7980   60.1480 N.am   83  ARG83      -0.1963
     89  CA        -4.3480  -23.8320   61.0970 C.3    83  ARG83       0.1729
     90  C         -4.3650  -25.2080   60.4400 C.2    83  ARG83       0.2616
     91  O         -4.5380  -25.3310   59.2140 O.2    83  ARG83      -0.2715
     92  CB        -5.7460  -23.5930   61.6410 C.3    83  ARG83       0.0348
     93  CG        -5.9640  -22.2360   62.2190 C.3    83  ARG83       0.0492
     94  CD        -7.0740  -22.2880   63.2460 C.3    83  ARG83       0.2205
     95  NE        -7.5660  -20.9510   63.4760 N.pl3  83  ARG83      -0.0865
     96  CZ        -7.5790  -20.3120   64.6290 C.cat  83  ARG83       0.5346
     97  NH1       -7.1380  -20.8700   65.7340 N.pl3  83  ARG83       0.1354
     98  NH2       -8.0620  -19.0820   64.6740 N.pl3  83  ARG83       0.1354
     99  N         -4.2770  -26.2550   61.2610 N.am   84  ASP84      -0.1957
    100  CA        -4.3860  -27.6160   60.7400 C.3    84  ASP84       0.1840
    101  C         -5.8680  -27.9220   60.5350 C.2    84  ASP84       0.2621
    102  O         -6.7130  -27.1550   60.9440 O.2    84  ASP84      -0.2715
    103  CB        -3.6800  -28.6360   61.6640 C.3    84  ASP84       0.1450
    104  CG        -4.5090  -29.0110   62.8840 C.2    84  ASP84       0.3671
    105  OD1       -5.3190  -28.2180   63.3500 O.co2  84  ASP84      -0.2456
    106  OD2       -4.3540  -30.1090   63.4080 O.co2  84  ASP84      -0.2456
    107  N         -6.1830  -29.0520   59.9230 N.am   85  ARG85      -0.1977
    108  CA        -7.5570  -29.3430   59.5660 C.3    85  ARG85       0.1597
    109  C         -8.4730  -29.4120   60.7410 C.2    85  ARG85       0.2287
    110  O         -9.6060  -28.9080   60.7160 O.2    85  ARG85      -0.2864
    111  CB        -7.6370  -30.6250   58.7300 C.3    85  ARG85       0.0334
    112  CG        -7.5610  -30.3140   57.2390 C.3    85  ARG85       0.0492
    113  CD        -8.0580  -31.4440   56.3570 C.3    85  ARG85       0.2205
    114  NE        -6.9080  -32.1360   55.7700 N.pl3  85  ARG85      -0.0865
    115  CZ        -6.5950  -32.1670   54.4840 C.cat  85  ARG85       0.5346
    116  NH1       -7.3640  -31.5930   53.5690 N.pl3  85  ARG85       0.1354
    117  NH2       -5.5100  -32.8290   54.1210 N.pl3  85  ARG85       0.1354
    118  N         -9.0340  -25.9180   61.8640 N.3    88  ALA88      -0.1245
    119  CA        -9.7800  -25.1960   60.8570 C.3    88  ALA88       0.1562
    120  C        -11.2870  -25.4910   60.8990 C.2    88  ALA88       0.2260
    121  O        -12.1000  -24.5710   60.9880 O.2    88  ALA88      -0.2867
    122  CB        -9.2040  -25.4490   59.4580 C.3    88  ALA88       0.0290
    123  N        -15.3430  -27.0800   51.6770 N.3   106  PHE106     -0.1227
    124  CA       -13.8850  -27.0770   51.6080 C.3   106  PHE106      0.1736
    125  C        -13.4700  -26.0300   52.6330 C.2   106  PHE106      0.2595
    126  O        -14.3160  -25.2460   53.0520 O.2   106  PHE106     -0.2718
    127  CB       -13.4090  -26.6370   50.2230 C.3   106  PHE106      0.0547
    128  CG       -13.6040  -25.1770   49.9860 C.ar  106  PHE106     -0.0202
    129  CD1      -14.9110  -24.6400   49.8560 C.ar  106  PHE106     -0.0042
    130  CD2      -12.5270  -24.3110   49.9760 C.ar  106  PHE106     -0.0042
    131  CE1      -15.1120  -23.2650   49.6760 C.ar  106  PHE106     -0.0003
    132  CE2      -12.7200  -22.9430   49.7880 C.ar  106  PHE106     -0.0003
    133  CZ       -14.0080  -22.4190   49.6370 C.ar  106  PHE106     -0.0000
    134  N        -12.1930  -25.9840   53.0190 N.am  107  LEU107     -0.1966
    135  CA       -11.7230  -24.9560   53.9620 C.3   107  LEU107      0.1713
    136  C        -11.3820  -23.6620   53.2460 C.2   107  LEU107      0.2458
    137  O        -10.4700  -23.6420   52.4190 O.2   107  LEU107     -0.2730
    138  CB       -10.4750  -25.4270   54.7390 C.3   107  LEU107      0.0310
    139  CG       -10.6400  -26.6100   55.7000 C.3   107  LEU107      0.0022
    140  CD1       -9.2760  -27.0490   56.2090 C.3   107  LEU107      0.0001
    141  CD2      -11.6110  -26.2870   56.8400 C.3   107  LEU107      0.0001
    142  N        -12.1040  -22.5720   53.5590 N.am  108  PRO108     -0.2716
    143  CA       -11.7400  -21.2680   52.9890 C.3   108  PRO108      0.1536
    144  C        -10.5300  -20.6670   53.6690 C.2   108  PRO108      0.2598
    145  O         -9.8350  -21.3480   54.4200 O.2   108  PRO108     -0.2715
    146  CB       -12.9750  -20.3900   53.2570 C.3   108  PRO108      0.0310
    147  CG       -14.0690  -21.3310   53.5610 C.3   108  PRO108      0.0237
    148  CD       -13.4200  -22.5210   54.2120 C.3   108  PRO108      0.0939
    149  N        -10.2810  -19.3950   53.4050 N.am  109  ASP109     -0.1972
    150  CA        -9.1890  -18.7170   54.0720 C.3   109  ASP109      0.1709
    151  C         -9.5850  -17.8060   55.2430 C.2   109  ASP109      0.2293
    152  O         -8.8430  -17.7020   56.2240 O.2   109  ASP109     -0.2864
    153  CB        -8.3810  -17.9690   53.0210 C.3   109  ASP109      0.1436
    154  CG        -7.5710  -18.9090   52.1790 C.2   109  ASP109      0.3671
    155  OD1       -7.1540  -19.9320   52.7030 O.co2 109  ASP109     -0.2456
    156  OD2       -7.3650  -18.6670   50.9880 O.co2 109  ASP109     -0.2456
    157  N        -12.0790  -16.6310   50.1390 N.3   120  GLU120     -0.1231
    158  CA       -10.9720  -17.4570   49.6440 C.3   120  GLU120      0.1699
    159  C         -9.9740  -16.5220   49.0100 C.2   120  GLU120      0.2592
    160  O        -10.3200  -15.8090   48.0430 O.2   120  GLU120     -0.2718
    161  CB       -11.4600  -18.4270   48.5860 C.3   120  GLU120      0.0402
    162  CG       -10.3260  -19.0530   47.8070 C.3   120  GLU120      0.1161
    163  CD        -9.5420  -20.0580   48.6210 C.2   120  GLU120      0.3649
    164  OE1      -10.0710  -20.5200   49.6310 O.co2 120  GLU120     -0.2457
    165  OE2       -8.4150  -20.4360   48.2190 O.co2 120  GLU120     -0.2457
    166  N         -8.7550  -16.5290   49.5300 N.am  121  ILE121     -0.1966
    167  CA        -7.7310  -15.6410   49.0440 C.3   121  ILE121      0.1727
    168  C         -6.8760  -16.3130   47.9610 C.2   121  ILE121      0.2616
    169  O         -6.4680  -17.4670   48.0760 O.2   121  ILE121     -0.2715
    170  CB        -6.7680  -15.1350   50.1830 C.3   121  ILE121      0.0290
    171  CG1       -7.5010  -14.2700   51.2070 C.3   121  ILE121      0.0022
    172  CG2       -5.6060  -14.3130   49.5970 C.3   121  ILE121      0.0023
    173  CD1       -8.2700  -13.1240   50.6080 C.3   121  ILE121      0.0001
    174  N         -6.5740  -15.5380   46.9280 N.am  122  GLY122     -0.1955
    175  CA        -5.6560  -15.9460   45.8810 C.3   122  GLY122      0.1869
    176  C         -4.5180  -14.9600   45.7510 C.2   122  GLY122      0.2309
    177  O         -4.7250  -13.7480   45.8320 O.2   122  GLY122     -0.2863
    178  N         -6.4970  -16.9170   37.2720 N.3   131  TYR131     -0.1241
    179  CA        -6.4110  -17.4610   38.6230 C.3   131  TYR131      0.1605
    180  C         -7.7980  -17.4570   39.2750 C.2   131  TYR131      0.2264
    181  O         -8.2140  -18.4430   39.8570 O.2   131  TYR131     -0.2867
    182  CB        -5.3750  -16.6940   39.4790 C.3   131  TYR131      0.0534
    183  CG        -4.8590  -17.5250   40.6170 C.ar  131  TYR131     -0.0201
    184  CD1       -4.0840  -18.6350   40.3690 C.ar  131  TYR131     -0.0009
    185  CD2       -5.1550  -17.2280   41.9280 C.ar  131  TYR131     -0.0009
    186  CE1       -3.6340  -19.4530   41.3980 C.ar  131  TYR131      0.0417
    187  CE2       -4.7000  -18.0350   42.9710 C.ar  131  TYR131      0.0417
    188  CZ        -3.9460  -19.1500   42.6900 C.ar  131  TYR131      0.1957
    189  OH        -3.4690  -19.9680   43.6730 O.3   131  TYR131     -0.2866
    190  N         -9.7110  -20.7670   40.7220 N.3   135  LYS135     -0.1245
    191  CA       -10.2610  -20.9110   42.0460 C.3   135  LYS135      0.1561
    192  C        -11.7610  -21.0970   41.9310 C.2   135  LYS135      0.2260
    193  O        -12.3010  -21.9480   42.6010 O.2   135  LYS135     -0.2867
    194  CB        -9.9380  -19.7060   42.9430 C.3   135  LYS135      0.0271
    195  CG        -8.5060  -19.6710   43.4340 C.3   135  LYS135      0.0035
    196  CD        -8.2170  -20.7280   44.5130 C.3   135  LYS135      0.0206
    197  CE        -6.7490  -20.7630   44.9460 C.3   135  LYS135      0.1093
    198  NZ        -5.8730  -21.3360   43.8860 N.3   135  LYS135     -0.1314
    199  N        -12.3400  -24.7110   40.9980 N.3   138  LYS138     -0.1245
    200  CA       -12.0200  -25.6740   42.0360 C.3   138  LYS138      0.1561
    201  C        -13.0260  -25.5970   43.1870 C.2   138  LYS138      0.2260
    202  O        -13.4290  -26.6170   43.7380 O.2   138  LYS138     -0.2867
    203  CB       -10.5870  -25.4950   42.5590 C.3   138  LYS138      0.0271
    204  CG       -10.1970  -26.5520   43.5900 C.3   138  LYS138      0.0035
    205  CD        -8.7540  -27.0260   43.4430 C.3   138  LYS138      0.0206
    206  CE        -8.4450  -28.1840   44.4070 C.3   138  LYS138      0.1093
    207  NZ        -6.9800  -28.4240   44.6510 N.3   138  LYS138     -0.1314
@<TRIPOS>BOND
     1   178   179    1
     2   179   180    1
     3   179   182    1
     4   180   181    2
     5   182   183    1
     6   184   183   ar
     7   184   186   ar
     8   183   185   ar
     9   190   191    1
    10   199   200    1
    11   186   188   ar
    12   185   187   ar
    13   192   191    1
    14   192   193    2
    15   200   203    1
    16   200   201    1
    17   191   194    1
    18   203   204    1
    19   188   187   ar
    20   188   189    1
    21   194   195    1
    22   201   202    2
    23   195   196    1
    24   205   204    1
    25   205   206    1
    26   198   197    1
    27   206   207    1
    28   196   197    1
    29   176   177    2
    30   176   175    1
    31   175   174    1
    32   174   168   am
    33    48    46   ar
    34    39    38    1
    35   162   161    1
    36   162   163    1
    37   168   169    2
    38   168   167    1
    39   160   159    2
    40   165   163   ar
    41    46    45    1
    42    46    47   ar
    43   161   158    1
    44   163   164   ar
    45    45    44    1
    46    38    37   ar
    47    38    36   ar
    48   159   166   am
    49   159   158    1
    50   167   166    1
    51   167   170    1
    52    37    35   ar
    53    64    66   ar
    54    64    62   ar
    55   172   170    1
    56   133   131   ar
    57   133   132   ar
    58   158   157    1
    59   131   129   ar
    60    49    50    1
    61   132   130   ar
    62   129   128   ar
    63   130   128   ar
    64   128   127    1
    65    44    41    1
    66    66    65   ar
    67    36    34   ar
    68   170   171    1
    69   127   124    1
    70    35    33   ar
    71    54    56    1
    72    54    53    1
    73    18    17    1
    74    61    62    1
    75    61    58    1
    76    62    63   ar
    77   173   171    1
    78    41    42    1
    79    41    40    1
    80    50    53    1
    81    50    51    1
    82    57    58    1
    83   156   154   ar
    84    58    59    1
    85    34    33   ar
    86    65    63   ar
    87    53    55    1
    88    42    43    2
    89    33    32    1
    90   124   123    1
    91   124   125    1
    92    17    16    1
    93    51    52    2
    94    31    30    2
    95   154   155   ar
    96   154   153    1
    97   137   136    2
    98    59    60    2
    99    59    67   am
   100   125   134   am
   101   125   126    2
   102    16    15    1
   103    32    29    1
   104    83    81   ar
   105    30    29    1
   106   143   146    1
   107   143   142    1
   108   143   144    1
   109   134   135    1
   110   153   150    1
   111   136   142   am
   112   136   135    1
   113   146   147    1
   114    67    68    1
   115   149   144   am
   116   149   150    1
   117    15    12    1
   118   142   148    1
   119   147   148    1
   120   116   115    1
   121    29    28    1
   122    14    13    2
   123   144   145    2
   124   135   138    1
   125    81    82   ar
   126    81    80    1
   127   150   151    1
   128    12    13    1
   129    12    11    1
   130   117   115    1
   131   115   114    2
   132   138   139    1
   133    68    69    1
   134    68    71    1
   135    80    79    1
   136    28    21   am
   137   151   152    2
   138    69    70    2
   139    11     8   am
   140     9     8    2
   141    79    76    1
   142    71    72    1
   143   139   140    1
   144   139   141    1
   145     5     2    1
   146   114   113    1
   147     8     7    1
   148    22    21    2
   149    21    20    1
   150     4     3    2
   151   113   112    1
   152     3     2    1
   153     2     1    1
   154    19    20    1
   155    10     7    1
   156    72    74    1
   157    72    73    1
   158    76    75    1
   159    76    77    1
   160    20    23    1
   161     7     6    1
   162   112   111    1
   163    84    77   am
   164    84    85    1
   165    77    78    2
   166    26    25   ar
   167    23    24    1
   168    85    86    1
   169   111   108    1
   170    25    24    1
   171    25    27   ar
   172    91    90    2
   173   122   119    1
   174   108   107    1
   175   108   109    1
   176    86    88   am
   177    86    87    2
   178   107   101   am
   179    88    89    1
   180    90    89    1
   181    90    99   am
   182   101   100    1
   183   101   102    2
   184   110   109    2
   185   100    99    1
   186   100   103    1
   187   119   120    1
   188   119   118    1
   189   120   121    2
   190    89    92    1
   191    92    93    1
   192   103   104    1
   193    93    94    1
   194   104   105   ar
   195   104   106   ar
   196    94    95    1
   197    95    96    2
   198    96    98    1
   199    96    97    1
