@<TRIPOS>MOLECULE
tmp/4awgD00.pdb
 171 159 0 0 0
SMALL
GASTEIGER

@<TRIPOS>ATOM
      1  N        -25.2190  -36.4990   60.3870 N.3    21  ALA21      -0.1231
      2  CA       -24.4430  -36.1010   59.1880 C.3    21  ALA21       0.1694
      3  C        -25.1610  -34.9880   58.4660 C.2    21  ALA21       0.2591
      4  O        -24.5420  -34.0010   58.0850 O.2    21  ALA21      -0.2718
      5  CB       -24.2290  -37.2680   58.2360 C.3    21  ALA21       0.0304
      6  N        -26.4630  -35.1280   58.2760 N.am   22  MET22      -0.1979
      7  CA       -27.1720  -34.1630   57.4640 C.3    22  MET22       0.1605
      8  C        -27.1780  -32.7810   58.1330 C.2    22  MET22       0.2287
      9  O        -26.9400  -31.7210   57.4870 O.2    22  MET22      -0.2864
     10  CB       -28.5880  -34.6540   57.1550 C.3    22  MET22       0.0413
     11  CG       -28.5850  -35.8530   56.2030 C.3    22  MET22       0.0598
     12  SD       -30.2000  -36.1900   55.5200 S.3    22  MET22      -0.1393
     13  CE       -30.3320  -34.9050   54.2800 C.3    22  MET22       0.0692
     14  N        -24.8180  -31.7720   59.9470 N.3    24  GLU24      -0.1231
     15  CA       -23.4480  -31.2390   59.9030 C.3    24  GLU24       0.1699
     16  C        -23.1410  -30.6130   58.5510 C.2    24  GLU24       0.2592
     17  O        -22.4730  -29.5810   58.4980 O.2    24  GLU24      -0.2718
     18  CB       -22.3780  -32.2890   60.2680 C.3    24  GLU24       0.0402
     19  CG       -20.9760  -31.7030   60.3770 C.3    24  GLU24       0.1161
     20  CD       -19.8810  -32.7210   60.6850 C.2    24  GLU24       0.3649
     21  OE1      -20.1900  -33.9270   60.8110 O.co2  24  GLU24      -0.2457
     22  OE2      -18.6910  -32.3150   60.7990 O.co2  24  GLU24      -0.2457
     23  N        -23.6080  -31.2500   57.4770 N.am   25  TYR25      -0.1976
     24  CA       -23.4720  -30.7420   56.1090 C.3    25  TYR25       0.1639
     25  C        -24.3760  -29.5180   55.9140 C.2    25  TYR25       0.2290
     26  O        -24.0330  -28.5910   55.2110 O.2    25  TYR25      -0.2864
     27  CB       -23.8640  -31.8550   55.1310 C.3    25  TYR25       0.0560
     28  CG       -23.2030  -31.8580   53.7710 C.ar   25  TYR25      -0.0198
     29  CD1      -21.8360  -32.0670   53.6380 C.ar   25  TYR25      -0.0009
     30  CD2      -23.9650  -31.7060   52.6020 C.ar   25  TYR25      -0.0009
     31  CE1      -21.2260  -32.0990   52.3870 C.ar   25  TYR25       0.0417
     32  CE2      -23.3690  -31.7370   51.3380 C.ar   25  TYR25       0.0417
     33  CZ       -21.9980  -31.9390   51.2360 C.ar   25  TYR25       0.1957
     34  OH       -21.4090  -31.9590   49.9910 O.3    25  TYR25      -0.2866
     35  N        -28.1360  -29.8300   55.9090 N.3    27  GLU27      -0.1245
     36  CA       -29.2530  -30.2980   55.1330 C.3    27  GLU27       0.1567
     37  C        -30.2170  -30.9940   56.0570 C.2    27  GLU27       0.2260
     38  O        -29.8450  -31.4700   57.1280 O.2    27  GLU27      -0.2867
     39  CB       -28.7720  -31.1900   53.9870 C.3    27  GLU27       0.0388
     40  CG       -28.1960  -30.3650   52.8370 C.3    27  GLU27       0.1160
     41  CD       -27.8620  -31.1790   51.5880 C.2    27  GLU27       0.3649
     42  OE1      -27.8460  -32.4340   51.6620 O.co2  27  GLU27      -0.2457
     43  OE2      -27.5900  -30.5550   50.5230 O.co2  27  GLU27      -0.2457
     44  N        -32.4930  -38.4410   49.7560 N.3    35  LYS35      -0.1245
     45  CA       -31.1080  -38.2910   50.1490 C.3    35  LYS35       0.1561
     46  C        -30.8600  -38.9580   51.5270 C.2    35  LYS35       0.2260
     47  O        -29.8940  -39.6840   51.7180 O.2    35  LYS35      -0.2867
     48  CB       -30.6940  -36.8140   50.1860 C.3    35  LYS35       0.0271
     49  CG       -29.1770  -36.6670   50.1850 C.3    35  LYS35       0.0035
     50  CD       -28.7040  -35.2410   50.3680 C.3    35  LYS35       0.0206
     51  CE       -28.5440  -34.5050   49.0400 C.3    35  LYS35       0.1093
     52  NZ       -28.4260  -33.0140   49.2110 N.3    35  LYS35      -0.1314
     53  N        -28.0450  -41.7550   52.4160 N.3    39  ILE39      -0.1245
     54  CA       -26.9750  -41.6890   53.4390 C.3    39  ILE39       0.1561
     55  C        -27.0830  -42.9740   54.3130 C.2    39  ILE39       0.2260
     56  O        -26.0700  -43.6640   54.5820 O.2    39  ILE39      -0.2867
     57  CB       -27.0720  -40.4720   54.3940 C.3    39  ILE39       0.0252
     58  CG1      -27.4250  -39.1430   53.6810 C.3    39  ILE39       0.0019
     59  CG2      -25.7670  -40.2670   55.1360 C.3    39  ILE39       0.0019
     60  CD1      -26.4450  -38.6260   52.6670 C.3    39  ILE39       0.0001
     61  N        -25.9610  -45.9870   52.3820 N.3    42  HIS42      -0.1241
     62  CA       -24.5190  -45.9000   52.2140 C.3    42  HIS42       0.1621
     63  C        -23.7790  -46.3110   53.4870 C.2    42  HIS42       0.2264
     64  O        -22.8030  -47.1040   53.4680 O.2    42  HIS42      -0.2867
     65  CB       -24.1520  -44.4870   51.7390 C.3    42  HIS42       0.0745
     66  CG       -22.6840  -44.2710   51.5590 C.ar   42  HIS42       0.0817
     67  ND1      -21.9210  -43.7500   52.5220 N.ar   42  HIS42      -0.2268
     68  CD2      -21.8300  -44.5600   50.4890 C.ar   42  HIS42       0.1154
     69  CE1      -20.6440  -43.6800   52.0900 C.ar   42  HIS42       0.1986
     70  NE2      -20.5910  -44.1830   50.8540 N.ar   42  HIS42      -0.2212
     71  N        -16.3660  -43.1240   57.4250 N.3    61  GLU61      -0.1245
     72  CA       -17.6980  -42.5960   57.2050 C.3    61  GLU61       0.1567
     73  C        -18.5380  -42.7000   58.4730 C.2    61  GLU61       0.2260
     74  O        -18.3670  -43.6260   59.2970 O.2    61  GLU61      -0.2867
     75  CB       -18.3950  -43.3420   56.0910 C.3    61  GLU61       0.0388
     76  CG       -19.8240  -42.8800   55.7910 C.3    61  GLU61       0.1160
     77  CD       -19.9120  -41.4280   55.3490 C.2    61  GLU61       0.3649
     78  OE1      -19.5550  -41.1390   54.1850 O.co2  61  GLU61      -0.2457
     79  OE2      -20.3560  -40.5780   56.1600 O.co2  61  GLU61      -0.2457
     80  N        -18.4640  -40.6710   61.0490 N.3    63  ARG63      -0.1245
     81  CA       -17.9030  -39.7340   61.9970 C.3    63  ARG63       0.1563
     82  C        -18.1690  -38.3240   61.4840 C.2    63  ARG63       0.2260
     83  O        -18.5240  -38.1580   60.3070 O.2    63  ARG63      -0.2867
     84  CB       -16.4030  -39.9510   62.1590 C.3    63  ARG63       0.0307
     85  CG       -16.0080  -41.3870   62.4180 C.3    63  ARG63       0.0489
     86  CD       -14.5160  -41.4920   62.5340 C.3    63  ARG63       0.2205
     87  NE       -14.0840  -42.8430   62.8780 N.pl3  63  ARG63      -0.0865
     88  CZ       -13.8350  -43.2830   64.1060 C.cat  63  ARG63       0.5346
     89  NH1      -13.9790  -42.5090   65.1540 N.pl3  63  ARG63       0.1354
     90  NH2      -13.4250  -44.5030   64.2840 N.pl3  63  ARG63       0.1354
     91  N        -16.5950  -34.3090   60.8040 N.3    65  ARG65      -0.1245
     92  CA       -15.3480  -33.9170   60.1130 C.3    65  ARG65       0.1563
     93  C        -14.1490  -33.9400   61.0400 C.2    65  ARG65       0.2260
     94  O        -13.1210  -34.4360   60.6120 O.2    65  ARG65      -0.2867
     95  CB       -15.4340  -32.5580   59.4100 C.3    65  ARG65       0.0307
     96  CG       -15.9650  -32.6410   58.0010 C.3    65  ARG65       0.0489
     97  CD       -15.7080  -31.3670   57.2330 C.3    65  ARG65       0.2205
     98  NE       -16.5120  -31.3080   56.0100 N.pl3  65  ARG65      -0.0865
     99  CZ       -17.6840  -30.6770   55.9040 C.cat  65  ARG65       0.5346
    100  NH1      -18.2240  -30.0320   56.9450 N.pl3  65  ARG65       0.1354
    101  NH2      -18.3450  -30.7000   54.7470 N.pl3  65  ARG65       0.1354
    102  N        -13.1370  -37.5500   61.7500 N.3    68  ALA68      -0.1245
    103  CA       -12.7730  -38.1700   60.5170 C.3    68  ALA68       0.1562
    104  C        -11.3860  -37.7250   60.1280 C.2    68  ALA68       0.2260
    105  O        -10.5710  -38.5340   59.7210 O.2    68  ALA68      -0.2867
    106  CB       -13.7890  -37.8210   59.4330 C.3    68  ALA68       0.0290
    107  N        -12.2390  -36.7920   52.5180 N.3    87  LEU87      -0.1245
    108  CA       -12.4720  -37.9350   53.4300 C.3    87  LEU87       0.1561
    109  C        -13.0450  -39.1740   52.7290 C.2    87  LEU87       0.2260
    110  O        -14.1660  -39.1280   52.2860 O.2    87  LEU87      -0.2867
    111  CB       -13.4000  -37.5430   54.5580 C.3    87  LEU87       0.0270
    112  CG       -12.8380  -36.4770   55.4900 C.3    87  LEU87       0.0019
    113  CD1      -13.9940  -35.9350   56.3180 C.3    87  LEU87       0.0001
    114  CD2      -11.7080  -37.0210   56.3690 C.3    87  LEU87       0.0001
    115  N        -14.2180  -43.4540   52.9240 N.3    89  ASP89      -0.1239
    116  CA       -15.1440  -44.1420   53.8100 C.3    89  ASP89       0.1674
    117  C        -14.4760  -45.1030   54.7820 C.2    89  ASP89       0.2266
    118  O        -14.8650  -45.1170   55.9410 O.2    89  ASP89      -0.2867
    119  CB       -16.1610  -44.8380   52.9610 C.3    89  ASP89       0.1410
    120  CG       -16.9270  -43.8530   52.0930 C.2    89  ASP89       0.3668
    121  OD1      -17.4060  -42.8490   52.6800 O.co2  89  ASP89      -0.2456
    122  OD2      -17.0430  -44.0890   50.8560 O.co2  89  ASP89      -0.2456
    123  N        -12.9120  -45.7180   48.9080 N.3   100  GLU100     -0.1231
    124  CA       -14.1560  -44.9770   48.7020 C.3   100  GLU100      0.1699
    125  C        -15.2100  -45.9390   48.1870 C.2   100  GLU100      0.2592
    126  O        -15.0270  -46.5460   47.1230 O.2   100  GLU100     -0.2718
    127  CB       -13.9390  -43.8050   47.7440 C.3   100  GLU100      0.0402
    128  CG       -15.1970  -43.0380   47.3680 C.3   100  GLU100      0.1161
    129  CD       -15.9530  -42.4590   48.5310 C.2   100  GLU100      0.3649
    130  OE1      -15.3270  -42.2270   49.5720 O.co2 100  GLU100     -0.2457
    131  OE2      -17.1690  -42.1910   48.4110 O.co2 100  GLU100     -0.2457
    132  N        -16.2940  -46.0640   48.9590 N.am  101  ILE101     -0.1966
    133  CA       -17.4580  -46.8870   48.6640 C.3   101  ILE101      0.1727
    134  C        -18.4930  -46.0640   47.9530 C.2   101  ILE101      0.2617
    135  O        -18.7180  -44.9290   48.3280 O.2   101  ILE101     -0.2715
    136  CB       -18.1370  -47.3210   49.9670 C.3   101  ILE101      0.0290
    137  CG1      -17.2120  -48.1990   50.8140 C.3   101  ILE101      0.0022
    138  CG2      -19.4300  -48.0780   49.6930 C.3   101  ILE101      0.0023
    139  CD1      -17.3660  -49.6820   50.5150 C.3   101  ILE101      0.0001
    140  N        -19.1490  -46.6310   46.9450 N.am  102  GLY102     -0.1940
    141  CA       -20.2930  -45.9750   46.3050 C.3   102  GLY102      0.2014
    142  C        -21.5040  -46.8900   46.1620 C.2   102  GLY102      0.2638
    143  O        -21.3460  -48.0790   45.9300 O.2   102  GLY102     -0.2714
    144  N        -22.7060  -46.3180   46.3140 N.am  103  VAL103     -0.1977
    145  CA       -23.9740  -47.0080   46.1620 C.3   103  VAL103      0.1596
    146  C        -24.8650  -46.2370   45.1930 C.2   103  VAL103      0.2287
    147  O        -25.2540  -45.1260   45.4670 O.2   103  VAL103     -0.2864
    148  CB       -24.6840  -47.1140   47.5120 C.3   103  VAL103      0.0276
    149  CG1      -25.9350  -47.9990   47.4020 C.3   103  VAL103      0.0022
    150  CG2      -23.7100  -47.6140   48.5640 C.3   103  VAL103      0.0022
    151  N        -21.1880  -44.3130   37.4350 N.3   111  TYR111     -0.1241
    152  CA       -21.0550  -43.8880   38.8140 C.3   111  TYR111      0.1605
    153  C        -19.6470  -44.1460   39.2550 C.2   111  TYR111      0.2264
    154  O        -19.0030  -43.2470   39.7280 O.2   111  TYR111     -0.2867
    155  CB       -22.0700  -44.5850   39.7520 C.3   111  TYR111      0.0534
    156  CG       -22.1900  -43.9120   41.1050 C.ar  111  TYR111     -0.0201
    157  CD1      -23.0260  -42.8190   41.2890 C.ar  111  TYR111     -0.0009
    158  CD2      -21.4660  -44.3690   42.1880 C.ar  111  TYR111     -0.0009
    159  CE1      -23.1330  -42.1900   42.5300 C.ar  111  TYR111      0.0417
    160  CE2      -21.5590  -43.7520   43.4340 C.ar  111  TYR111      0.0417
    161  CZ       -22.3840  -42.6610   43.5990 C.ar  111  TYR111      0.1957
    162  OH       -22.4590  -42.0600   44.8230 O.3   111  TYR111     -0.2866
    163  N        -17.2150  -41.0560   40.4150 N.3   115  LYS115     -0.1245
    164  CA       -16.4540  -41.0610   41.6410 C.3   115  LYS115      0.1561
    165  C        -14.9670  -40.8780   41.3920 C.2   115  LYS115      0.2260
    166  O        -14.3430  -40.0380   42.0170 O.2   115  LYS115     -0.2867
    167  CB       -16.7370  -42.3340   42.4310 C.3   115  LYS115      0.0271
    168  CG       -17.9830  -42.2150   43.3020 C.3   115  LYS115      0.0035
    169  CD       -17.7050  -41.4750   44.6220 C.3   115  LYS115      0.0206
    170  CE       -18.8930  -41.5160   45.5850 C.3   115  LYS115      0.1093
    171  NZ       -19.9860  -40.5610   45.2220 N.3   115  LYS115     -0.1314
@<TRIPOS>BOND
     1   151   152    1
     2   152   153    1
     3   152   155    1
     4   153   154    2
     5   155   156    1
     6   163   164    1
     7   156   157   ar
     8   156   158   ar
     9   157   159   ar
    10   165   164    1
    11   165   166    2
    12   164   167    1
    13   158   160   ar
    14   167   168    1
    15   159   161   ar
    16   168   169    1
    17   160   161   ar
    18   161   162    1
    19   169   170    1
    20   146   147    2
    21   146   145    1
    22   171   170    1
    23   143   142    2
    24   142   141    1
    25   142   144   am
    26   145   144    1
    27   145   148    1
    28   141   140    1
    29   140   134   am
    30   126   125    2
    31   128   127    1
    32   128   129    1
    33   149   148    1
    34   148   150    1
    35   127   124    1
    36   134   135    2
    37   134   133    1
    38   125   124    1
    39   125   132   am
    40   131   129   ar
    41   129   130   ar
    42   133   132    1
    43   133   136    1
    44   124   123    1
    45    51    52    1
    46    51    50    1
    47   138   136    1
    48    44    45    1
    49   136   137    1
    50    34    33    1
    51    45    48    1
    52    45    46    1
    53    49    48    1
    54    49    50    1
    55    68    70   ar
    56    68    66   ar
    57   139   137    1
    58    43    41   ar
    59    70    69   ar
    60   122   120   ar
    61    33    32   ar
    62    33    31   ar
    63    32    30   ar
    64    46    47    2
    65    66    65    1
    66    66    67   ar
    67    41    42   ar
    68    41    40    1
    69    65    62    1
    70    69    67   ar
    71   120   121   ar
    72   120   119    1
    73    62    61    1
    74    62    63    1
    75   110   109    2
    76    31    29   ar
    77    53    54    1
    78   107   108    1
    79    30    28   ar
    80    60    58    1
    81   109   108    1
    82    40    39    1
    83   115   116    1
    84   119   116    1
    85   108   111    1
    86    54    55    1
    87    54    57    1
    88    64    63    2
    89    29    28   ar
    90    58    57    1
    91    28    27    1
    92   116   117    1
    93    39    36    1
    94    78    77   ar
    95    13    12    1
    96    55    56    2
    97    57    59    1
    98   111   112    1
    99   101    99    1
   100   117   118    2
   101    27    24    1
   102    36    35    1
   103    36    37    1
   104    26    25    2
   105    77    76    1
   106    77    79   ar
   107   112   113    1
   108   112   114    1
   109    12    11    1
   110    76    75    1
   111    99    98    2
   112    99   100    1
   113    25    24    1
   114    98    97    1
   115    37    38    2
   116    75    72    1
   117    24    23    1
   118    11    10    1
   119    10     7    1
   120    72    71    1
   121    72    73    1
   122    97    96    1
   123     7     8    1
   124     7     6    1
   125    23    16   am
   126     9     8    2
   127    96    95    1
   128     4     3    2
   129     5     2    1
   130     6     3   am
   131     3     2    1
   132    73    74    2
   133    17    16    2
   134    16    15    1
   135     2     1    1
   136    95    92    1
   137   106   103    1
   138   105   104    2
   139    15    14    1
   140    15    18    1
   141    92    91    1
   142    92    93    1
   143   104   103    1
   144    18    19    1
   145    83    82    2
   146    19    20    1
   147   103   102    1
   148    94    93    2
   149    20    22   ar
   150    20    21   ar
   151    80    81    1
   152    82    81    1
   153    81    84    1
   154    84    85    1
   155    85    86    1
   156    86    87    1
   157    87    88    2
   158    88    90    1
   159    88    89    1
