@<TRIPOS>MOLECULE
tmp/4awhB00.pdb
 147 136 0 0 0
SMALL
GASTEIGER

@<TRIPOS>ATOM
      1  N         22.2430   29.6720    6.7170 N.3    26  TYR26      -0.1241
      2  CA        22.2370   30.2710    8.0400 C.3    26  TYR26       0.1605
      3  C         23.2130   31.4300    8.2170 C.2    26  TYR26       0.2264
      4  O         23.1480   32.1170    9.2130 O.2    26  TYR26      -0.2867
      5  CB        22.5210   29.2100    9.1010 C.3    26  TYR26       0.0534
      6  CG        21.5640   28.0390    9.1040 C.ar   26  TYR26      -0.0201
      7  CD1       20.2220   28.2040    8.7580 C.ar   26  TYR26      -0.0009
      8  CD2       21.9960   26.7610    9.4640 C.ar   26  TYR26      -0.0009
      9  CE1       19.3410   27.1340    8.7660 C.ar   26  TYR26       0.0417
     10  CE2       21.1140   25.6770    9.4790 C.ar   26  TYR26       0.0417
     11  CZ        19.7840   25.8770    9.1300 C.ar   26  TYR26       0.1957
     12  OH        18.8820   24.8330    9.1280 O.3    26  TYR26      -0.2866
     13  N         26.4880   30.9490    8.5930 N.3    28  GLU28      -0.1245
     14  CA        27.6010   30.4330    9.4130 C.3    28  GLU28       0.1567
     15  C         28.6660   29.8470    8.4740 C.2    28  GLU28       0.2260
     16  O         28.3230   29.2370    7.4570 O.2    28  GLU28      -0.2867
     17  CB        27.0780   29.3450   10.3590 C.3    28  GLU28       0.0388
     18  CG        25.9850   29.7940   11.3420 C.3    28  GLU28       0.1160
     19  CD        24.9800   28.6930   11.7060 C.2    28  GLU28       0.3649
     20  OE1       25.3300   27.4850   11.6260 O.co2  28  GLU28      -0.2457
     21  OE2       23.8170   29.0270   12.0700 O.co2  28  GLU28      -0.2457
     22  N         30.5870   22.6840   14.6210 N.3    36  LYS36      -0.1245
     23  CA        29.1720   22.7520   14.1880 C.3    36  LYS36       0.1561
     24  C         29.0220   22.0470   12.8200 C.2    36  LYS36       0.2260
     25  O         28.1570   21.2030   12.6220 O.2    36  LYS36      -0.2867
     26  CB        28.7480   24.2270   14.1290 C.3    36  LYS36       0.0271
     27  CG        27.3630   24.5060   13.5680 C.3    36  LYS36       0.0035
     28  CD        26.2480   24.0720   14.5330 C.3    36  LYS36       0.0206
     29  CE        25.6460   25.2320   15.3400 C.3    36  LYS36       0.1093
     30  NZ        25.3480   26.4520   14.5290 N.3    36  LYS36      -0.1314
     31  N         28.9070   18.5460   13.3600 N.3    39  ALA39      -0.1231
     32  CA        27.6520   18.1390   14.0010 C.3    39  ALA39       0.1694
     33  C         26.5060   18.1910   12.9760 C.2    39  ALA39       0.2591
     34  O         25.6120   17.3730   12.9970 O.2    39  ALA39      -0.2718
     35  CB        27.3510   19.0260   15.2000 C.3    39  ALA39       0.0304
     36  N         26.5380   19.1680   12.0900 N.am   40  ILE40      -0.1980
     37  CA        25.5270   19.2540   11.0220 C.3    40  ILE40       0.1595
     38  C         25.6440   18.0650   10.1220 C.2    40  ILE40       0.2287
     39  O         24.6420   17.4210    9.8340 O.2    40  ILE40      -0.2864
     40  CB        25.6190   20.5750   10.2600 C.3    40  ILE40       0.0276
     41  CG1       25.1110   21.6610   11.1910 C.3    40  ILE40       0.0022
     42  CG2       24.7970   20.5320    8.9640 C.3    40  ILE40       0.0022
     43  CD1       25.4150   23.0790   10.7920 C.3    40  ILE40       0.0001
     44  N         24.3090   14.9450   12.0910 N.3    43  HIS43      -0.1241
     45  CA        22.8590   15.0220   12.2500 C.3    43  HIS43       0.1621
     46  C         22.2220   14.7010   10.9340 C.2    43  HIS43       0.2264
     47  O         21.2850   13.9020   10.9050 O.2    43  HIS43      -0.2867
     48  CB        22.4580   16.4140   12.7560 C.3    43  HIS43       0.0745
     49  CG        20.9620   16.6800   12.7350 C.ar   43  HIS43       0.0817
     50  ND1       20.3420   17.3020   11.7120 N.ar   43  HIS43      -0.2268
     51  CD2       19.9880   16.4380   13.6940 C.ar   43  HIS43       0.1154
     52  CE1       19.0200   17.4070   12.0000 C.ar   43  HIS43       0.1986
     53  NE2       18.8140   16.8630   13.2000 N.ar   43  HIS43      -0.2212
     54  N         14.8600   17.6530    6.8910 N.3    69  GLU69      -0.1245
     55  CA        16.2470   18.1310    7.0990 C.3    69  GLU69       0.1567
     56  C         17.0400   17.9390    5.8240 C.2    69  GLU69       0.2260
     57  O         16.8260   16.9700    5.1150 O.2    69  GLU69      -0.2867
     58  CB        16.8970   17.3380    8.2400 C.3    69  GLU69       0.0388
     59  CG        18.2690   17.8400    8.6850 C.3    69  GLU69       0.1160
     60  CD        18.2730   19.2600    9.1630 C.2    69  GLU69       0.3649
     61  OE1       17.9800   19.5450   10.3190 O.co2  69  GLU69      -0.2457
     62  OE2       18.5800   20.1520    8.3820 O.co2  69  GLU69      -0.2457
     63  N         14.9190   26.2220    3.6960 N.3    73  ARG73      -0.1245
     64  CA        13.7460   26.4800    4.5120 C.3    73  ARG73       0.1563
     65  C         12.5200   26.5300    3.6280 C.2    73  ARG73       0.2260
     66  O         11.4510   26.0730    4.0210 O.2    73  ARG73      -0.2867
     67  CB        13.8690   27.7840    5.2780 C.3    73  ARG73       0.0307
     68  CG        14.6660   27.7160    6.5560 C.3    73  ARG73       0.0489
     69  CD        14.5660   29.0400    7.2700 C.3    73  ARG73       0.2205
     70  NE        15.3060   29.0340    8.5290 N.pl3  73  ARG73      -0.0865
     71  CZ        16.4240   29.7200    8.7640 C.cat  73  ARG73       0.5346
     72  NH1       16.9670   30.4920    7.8290 N.pl3  73  ARG73       0.1354
     73  NH2       17.0120   29.6330    9.9530 N.pl3  73  ARG73       0.1354
     74  N         10.5290   23.8880   11.8770 N.3    95  LEU95      -0.1245
     75  CA        10.8030   22.8230   10.9560 C.3    95  LEU95       0.1561
     76  C         11.3270   21.6100   11.7120 C.2    95  LEU95       0.2260
     77  O         12.2760   21.7130   12.4690 O.2    95  LEU95      -0.2867
     78  CB        11.8250   23.2620    9.9220 C.3    95  LEU95       0.0270
     79  CG        11.3460   24.3040    8.9100 C.3    95  LEU95       0.0019
     80  CD1       12.5750   24.8860    8.1980 C.3    95  LEU95       0.0001
     81  CD2       10.3630   23.6910    7.9140 C.3    95  LEU95       0.0001
     82  N         12.6220   17.4190   11.4100 N.3    97  ASP97      -0.1239
     83  CA        13.5380   16.7060   10.5520 C.3    97  ASP97       0.1674
     84  C         12.9680   15.6730    9.6180 C.2    97  ASP97       0.2266
     85  O         13.5070   15.5060    8.5280 O.2    97  ASP97      -0.2867
     86  CB        14.5380   16.0030   11.4360 C.3    97  ASP97       0.1410
     87  CG        15.4250   16.9630   12.1370 C.2    97  ASP97       0.3668
     88  OD1       15.8100   18.0130   11.5150 O.co2  97  ASP97      -0.2456
     89  OD2       15.7100   16.6650   13.3110 O.co2  97  ASP97      -0.2456
     90  N         11.5570   15.2260   15.3930 N.3   108  GLU108     -0.1231
     91  CA        12.7170   16.0330   15.6070 C.3   108  GLU108      0.1699
     92  C         13.8010   15.0990   16.1000 C.2   108  GLU108      0.2592
     93  O         13.6450   14.4260   17.1250 O.2   108  GLU108     -0.2718
     94  CB        12.4410   17.1290   16.6590 C.3   108  GLU108      0.0402
     95  CG        13.6610   17.9780   17.0310 C.3   108  GLU108      0.1161
     96  CD        14.3450   18.6320   15.8380 C.2   108  GLU108      0.3649
     97  OE1       13.6250   19.1940   14.9870 O.co2 108  GLU108     -0.2457
     98  OE2       15.5970   18.5820   15.7450 O.co2 108  GLU108     -0.2457
     99  N         14.8870   15.0320   15.3390 N.am  109  ILE109     -0.1980
    100  CA        16.0070   14.1840   15.6650 C.3   109  ILE109      0.1595
    101  C         17.0310   15.0330   16.3530 C.2   109  ILE109      0.2287
    102  O         17.3600   16.1190   15.8810 O.2   109  ILE109     -0.2864
    103  CB        16.6590   13.6070   14.4040 C.3   109  ILE109      0.0276
    104  CG1       15.6820   12.7000   13.6430 C.3   109  ILE109      0.0022
    105  CG2       17.9360   12.8480   14.7540 C.3   109  ILE109      0.0022
    106  CD1       15.2420   11.4720   14.3830 C.3   109  ILE109      0.0001
    107  N         26.3070   15.2340   22.2250 N.3   113  ARG113     -0.1245
    108  CA        27.5130   14.9070   22.9710 C.3   113  ARG113      0.1563
    109  C         27.3260   15.2170   24.4670 C.2   113  ARG113      0.2260
    110  O         28.2520   15.0460   25.2380 O.2   113  ARG113     -0.2867
    111  CB        28.6480   15.7960   22.4640 C.3   113  ARG113      0.0307
    112  CG        28.9200   15.7340   20.9690 C.3   113  ARG113      0.0489
    113  CD        29.4470   17.0580   20.4330 C.3   113  ARG113      0.2205
    114  NE        28.4310   17.7160   19.6420 N.pl3 113  ARG113     -0.0865
    115  CZ        28.5190   18.9280   19.1110 C.cat 113  ARG113      0.5346
    116  NH1       29.5930   19.7020   19.2840 N.pl3 113  ARG113      0.1354
    117  NH2       27.4960   19.3650   18.4050 N.pl3 113  ARG113      0.1354
    118  N         19.2720   17.4790   25.7980 N.3   119  TYR119     -0.1241
    119  CA        18.9140   17.8830   24.4630 C.3   119  TYR119      0.1605
    120  C         17.4380   17.6050   24.2410 C.2   119  TYR119      0.2264
    121  O         16.7600   18.3580   23.5360 O.2   119  TYR119     -0.2867
    122  CB        19.7980   17.1630   23.4380 C.3   119  TYR119      0.0534
    123  CG        19.9870   17.9010   22.1350 C.ar  119  TYR119     -0.0201
    124  CD1       20.1930   19.2820   22.0990 C.ar  119  TYR119     -0.0009
    125  CD2       19.9900   17.2170   20.9420 C.ar  119  TYR119     -0.0009
    126  CE1       20.3710   19.9460   20.8940 C.ar  119  TYR119      0.0417
    127  CE2       20.1790   17.8640   19.7380 C.ar  119  TYR119      0.0417
    128  CZ        20.3650   19.2130   19.7070 C.ar  119  TYR119      0.1957
    129  OH        20.5280   19.8130   18.4760 O.3   119  TYR119     -0.2866
    130  N         14.8070   20.6360   23.1580 N.3   123  LYS123     -0.1245
    131  CA        13.8930   20.4290   22.0490 C.3   123  LYS123      0.1561
    132  C         12.4620   20.5420   22.5340 C.2   123  LYS123      0.2260
    133  O         11.6950   21.3180   21.9680 O.2   123  LYS123     -0.2867
    134  CB        14.1030   19.0650   21.3850 C.3   123  LYS123      0.0271
    135  CG        15.4750   18.8450   20.7530 C.3   123  LYS123      0.0035
    136  CD        15.6870   19.6680   19.4940 C.3   123  LYS123      0.0206
    137  CE        16.9450   19.2180   18.7530 C.3   123  LYS123      0.1093
    138  NZ        17.2260   20.0840   17.5860 N.3   123  LYS123     -0.1314
    139  N         11.5870   24.0960   23.3970 N.3   126  LYS126     -0.1245
    140  CA        11.4890   24.8780   22.1660 C.3   126  LYS126      0.1561
    141  C         10.2110   24.5590   21.3920 C.2   126  LYS126      0.2260
    142  O          9.6230   25.4540   20.8030 O.2   126  LYS126     -0.2867
    143  CB        12.7170   24.6430   21.2830 C.3   126  LYS126      0.0271
    144  CG        12.7790   25.5370   20.0540 C.3   126  LYS126      0.0035
    145  CD        13.7860   25.0160   19.0500 C.3   126  LYS126      0.0206
    146  CE        13.7570   25.8060   17.7550 C.3   126  LYS126      0.1093
    147  NZ        14.7230   25.2260   16.7800 N.3   126  LYS126     -0.1314
@<TRIPOS>BOND
     1    65    66    2
     2    65    64    1
     3    63    64    1
     4    64    67    1
     5    57    56    2
     6    67    68    1
     7    56    55    1
     8    68    69    1
     9     1     2    1
    10    54    55    1
    11    55    58    1
    12    69    70    1
    13    16    15    2
    14    72    71    1
    15    81    79    1
    16     2     3    1
    17     2     5    1
    18    80    79    1
    19     3     4    2
    20    58    59    1
    21    62    60   ar
    22    15    14    1
    23    85    84    2
    24    70    71    2
    25    13    14    1
    26    59    60    1
    27     7     9   ar
    28     7     6   ar
    29    71    73    1
    30     9    11   ar
    31    79    78    1
    32    42    40    1
    33     5     6    1
    34     6     8   ar
    35    12    11    1
    36    11    10   ar
    37    60    61   ar
    38    14    17    1
    39     8    10   ar
    40    84    83    1
    41    39    38    2
    42    78    75    1
    43    38    37    1
    44    40    37    1
    45    40    41    1
    46    17    18    1
    47    83    82    1
    48    83    86    1
    49    43    41    1
    50    47    46    2
    51    46    45    1
    52    75    76    1
    53    75    74    1
    54    37    36    1
    55    18    19    1
    56    86    87    1
    57    88    87   ar
    58    20    19   ar
    59    19    21   ar
    60    50    52   ar
    61    50    49   ar
    62    76    77    2
    63    52    53   ar
    64    36    33   am
    65    44    45    1
    66    87    89   ar
    67    45    48    1
    68    25    24    2
    69    49    48    1
    70    49    51   ar
    71    24    23    1
    72    33    34    2
    73    33    32    1
    74    53    51   ar
    75    31    32    1
    76    27    26    1
    77    27    28    1
    78   104   106    1
    79   104   103    1
    80    32    35    1
    81    26    23    1
    82    23    22    1
    83   103   105    1
    84   103   100    1
    85    30    29    1
    86    28    29    1
    87    97    96   ar
    88    99   100    1
    89    99    92   am
    90    90    91    1
    91    91    92    1
    92    91    94    1
    93   100   101    1
    94    98    96   ar
    95    96    95    1
    96   102   101    2
    97    92    93    2
    98    94    95    1
    99   147   146    1
   100   138   137    1
   101   146   145    1
   102   117   115    1
   103   129   128    1
   104   137   136    1
   105   145   144    1
   106   115   116    1
   107   115   114    2
   108   136   135    1
   109   114   113    1
   110   128   127   ar
   111   128   126   ar
   112   127   125   ar
   113   144   143    1
   114   113   112    1
   115   135   134    1
   116   142   141    2
   117   126   124   ar
   118   125   123   ar
   119   112   111    1
   120   143   140    1
   121   134   131    1
   122   141   140    1
   123   133   132    2
   124   131   132    1
   125   131   130    1
   126   124   123   ar
   127   123   122    1
   128   140   139    1
   129   107   108    1
   130   111   108    1
   131   108   109    1
   132   122   119    1
   133   121   120    2
   134   120   119    1
   135   119   118    1
   136   109   110    2
