@<TRIPOS>MOLECULE
tmp/4awiA00.pdb
 193 181 0 0 0
SMALL
GASTEIGER

@<TRIPOS>ATOM
      1  N         27.6070    8.5420   36.5360 N.3    25  ILE25      -0.1231
      2  CA        27.2480    8.0860   35.1780 C.3    25  ILE25       0.1692
      3  C         27.1020    9.2200   34.1530 C.2    25  ILE25       0.2593
      4  O         26.8760    8.9620   32.9690 O.2    25  ILE25      -0.2718
      5  CB        25.9410    7.2460   35.1560 C.3    25  ILE25       0.0266
      6  CG1       24.7380    8.0650   35.6430 C.3    25  ILE25       0.0019
      7  CG2       26.0910    5.9770   35.9830 C.3    25  ILE25       0.0020
      8  CD1       23.4430    7.2750   35.6730 C.3    25  ILE25       0.0001
      9  N         27.2230   10.4650   34.5940 N.am   26  GLY26      -0.1942
     10  CA        26.9830   11.5910   33.7030 C.3    26  GLY26       0.2014
     11  C         27.1220   12.9410   34.3660 C.2    26  GLY26       0.2640
     12  O         27.0690   13.0580   35.5900 O.2    26  GLY26      -0.2714
     13  N         27.2780   13.9630   33.5340 N.am   27  SER27      -0.1935
     14  CA        27.5330   15.3190   33.9970 C.3    27  SER27       0.2055
     15  C         27.0370   16.3460   32.9800 C.2    27  SER27       0.2644
     16  O         26.7460   16.0160   31.8290 O.2    27  SER27      -0.2714
     17  CB        29.0320   15.4980   34.2390 C.3    27  SER27       0.2130
     18  OG        29.3280   16.7880   34.7370 O.3    27  SER27      -0.2179
     19  N         26.9410   17.5930   33.4210 N.am   28  GLY28      -0.1939
     20  CA        26.4850   18.6810   32.5640 C.3    28  GLY28       0.2014
     21  C         26.4870   20.0150   33.2830 C.2    28  GLY28       0.2639
     22  O         26.7630   20.0860   34.4820 O.2    28  GLY28      -0.2714
     23  N         26.1710   21.0750   32.5440 N.am   29  ALA29      -0.1963
     24  CA        26.1160   22.4270   33.1040 C.3    29  ALA29       0.1728
     25  C         25.0680   22.5260   34.2110 C.2    29  ALA29       0.2616
     26  O         25.2220   23.3030   35.1540 O.2    29  ALA29      -0.2715
     27  CB        25.8200   23.4430   32.0090 C.3    29  ALA29       0.0334
     28  N         24.0080   21.7320   34.0870 N.am   30  GLN30      -0.1963
     29  CA        22.9170   21.7420   35.0540 C.3    30  GLN30       0.1736
     30  C         23.2500   20.9720   36.3320 C.2    30  GLN30       0.2655
     31  O         22.7390   21.3060   37.4040 O.2    30  GLN30      -0.2711
     32  CB        21.6560   21.1480   34.4330 C.3    30  GLN30       0.0408
     33  CG        20.3750   21.6550   35.0600 C.3    30  GLN30       0.0908
     34  CD        19.1540   20.8680   34.6370 C.2    30  GLN30       0.2608
     35  OE1       19.2420   19.9340   33.8370 O.2    30  GLN30      -0.2717
     36  NE2       17.9990   21.2470   35.1700 N.am   30  GLN30      -0.0878
     37  N         24.0790   19.9340   36.2170 N.am   31  GLY31      -0.1730
     38  CA        24.4500   19.1330   37.3830 C.2    31  GLY31       0.1340
     39  C         25.2410   17.8680   37.1000 C.2    31  GLY31       0.2521
     40  O         25.8370   17.7120   36.0320 O.2    31  GLY31      -0.2816
     41  N         25.2530   13.4320   37.8550 N.3    33  VAL33      -0.1245
     42  CA        24.3430   12.3000   38.0600 C.3    33  VAL33       0.1561
     43  C         25.0770   11.0210   38.4780 C.2    33  VAL33       0.2260
     44  O         26.0980   10.6520   37.8880 O.2    33  VAL33      -0.2867
     45  CB        23.5070   12.0260   36.7900 C.3    33  VAL33       0.0252
     46  CG1       22.5930   10.8240   36.9840 C.3    33  VAL33       0.0019
     47  CG2       22.6970   13.2570   36.4160 C.3    33  VAL33       0.0019
     48  N         18.7520    6.5330   39.4090 N.3    46  ALA46      -0.1245
     49  CA        19.6750    7.6150   39.0670 C.3    46  ALA46       0.1562
     50  C         19.3680    8.8340   39.9440 C.2    46  ALA46       0.2260
     51  O         18.2040    9.1920   40.1190 O.2    46  ALA46      -0.2867
     52  CB        19.5590    7.9910   37.5930 C.3    46  ALA46       0.0290
     53  N         20.3180   12.8920   40.4380 N.3    48  LYS48      -0.1245
     54  CA        20.8710   14.1400   39.8860 C.3    48  LYS48       0.1561
     55  C         20.9430   15.2230   40.9610 C.2    48  LYS48       0.2260
     56  O         19.9250   15.5660   41.5630 O.2    48  LYS48      -0.2867
     57  CB        19.9930   14.6230   38.7300 C.3    48  LYS48       0.0271
     58  CG        20.4630   15.8860   38.0170 C.3    48  LYS48       0.0035
     59  CD        19.5180   16.2110   36.8710 C.3    48  LYS48       0.0206
     60  CE        19.7900   17.5660   36.2510 C.3    48  LYS48       0.1093
     61  NZ        19.0360   17.7020   34.9680 N.3    48  LYS48      -0.1314
     62  N         15.3240   26.5790   34.2520 N.3    62  ARG62      -0.1245
     63  CA        15.4930   25.2010   33.7890 C.3    62  ARG62       0.1563
     64  C         15.1910   24.1920   34.8980 C.2    62  ARG62       0.2260
     65  O         14.5260   23.1830   34.6610 O.2    62  ARG62      -0.2867
     66  CB        16.9120   24.9880   33.2590 C.3    62  ARG62       0.0307
     67  CG        17.0990   23.6870   32.4950 C.3    62  ARG62       0.0489
     68  CD        18.4220   23.6660   31.7450 C.3    62  ARG62       0.2205
     69  NE        18.7590   22.3310   31.2440 N.pl3  62  ARG62      -0.0865
     70  CZ        18.3050   21.7920   30.1100 C.cat  62  ARG62       0.5346
     71  NH1       17.4650   22.4510   29.3140 N.pl3  62  ARG62       0.1354
     72  NH2       18.6940   20.5690   29.7670 N.pl3  62  ARG62       0.1354
     73  N         11.6940   10.0150   30.8040 N.3    79  ILE79      -0.1245
     74  CA        12.3030    9.5710   32.0780 C.3    79  ILE79       0.1561
     75  C         11.4000    9.9380   33.2730 C.2    79  ILE79       0.2260
     76  O         10.9000   11.0610   33.3620 O.2    79  ILE79      -0.2867
     77  CB        13.7350   10.1420   32.2510 C.3    79  ILE79       0.0252
     78  CG1       14.5680    9.2610   33.1950 C.3    79  ILE79       0.0019
     79  CG2       13.6970   11.5980   32.7080 C.3    79  ILE79       0.0019
     80  CD1       15.0840    7.9890   32.5450 C.3    79  ILE79       0.0001
     81  N         15.4270    9.4260   39.8080 N.3   101  MET101     -0.1230
     82  CA        14.8770    9.0330   38.5030 C.3   101  MET101      0.1702
     83  C         15.0670    7.5540   38.2350 C.2   101  MET101      0.2592
     84  O         15.9360    6.9280   38.8270 O.2   101  MET101     -0.2718
     85  CB        15.7060    9.6910   37.3950 C.3   101  MET101      0.0401
     86  CG        15.2050   10.9670   36.7990 C.3   101  MET101      0.0596
     87  SD        16.5850   11.5610   35.7940 S.3   101  MET101     -0.1393
     88  CE        17.4050   12.5520   37.0290 C.3   101  MET101      0.0692
     89  N         14.3130    7.0300   37.2680 N.am  102  GLU102     -0.1966
     90  CA        14.5870    5.7110   36.6850 C.3   102  GLU102      0.1733
     91  C         16.0010    5.6610   36.1190 C.2   102  GLU102      0.2616
     92  O         16.4420    6.6250   35.5040 O.2   102  GLU102     -0.2715
     93  CB        13.6040    5.4110   35.5410 C.3   102  GLU102      0.0429
     94  CG        12.1550    5.2530   35.9700 C.3   102  GLU102      0.1163
     95  CD        11.2100    5.1140   34.7910 C.2   102  GLU102      0.3649
     96  OE1       11.3120    5.9160   33.8330 O.co2 102  GLU102     -0.2457
     97  OE2       10.3550    4.2050   34.8320 O.co2 102  GLU102     -0.2457
     98  N         16.6970    4.5400   36.3180 N.am  103  LEU103     -0.1963
     99  CA        18.0340    4.3390   35.7540 C.3   103  LEU103      0.1728
    100  C         17.9600    3.5460   34.4510 C.2   103  LEU103      0.2616
    101  O         17.3860    2.4690   34.4160 O.2   103  LEU103     -0.2715
    102  CB        18.9470    3.5950   36.7360 C.3   103  LEU103      0.0311
    103  CG        20.3910    3.3640   36.2640 C.3   103  LEU103      0.0022
    104  CD1       21.1440    4.6770   36.1030 C.3   103  LEU103      0.0001
    105  CD2       21.1310    2.4330   37.2180 C.3   103  LEU103      0.0001
    106  N         18.5600    4.0900   33.3960 N.am  104  MET104     -0.1963
    107  CA        18.6670    3.4180   32.1020 C.3   104  MET104      0.1736
    108  C         20.1240    3.0300   31.8290 C.2   104  MET104      0.2616
    109  O         21.0530    3.5470   32.4720 O.2   104  MET104     -0.2715
    110  CB        18.1190    4.3200   30.9890 C.3   104  MET104      0.0427
    111  CG        16.6480    4.6790   31.1550 C.3   104  MET104      0.0599
    112  SD        15.5520    3.2700   30.9050 S.3   104  MET104     -0.1393
    113  CE        15.3440    3.2620   29.1240 C.3   104  MET104      0.0692
    114  N         20.3050    2.1350   30.8560 N.am  105  ASP105     -0.1957
    115  CA        21.5730    1.4260   30.6190 C.3   105  ASP105      0.1840
    116  C         22.6290    2.1860   29.8140 C.2   105  ASP105      0.2622
    117  O         23.8270    1.9600   30.0010 O.2   105  ASP105     -0.2715
    118  CB        21.3120    0.1100   29.8650 C.3   105  ASP105      0.1450
    119  CG        20.6220   -0.9570   30.7070 C.2   105  ASP105      0.3671
    120  OD1       20.4270   -0.7810   31.9300 O.co2 105  ASP105     -0.2456
    121  OD2       20.2710   -2.0010   30.1180 O.co2 105  ASP105     -0.2456
    122  N         22.1960    3.0450   28.8910 N.am  106  ALA106     -0.1963
    123  CA        23.1020    3.6400   27.9070 C.3   106  ALA106      0.1728
    124  C         22.4280    4.8050   27.1940 C.2   106  ALA106      0.2616
    125  O         21.2110    4.9330   27.2490 O.2   106  ALA106     -0.2715
    126  CB        23.5130    2.5790   26.8890 C.3   106  ALA106      0.0334
    127  N         23.2090    5.6560   26.5330 N.am  107  ASN107     -0.1972
    128  CA        22.6230    6.7180   25.6940 C.3   107  ASN107      0.1688
    129  C         22.6700    6.3550   24.2060 C.2   107  ASN107      0.2292
    130  O         23.2800    5.3480   23.8300 O.2   107  ASN107     -0.2864
    131  CB        23.2270    8.1040   25.9950 C.3   107  ASN107      0.1181
    132  CG        24.6690    8.2590   25.5420 C.2   107  ASN107      0.2629
    133  OD1       25.1780    7.5030   24.7100 O.2   107  ASN107     -0.2716
    134  ND2       25.3370    9.2730   26.0890 N.am  107  ASN107     -0.0877
    135  N         25.9590    5.7430   22.1110 N.3   110  GLN110     -0.1245
    136  CA        26.4690    4.3750   22.1550 C.3   110  GLN110      0.1566
    137  C         25.8080    3.4900   21.0780 C.2   110  GLN110      0.2260
    138  O         26.4830    2.6990   20.4100 O.2   110  GLN110     -0.2867
    139  CB        26.2780    3.7820   23.5630 C.3   110  GLN110      0.0367
    140  CG        27.0320    4.5440   24.6540 C.3   110  GLN110      0.0905
    141  CD        26.7200    4.0700   26.0680 C.2   110  GLN110      0.2608
    142  OE1       26.0860    4.7860   26.8500 O.2   110  GLN110     -0.2717
    143  NE2       27.1700    2.8630   26.4070 N.am  110  GLN110     -0.0878
    144  N         18.7660   15.3700   20.9260 N.3   146  LYS146     -0.1245
    145  CA        20.0810   14.9160   20.4560 C.3   146  LYS146      0.1561
    146  C         20.3920   13.5400   21.0560 C.2   146  LYS146      0.2260
    147  O         19.7510   13.1370   22.0290 O.2   146  LYS146     -0.2867
    148  CB        21.1610   15.9350   20.8280 C.3   146  LYS146      0.0271
    149  CG        21.2180   16.2840   22.3050 C.3   146  LYS146      0.0035
    150  CD        22.2310   17.3840   22.5780 C.3   146  LYS146      0.0206
    151  CE        22.0440   17.9650   23.9690 C.3   146  LYS146      0.1093
    152  NZ        22.5110   19.3770   24.0550 N.3   146  LYS146     -0.1314
    153  N         22.7400   12.4530   22.9740 N.3   148  SER148     -0.1202
    154  CA        23.1970   12.4680   24.3720 C.3   148  SER148      0.2020
    155  C         22.0670   12.6220   25.4050 C.2   148  SER148      0.2618
    156  O         22.2550   12.2550   26.5700 O.2   148  SER148     -0.2717
    157  CB        24.2740   13.5430   24.5860 C.3   148  SER148      0.2103
    158  OG        23.7420   14.8470   24.4820 O.3   148  SER148     -0.2182
    159  N         20.9040   13.1430   24.9980 N.am  149  ASN149     -0.1974
    160  CA        19.7700   13.2760   25.9390 C.3   149  ASN149      0.1688
    161  C         18.6240   12.2870   25.7080 C.2   149  ASN149      0.2292
    162  O         17.4810   12.5220   26.1250 O.2   149  ASN149     -0.2864
    163  CB        19.2810   14.7410   26.0580 C.3   149  ASN149      0.1181
    164  CG        18.6650   15.2930   24.7830 C.2   149  ASN149      0.2629
    165  OD1       18.2150   14.5580   23.9010 O.2   149  ASN149     -0.2716
    166  ND2       18.6170   16.6170   24.6980 N.am  149  ASN149     -0.0877
    167  N         18.0210    8.0300   26.1980 N.3   151  VAL151     -0.1245
    168  CA        18.6120    6.8130   26.7880 C.3   151  VAL151      0.1561
    169  C         17.8270    5.5350   26.4810 C.2   151  VAL151      0.2260
    170  O         16.6230    5.5760   26.2110 O.2   151  VAL151     -0.2867
    171  CB        18.8420    6.9630   28.3130 C.3   151  VAL151      0.0252
    172  CG1       19.9840    7.9390   28.5680 C.3   151  VAL151      0.0019
    173  CG2       17.5730    7.4120   29.0300 C.3   151  VAL151      0.0019
    174  N         15.3410   12.2410   28.1800 N.3   161  LEU161     -0.1245
    175  CA        15.8090   12.6930   29.5070 C.3   161  LEU161      0.1561
    176  C         15.3740   14.0970   29.9270 C.2   161  LEU161      0.2260
    177  O         15.2830   14.3810   31.1290 O.2   161  LEU161     -0.2867
    178  CB        17.3400   12.6700   29.5570 C.3   161  LEU161      0.0270
    179  CG        18.0450   11.3270   29.6750 C.3   161  LEU161      0.0019
    180  CD1       19.5510   11.5560   29.6200 C.3   161  LEU161      0.0001
    181  CD2       17.6480   10.6090   30.9590 C.3   161  LEU161      0.0001
    182  N         31.1440   24.2270   29.8530 N.3   173  TYR173     -0.1241
    183  CA        30.3910   23.3050   28.9880 C.3   173  TYR173      0.1605
    184  C         30.0380   23.9200   27.6290 C.2   173  TYR173      0.2264
    185  O         29.4070   24.9760   27.5610 O.2   173  TYR173     -0.2867
    186  CB        29.1240   22.8410   29.6960 C.3   173  TYR173      0.0534
    187  CG        28.2950   21.8110   28.9260 C.ar  173  TYR173     -0.0201
    188  CD1       28.8280   20.5590   28.6610 C.ar  173  TYR173     -0.0009
    189  CD2       27.0050   22.1030   28.4960 C.ar  173  TYR173     -0.0009
    190  CE1       28.0520   19.6160   27.9310 C.ar  173  TYR173      0.0417
    191  CE2       26.2540   21.1710   27.7900 C.ar  173  TYR173      0.0417
    192  CZ        26.7820   19.9220   27.5090 C.ar  173  TYR173      0.1957
    193  OH        26.0420   18.9900   26.8470 O.3   173  TYR173     -0.2866
@<TRIPOS>BOND
     1   138   137    2
     2   145   148    1
     3   145   144    1
     4   145   146    1
     5   148   149    1
     6   146   147    2
     7   137   136    1
     8   135   136    1
     9   136   139    1
    10   149   150    1
    11   150   151    1
    12   153   154    1
    13   139   140    1
    14   130   129    2
    15   165   164    2
    16   151   152    1
    17   129   128    1
    18   154   157    1
    19   154   155    1
    20   158   157    1
    21   140   141    1
    22   166   164   am
    23   133   132    2
    24   164   163    1
    25   159   155   am
    26   159   160    1
    27   155   156    2
    28   132   131    1
    29   132   134   am
    30   128   131    1
    31   128   127    1
    32   161   160    1
    33   161   162    2
    34   160   163    1
    35   141   143   am
    36   141   142    2
    37   167   168    1
    38   170   169    2
    39   169   168    1
    40   127   124   am
    41   168   171    1
    42   193   192    1
    43   126   123    1
    44   124   125    2
    45   124   123    1
    46   192   191   ar
    47   192   190   ar
    48   185   184    2
    49   184   183    1
    50   191   189   ar
    51   123   122    1
    52   190   188   ar
    53   174   175    1
    54   171   172    1
    55   171   173    1
    56   189   187   ar
    57   188   187   ar
    58   122   116   am
    59   187   186    1
    60   183   186    1
    61   183   182    1
    62   113   112    1
    63    71    70    1
    64   175   178    1
    65   175   176    1
    66   178   179    1
    67   180   179    1
    68   179   181    1
    69    72    70    1
    70   116   117    2
    71   116   115    1
    72   118   115    1
    73   118   119    1
    74   176   177    2
    75    70    69    2
    76   121   119   ar
    77   115   114    1
    78   119   120   ar
    79    73    74    1
    80   114   108   am
    81   112   111    1
    82   110   111    1
    83   110   107    1
    84    69    68    1
    85    68    67    1
    86    16    15    2
    87   108   107    1
    88   108   109    2
    89    27    24    1
    90    74    77    1
    91    74    75    1
    92   107   106    1
    93    77    79    1
    94    77    78    1
    95    67    66    1
    96    23    24    1
    97    23    21   am
    98    80    78    1
    99    20    21    1
   100    20    19    1
   101     4     3    2
   102    15    19   am
   103    15    14    1
   104    24    25    1
   105    66    63    1
   106    75    76    2
   107    21    22    2
   108   106   100   am
   109    13    14    1
   110    13    11   am
   111    10    11    1
   112    10     9    1
   113    63    62    1
   114    63    64    1
   115    96    95   ar
   116    35    34    2
   117    14    17    1
   118    28    25   am
   119    28    29    1
   120     3     9   am
   121     3     2    1
   122    25    26    2
   123    17    18    1
   124    11    12    2
   125   101   100    2
   126    32    29    1
   127    32    33    1
   128   100    99    1
   129    34    33    1
   130    34    36   am
   131    65    64    2
   132    95    97   ar
   133    95    94    1
   134    61    60    1
   135    29    30    1
   136     5     2    1
   137     5     6    1
   138     5     7    1
   139     2     1    1
   140    92    91    2
   141    93    94    1
   142    93    90    1
   143     6     8    1
   144    99    98    1
   145    99   102    1
   146    87    86    1
   147    87    88    1
   148    40    39    2
   149   104   103    1
   150    91    98   am
   151    91    90    1
   152    37    30    1
   153    37    38    2
   154    60    59    1
   155   103   102    1
   156   103   105    1
   157    30    31    2
   158    47    45    1
   159    90    89    1
   160    45    46    1
   161    45    42    1
   162    86    85    1
   163    59    58    1
   164    39    38    1
   165    89    83   am
   166    85    82    1
   167    52    49    1
   168    41    42    1
   169    44    43    2
   170    58    57    1
   171    42    43    1
   172    83    82    1
   173    83    84    2
   174    82    81    1
   175    57    54    1
   176    49    48    1
   177    49    50    1
   178    54    53    1
   179    54    55    1
   180    50    51    2
   181    55    56    2
