@<TRIPOS>MOLECULE
tmp/4awkA00.pdb
 198 191 0 0 0
SMALL
GASTEIGER

@<TRIPOS>ATOM
      1  N         54.4200    8.1130   20.9190 N.3    21  ALA21      -0.1231
      2  CA        54.9080    9.4620   20.6760 C.3    21  ALA21       0.1694
      3  C         54.3710   10.4090   21.7350 C.2    21  ALA21       0.2591
      4  O         55.0990   11.2620   22.2330 O.2    21  ALA21      -0.2718
      5  CB        54.5150    9.9480   19.2750 C.3    21  ALA21       0.0304
      6  N         53.1020   10.2460   22.0950 N.am   22  MET22      -0.1979
      7  CA        52.4780   11.1440   23.0540 C.3    22  MET22       0.1605
      8  C         53.1270   11.0310   24.4290 C.2    22  MET22       0.2287
      9  O         53.4470   12.0470   25.0460 O.2    22  MET22      -0.2864
     10  CB        50.9680   10.9180   23.1230 C.3    22  MET22       0.0413
     11  CG        50.2560   11.4960   21.9100 C.3    22  MET22       0.0598
     12  SD        48.4640   11.4620   21.9960 S.3    22  MET22      -0.1393
     13  CE        48.0900   13.0950   22.6140 C.3    22  MET22       0.0692
     14  N         56.2080    9.7040   25.1770 N.3    24  GLU24      -0.1231
     15  CA        57.5870   10.2040   24.9930 C.3    24  GLU24       0.1699
     16  C         57.6680   11.7360   25.0850 C.2    24  GLU24       0.2592
     17  O         58.6940   12.2930   25.4850 O.2    24  GLU24      -0.2718
     18  CB        58.1620    9.7280   23.6380 C.3    24  GLU24       0.0402
     19  CG        59.6680    9.9140   23.4710 C.3    24  GLU24       0.1161
     20  CD        60.2070    9.3880   22.1400 C.2    24  GLU24       0.3649
     21  OE1       59.4640    9.3750   21.1400 O.co2  24  GLU24      -0.2457
     22  OE2       61.3880    8.9940   22.0840 O.co2  24  GLU24      -0.2457
     23  N         56.5770   12.4030   24.7160 N.am   25  TYR25      -0.1976
     24  CA        56.4900   13.8570   24.7110 C.3    25  TYR25       0.1639
     25  C         55.5220   14.3710   25.7910 C.2    25  TYR25       0.2290
     26  O         55.0580   15.5070   25.7160 O.2    25  TYR25      -0.2864
     27  CB        56.0470   14.3110   23.3150 C.3    25  TYR25       0.0560
     28  CG        56.5130   15.6890   22.8920 C.ar   25  TYR25      -0.0198
     29  CD1       57.8540   15.9400   22.6160 C.ar   25  TYR25      -0.0009
     30  CD2       55.6030   16.7370   22.7320 C.ar   25  TYR25      -0.0009
     31  CE1       58.2790   17.1990   22.2130 C.ar   25  TYR25       0.0417
     32  CE2       56.0200   17.9980   22.3310 C.ar   25  TYR25       0.0417
     33  CZ        57.3590   18.2240   22.0720 C.ar   25  TYR25       0.1957
     34  OH        57.7850   19.4730   21.6740 O.3    25  TYR25      -0.2866
     35  N         52.3030   13.5680   26.9050 N.3    27  GLU27      -0.1245
     36  CA        50.8380   13.7380   26.7710 C.3    27  GLU27       0.1567
     37  C         49.9900   12.4710   26.9440 C.2    27  GLU27       0.2260
     38  O         50.4540   11.3530   26.6990 O.2    27  GLU27      -0.2867
     39  CB        50.5190   14.3320   25.3940 C.3    27  GLU27       0.0388
     40  CG        51.2130   15.6490   25.0940 C.3    27  GLU27       0.1160
     41  CD        50.7780   16.7580   26.0250 C.2    27  GLU27       0.3649
     42  OE1       49.5520   16.9290   26.2070 O.co2  27  GLU27      -0.2457
     43  OE2       51.6600   17.4590   26.5660 O.co2  27  GLU27      -0.2457
     44  N         44.5080   16.0990   19.7580 N.3    35  LYS35      -0.1245
     45  CA        45.9390   15.9270   19.5140 C.3    35  LYS35       0.1561
     46  C         46.2660   14.4930   19.0850 C.2    35  LYS35       0.2260
     47  O         46.9640   14.2940   18.0940 O.2    35  LYS35      -0.2867
     48  CB        46.7050   16.2980   20.7830 C.3    35  LYS35       0.0271
     49  CG        48.2140   16.3460   20.6470 C.3    35  LYS35       0.0035
     50  CD        48.7930   17.1470   21.8150 C.3    35  LYS35       0.0206
     51  CE        50.2660   17.4570   21.6180 C.3    35  LYS35       0.1093
     52  NZ        50.8360   18.2300   22.7580 N.3    35  LYS35      -0.1314
     53  N         47.9470   13.4690   15.5850 N.3    39  ILE39      -0.1245
     54  CA        49.2090   12.7250   15.5280 C.3    39  ILE39       0.1561
     55  C         49.0500   11.4960   14.6480 C.2    39  ILE39       0.2260
     56  O         49.9090   11.2180   13.8080 O.2    39  ILE39      -0.2867
     57  CB        49.6850   12.3180   16.9400 C.3    39  ILE39       0.0252
     58  CG1       50.1210   13.5660   17.7140 C.3    39  ILE39       0.0019
     59  CG2       50.8300   11.3030   16.8630 C.3    39  ILE39       0.0019
     60  CD1       50.2300   13.3300   19.2120 C.3    39  ILE39       0.0001
     61  N         48.7780   12.6830   10.9500 N.3    42  HIS42      -0.1241
     62  CA        50.1030   13.0990   10.4650 C.3    42  HIS42       0.1621
     63  C         51.0100   11.9070   10.2610 C.2    42  HIS42       0.2264
     64  O         51.6790   11.7910    9.2340 O.2    42  HIS42      -0.2867
     65  CB        50.7120   14.1540   11.4040 C.3    42  HIS42       0.0745
     66  CG        52.1400   14.5050   11.0970 C.ar   42  HIS42       0.0817
     67  ND1       53.1670   13.7780   11.5520 N.ar   42  HIS42      -0.2268
     68  CD2       52.6980   15.5590   10.3670 C.ar   42  HIS42       0.1154
     69  CE1       54.3200   14.3240   11.1310 C.ar   42  HIS42       0.1986
     70  NE2       54.0310   15.4040   10.3980 N.ar   42  HIS42      -0.2212
     71  N         59.7450   10.2910   10.8720 N.3    60  GLU60      -0.1245
     72  CA        58.5780   10.3190   11.7310 C.3    60  GLU60       0.1567
     73  C         58.1730    8.8850   12.1420 C.2    60  GLU60       0.2260
     74  O         58.3130    7.9410   11.3740 O.2    60  GLU60      -0.2867
     75  CB        57.4230   11.0400   11.0160 C.3    60  GLU60       0.0388
     76  CG        56.2030   11.3600   11.8820 C.3    60  GLU60       0.1160
     77  CD        56.5510   12.1510   13.1300 C.2    60  GLU60       0.3649
     78  OE1       56.8870   11.4930   14.1250 O.co2  60  GLU60      -0.2457
     79  OE2       56.5190   13.4220   13.1320 O.co2  60  GLU60      -0.2457
     80  N         59.6130    7.0370   14.4140 N.3    62  ARG62      -0.1245
     81  CA        60.6960    6.4200   15.1670 C.3    62  ARG62       0.1563
     82  C         60.8200    7.1040   16.5310 C.2    62  ARG62       0.2260
     83  O         60.5070    8.2860   16.6660 O.2    62  ARG62      -0.2867
     84  CB        62.0010    6.5490   14.4040 C.3    62  ARG62       0.0307
     85  CG        61.9740    5.9500   13.0090 C.3    62  ARG62       0.0489
     86  CD        63.2750    6.2570   12.3180 C.3    62  ARG62       0.2205
     87  NE        63.3150    5.8400   10.9150 N.pl3  62  ARG62      -0.0865
     88  CZ        63.7110    4.6500   10.4800 C.cat  62  ARG62       0.5346
     89  NH1       64.0930    3.7000   11.3340 N.pl3  62  ARG62       0.1354
     90  NH2       63.7250    4.4080    9.1740 N.pl3  62  ARG62       0.1354
     91  N         62.8710    8.9730   19.4640 N.3    64  ARG64      -0.1245
     92  CA        63.7490   10.1300   19.2890 C.3    64  ARG64       0.1563
     93  C         65.1820    9.7640   18.9300 C.2    64  ARG64       0.2260
     94  O         65.7730   10.3550   18.0170 O.2    64  ARG64      -0.2867
     95  CB        63.7550   10.9600   20.5700 C.3    64  ARG64       0.0307
     96  CG        63.5090   12.4340   20.3670 C.3    64  ARG64       0.0489
     97  CD        63.5400   13.1200   21.7170 C.3    64  ARG64       0.2205
     98  NE        62.8490   14.4030   21.7330 N.pl3  64  ARG64      -0.0865
     99  CZ        61.8910   14.7570   22.5930 C.cat  64  ARG64       0.5346
    100  NH1       61.4680   13.9380   23.5550 N.pl3  64  ARG64       0.1354
    101  NH2       61.3610   15.9670   22.5020 N.pl3  64  ARG64       0.1354
    102  N         67.1130   10.5060   15.2910 N.3    68  TRP68      -0.1241
    103  CA        68.3630   11.2360   15.1690 C.3    68  TRP68       0.1605
    104  C         69.5000   10.3800   14.6690 C.2    68  TRP68       0.2264
    105  O         70.3830   10.8810   13.9810 O.2    68  TRP68      -0.2867
    106  CB        68.7200   11.9320   16.4810 C.3    68  TRP68       0.0550
    107  CG        67.9430   13.2080   16.6780 C.ar   68  TRP68       0.0003
    108  CD1       67.0170   13.5010   17.6840 C.ar   68  TRP68       0.0946
    109  CD2       67.9850   14.4080   15.8370 C.ar   68  TRP68       0.0152
    110  NE1       66.5070   14.7640   17.5270 N.ar   68  TRP68      -0.2442
    111  CE2       67.0430   15.3610   16.4330 C.ar   68  TRP68       0.0810
    112  CE3       68.6820   14.7760   14.6890 C.ar   68  TRP68       0.0012
    113  CZ2       66.8420   16.6260   15.8960 C.ar   68  TRP68       0.0191
    114  CZ3       68.4690   16.0540   14.1520 C.ar   68  TRP68       0.0001
    115  CH2       67.5640   16.9550   14.7400 C.ar   68  TRP68       0.0015
    116  N         65.7450   20.8100   13.7390 N.3    85  PHE85      -0.1227
    117  CA        64.6040   20.0570   14.2820 C.3    85  PHE85       0.1736
    118  C         64.4140   18.7600   13.5010 C.2    85  PHE85       0.2595
    119  O         64.7390   18.7100   12.3240 O.2    85  PHE85      -0.2718
    120  CB        63.3500   20.9090   14.1880 C.3    85  PHE85       0.0547
    121  CG        63.4760   22.2310   14.8900 C.ar   85  PHE85      -0.0202
    122  CD1       63.5000   22.2890   16.2800 C.ar   85  PHE85      -0.0042
    123  CD2       63.5970   23.4130   14.1660 C.ar   85  PHE85      -0.0042
    124  CE1       63.6280   23.5080   16.9310 C.ar   85  PHE85      -0.0003
    125  CE2       63.7160   24.6310   14.8140 C.ar   85  PHE85      -0.0003
    126  CZ        63.7320   24.6790   16.1970 C.ar   85  PHE85      -0.0000
    127  N         63.9110   17.7160   14.1510 N.am   86  LEU86      -0.1966
    128  CA        63.6560   16.4550   13.4480 C.3    86  LEU86       0.1713
    129  C         62.6870   16.6960   12.3040 C.2    86  LEU86       0.2458
    130  O         61.6380   17.2630   12.5110 O.2    86  LEU86      -0.2730
    131  CB        63.0330   15.4010   14.3810 C.3    86  LEU86       0.0310
    132  CG        63.9000   14.4030   15.1440 C.3    86  LEU86       0.0022
    133  CD1       63.0020   13.3240   15.7520 C.3    86  LEU86       0.0001
    134  CD2       64.9440   13.7670   14.2550 C.3    86  LEU86       0.0001
    135  N         63.0310   16.2790   11.0830 N.am   87  PRO87      -0.2716
    136  CA        62.0530   16.3480   10.0030 C.3    87  PRO87       0.1536
    137  C         61.2730   15.0410    9.9440 C.2    87  PRO87       0.2598
    138  O         61.4640   14.1640   10.8060 O.2    87  PRO87      -0.2715
    139  CB        62.9420   16.4840    8.7720 C.3    87  PRO87       0.0310
    140  CG        64.1280   15.6580    9.1210 C.3    87  PRO87       0.0237
    141  CD        64.3310   15.7870   10.6010 C.3    87  PRO87       0.0939
    142  N         60.4540   14.8910    8.9120 N.am   88  ASP88      -0.1972
    143  CA        59.5540   13.7470    8.7990 C.3    88  ASP88       0.1709
    144  C         60.0500   12.6580    7.8760 C.2    88  ASP88       0.2293
    145  O         59.7900   11.4890    8.1430 O.2    88  ASP88      -0.2864
    146  CB        58.1850   14.2380    8.3380 C.3    88  ASP88       0.1436
    147  CG        57.5040   15.0460    9.3950 C.2    88  ASP88       0.3671
    148  OD1       57.5530   14.6160   10.5670 O.co2  88  ASP88      -0.2456
    149  OD2       56.9170   16.0920    9.0680 O.co2  88  ASP88      -0.2456
    150  N         59.6810   18.2670    5.6830 N.3    99  GLU99      -0.1231
    151  CA        58.7800   18.5020    6.7950 C.3    99  GLU99       0.1699
    152  C         57.3610   18.4360    6.2310 C.2    99  GLU99       0.2592
    153  O         57.0110   19.1800    5.3320 O.2    99  GLU99      -0.2718
    154  CB        59.0180   19.8620    7.4720 C.3    99  GLU99       0.0402
    155  CG        57.9800   20.2060    8.5390 C.3    99  GLU99       0.1161
    156  CD        57.8410   19.1440    9.6240 C.2    99  GLU99       0.3649
    157  OE1       58.8720   18.5900   10.0660 O.co2  99  GLU99      -0.2457
    158  OE2       56.6980   18.8870   10.0670 O.co2  99  GLU99      -0.2457
    159  N         56.5860   17.5050    6.7600 N.am  100  ILE100     -0.1966
    160  CA        55.1980   17.3100    6.3790 C.3   100  ILE100      0.1727
    161  C         54.3080   17.9870    7.3960 C.2   100  ILE100      0.2617
    162  O         54.4400   17.7330    8.6140 O.2   100  ILE100     -0.2715
    163  CB        54.8370   15.8180    6.3670 C.3   100  ILE100      0.0290
    164  CG1       55.6370   15.1160    5.2850 C.3   100  ILE100      0.0022
    165  CG2       53.3280   15.6170    6.1540 C.3   100  ILE100      0.0023
    166  CD1       55.3810   15.6720    3.9220 C.3   100  ILE100      0.0001
    167  N         53.4000   18.8140    6.8770 N.am  101  GLY101     -0.1940
    168  CA        52.4040   19.5070    7.6760 C.3   101  GLY101      0.2014
    169  C         51.0010   19.0730    7.2880 C.2   101  GLY101      0.2638
    170  O         50.6950   18.9320    6.1100 O.2   101  GLY101     -0.2714
    171  N         50.1690   18.8270    8.2880 N.am  102  VAL102     -0.1977
    172  CA        48.7360   18.5780    8.0900 C.3   102  VAL102      0.1596
    173  C         47.9520   19.5730    8.9290 C.2   102  VAL102      0.2287
    174  O         48.1090   19.6090   10.1500 O.2   102  VAL102     -0.2864
    175  CB        48.3280   17.1500    8.4960 C.3   102  VAL102      0.0276
    176  CG1       46.8230   16.9350    8.2610 C.3   102  VAL102      0.0022
    177  CG2       49.1470   16.1260    7.7210 C.3   102  VAL102      0.0022
    178  N         49.5180   27.7490    7.6570 N.3   110  TYR110     -0.1241
    179  CA        50.3210   26.7340    8.3040 C.3   110  TYR110      0.1605
    180  C         51.7210   26.6240    7.6810 C.2   110  TYR110      0.2264
    181  O         52.6820   26.3720    8.3930 O.2   110  TYR110     -0.2867
    182  CB        49.5880   25.3990    8.2480 C.3   110  TYR110      0.0534
    183  CG        50.1140   24.3850    9.2100 C.ar  110  TYR110     -0.0201
    184  CD1       50.1430   24.6390   10.5720 C.ar  110  TYR110     -0.0009
    185  CD2       50.5730   23.1630    8.7620 C.ar  110  TYR110     -0.0009
    186  CE1       50.6240   23.7040   11.4620 C.ar  110  TYR110      0.0417
    187  CE2       51.0350   22.2090    9.6420 C.ar  110  TYR110      0.0417
    188  CZ        51.0560   22.4780   10.9830 C.ar  110  TYR110      0.1957
    189  OH        51.5260   21.5190   11.8230 O.3   110  TYR110     -0.2866
    190  N         55.1470   26.9360    9.7620 N.3   114  LYS114     -0.1245
    191  CA        56.1700   25.8980    9.7130 C.3   114  LYS114      0.1561
    192  C         57.5080   26.4640    9.2710 C.2   114  LYS114      0.2260
    193  O         58.5310   26.2170    9.9110 O.2   114  LYS114     -0.2867
    194  CB        55.7720   24.7770    8.7440 C.3   114  LYS114      0.0271
    195  CG        54.8130   23.7650    9.3320 C.3   114  LYS114      0.0035
    196  CD        55.4940   22.9570   10.4200 C.3   114  LYS114      0.0206
    197  CE        54.7250   21.6860   10.7230 C.3   114  LYS114      0.1093
    198  NZ        54.9450   21.2880   12.1310 N.3   114  LYS114     -0.1314
@<TRIPOS>BOND
     1   166   164    1
     2   164   163    1
     3   153   152    2
     4   150   151    1
     5   170   169    2
     6   165   163    1
     7   152   159   am
     8   152   151    1
     9   163   160    1
    10   160   159    1
    11   160   161    1
    12   151   154    1
    13   167   161   am
    14   167   168    1
    15   169   168    1
    16   169   171   am
    17   161   162    2
    18   154   155    1
    19   178   179    1
    20   180   179    1
    21   180   181    2
    22   177   175    1
    23   144   145    2
    24   144   143    1
    25   172   171    1
    26   172   175    1
    27   172   173    1
    28   182   179    1
    29   182   183    1
    30   176   175    1
    31   146   143    1
    32   146   147    1
    33   155   156    1
    34   194   195    1
    35   194   191    1
    36   185   183   ar
    37   185   187   ar
    38   139   140    1
    39   139   136    1
    40   143   142    1
    41   142   137   am
    42   173   174    2
    43   149   147   ar
    44   140   141    1
    45    90    88    1
    46   183   184   ar
    47    64    63    2
    48   192   191    1
    49   192   193    2
    50   195   196    1
    51   147   148   ar
    52   156   157   ar
    53   156   158   ar
    54   187   188   ar
    55   191   190    1
    56   137   136    1
    57   137   138    2
    58   136   135    1
    59    63    62    1
    60    68    70   ar
    61    68    66   ar
    62    70    69   ar
    63   196   197    1
    64    62    61    1
    65    62    65    1
    66    88    87    2
    67    88    89    1
    68   184   186   ar
    69   141   135    1
    70   197   198    1
    71    71    72    1
    72    87    86    1
    73   188   186   ar
    74   188   189    1
    75    75    72    1
    76    75    76    1
    77   135   129   am
    78    66    65    1
    79    66    67   ar
    80    69    67   ar
    81    74    73    2
    82    72    73    1
    83    76    77    1
    84   129   130    2
    85   129   128    1
    86    86    85    1
    87   119   118    2
    88    85    84    1
    89    77    79   ar
    90    77    78   ar
    91   128   127    1
    92   128   131    1
    93   118   127   am
    94   118   117    1
    95   116   117    1
    96    56    55    2
    97   105   104    2
    98   114   112   ar
    99   114   115   ar
   100   123   125   ar
   101   123   121   ar
   102   120   117    1
   103   120   121    1
   104   134   132    1
   105   131   132    1
   106    84    81    1
   107    80    81    1
   108    55    54    1
   109   104   103    1
   110   112   109   ar
   111   115   113   ar
   112   125   126   ar
   113   121   122   ar
   114   132   133    1
   115    81    82    1
   116   103   102    1
   117   103   106    1
   118    54    53    1
   119    54    57    1
   120   109   111   ar
   121   109   107   ar
   122   113   111   ar
   123   126   124   ar
   124   122   124   ar
   125   111   110   ar
   126   106   107    1
   127    82    83    2
   128   107   108   ar
   129    59    57    1
   130    57    58    1
   131   110   108   ar
   132    58    60    1
   133    94    93    2
   134    47    46    2
   135    93    92    1
   136    46    45    1
   137     5     2    1
   138    92    91    1
   139    92    95    1
   140    45    44    1
   141    45    48    1
   142    96    95    1
   143    96    97    1
   144    49    48    1
   145    49    50    1
   146     2     1    1
   147     2     3    1
   148    21    20   ar
   149    51    50    1
   150    51    52    1
   151    34    33    1
   152    97    98    1
   153    98    99    2
   154     3     6   am
   155     3     4    2
   156    11    12    1
   157    11    10    1
   158    12    13    1
   159    33    31   ar
   160    33    32   ar
   161    22    20   ar
   162     6     7    1
   163    20    19    1
   164    31    29   ar
   165    32    30   ar
   166   101    99    1
   167    99   100    1
   168    29    28   ar
   169    30    28   ar
   170    28    27    1
   171     7    10    1
   172     7     8    1
   173    27    24    1
   174    19    18    1
   175    18    15    1
   176     8     9    2
   177    24    23    1
   178    24    25    1
   179    23    16   am
   180    15    16    1
   181    15    14    1
   182    16    17    2
   183    40    39    1
   184    40    41    1
   185    39    36    1
   186    26    25    2
   187    41    42   ar
   188    41    43   ar
   189    38    37    2
   190    36    35    1
   191    36    37    1
