@<TRIPOS>MOLECULE
tmp/4awmA00.pdb
 173 160 0 0 0
SMALL
GASTEIGER

@<TRIPOS>ATOM
      1  N         14.8030  -41.3260   23.7190 N.3    21  ALA21      -0.1231
      2  CA        14.3950  -39.9260   23.7120 C.3    21  ALA21       0.1694
      3  C         13.2790  -39.6630   24.7220 C.2    21  ALA21       0.2591
      4  O         13.3450  -38.7270   25.5070 O.2    21  ALA21      -0.2718
      5  CB        13.9570  -39.5230   22.3180 C.3    21  ALA21       0.0304
      6  N         12.2560  -40.5090   24.7240 N.am   22  MET22      -0.1979
      7  CA        11.1420  -40.3180   25.6520 C.3    22  MET22       0.1605
      8  C         11.6090  -40.4490   27.0830 C.2    22  MET22       0.2287
      9  O         11.2340  -39.6400   27.9370 O.2    22  MET22      -0.2864
     10  CB        10.0180  -41.3140   25.3800 C.3    22  MET22       0.0413
     11  CG         9.2100  -40.9980   24.1290 C.3    22  MET22       0.0598
     12  SD         7.7770  -42.0900   23.9780 S.3    22  MET22      -0.1393
     13  CE         6.7360  -41.4690   25.3050 C.3    22  MET22       0.0692
     14  N         13.3620  -37.5750   28.7070 N.3    25  TYR25      -0.1241
     15  CA        12.4630  -36.5100   29.1500 C.3    25  TYR25       0.1605
     16  C         11.5010  -36.9800   30.2260 C.2    25  TYR25       0.2264
     17  O         10.6050  -36.2430   30.6060 O.2    25  TYR25      -0.2867
     18  CB        11.6850  -35.9510   27.9600 C.3    25  TYR25       0.0534
     19  CG        12.3950  -34.8530   27.2120 C.ar   25  TYR25      -0.0201
     20  CD1       12.4090  -33.5550   27.7130 C.ar   25  TYR25      -0.0009
     21  CD2       13.0380  -35.1010   25.9990 C.ar   25  TYR25      -0.0009
     22  CE1       13.0440  -32.5280   27.0380 C.ar   25  TYR25       0.0417
     23  CE2       13.6780  -34.0770   25.3110 C.ar   25  TYR25       0.0417
     24  CZ        13.6750  -32.7890   25.8410 C.ar   25  TYR25       0.1957
     25  OH        14.2940  -31.7550   25.1900 O.3    25  TYR25      -0.2866
     26  N          9.2900  -39.5250   30.1880 N.3    27  GLU27      -0.1245
     27  CA         8.0310  -40.0870   29.7060 C.3    27  GLU27       0.1567
     28  C          8.1440  -41.5810   29.4230 C.2    27  GLU27       0.2260
     29  O          9.1640  -42.0580   28.9560 O.2    27  GLU27      -0.2867
     30  CB         7.5830  -39.3550   28.4410 C.3    27  GLU27       0.0388
     31  CG         7.3140  -37.8710   28.6760 C.3    27  GLU27       0.1160
     32  CD         7.5410  -37.0050   27.4510 C.2    27  GLU27       0.3649
     33  OE1        8.2610  -37.4250   26.5110 O.co2  27  GLU27      -0.2457
     34  OE2        6.9930  -35.8840   27.4310 O.co2  27  GLU27      -0.2457
     35  N          2.4460  -39.9390   21.6320 N.3    35  LYS35      -0.1245
     36  CA         3.7340  -39.2480   21.5500 C.3    35  LYS35       0.1561
     37  C          4.8490  -40.2020   21.0810 C.2    35  LYS35       0.2260
     38  O          5.6670  -39.8350   20.2390 O.2    35  LYS35      -0.2867
     39  CB         4.0740  -38.6160   22.8960 C.3    35  LYS35       0.0271
     40  CG         5.4560  -37.9890   22.9400 C.3    35  LYS35       0.0035
     41  CD         5.6420  -37.0440   24.1270 C.3    35  LYS35       0.0206
     42  CE         5.6650  -35.5740   23.7230 C.3    35  LYS35       0.1093
     43  NZ         6.3610  -34.7270   24.7410 N.3    35  LYS35      -0.1314
     44  N          4.5040  -40.3310   17.4270 N.3    38  ALA38      -0.1231
     45  CA         4.9080  -39.0360   16.8410 C.3    38  ALA38       0.1694
     46  C          6.4410  -38.9810   16.7130 C.2    38  ALA38       0.2591
     47  O          6.9660  -38.6400   15.6700 O.2    38  ALA38      -0.2718
     48  CB         4.4100  -37.8630   17.6790 C.3    38  ALA38       0.0304
     49  N          7.1440  -39.3500   17.7740 N.am   39  ILE39      -0.1980
     50  CA         8.5960  -39.2980   17.7760 C.3    39  ILE39       0.1595
     51  C          9.1680  -40.2050   16.6840 C.2    39  ILE39       0.2287
     52  O          9.9870  -39.7710   15.8790 O.2    39  ILE39      -0.2864
     53  CB         9.1490  -39.6470   19.1810 C.3    39  ILE39       0.0276
     54  CG1        8.8230  -38.4990   20.1640 C.3    39  ILE39       0.0022
     55  CG2       10.6560  -39.8970   19.1210 C.3    39  ILE39       0.0022
     56  CD1        8.7840  -38.9040   21.6200 C.3    39  ILE39       0.0001
     57  N          8.8080  -38.4520   13.3150 N.3    42  HIS42      -0.1226
     58  CA         9.7400  -37.3350   13.1240 C.3    42  HIS42       0.1752
     59  C         11.1100  -37.9060   12.8500 C.2    42  HIS42       0.2595
     60  O         11.8150  -37.4620   11.9420 O.2    42  HIS42      -0.2718
     61  CB         9.7350  -36.4010   14.3400 C.3    42  HIS42       0.0759
     62  CG        10.8290  -35.3350   14.3240 C.ar   42  HIS42       0.0818
     63  ND1       12.1320  -35.6230   14.5490 N.ar   42  HIS42      -0.2268
     64  CD2       10.7610  -33.9490   14.1610 C.ar   42  HIS42       0.1154
     65  CE1       12.8550  -34.4830   14.4860 C.ar   42  HIS42       0.1986
     66  NE2       12.0160  -33.4650   14.2610 N.ar   42  HIS42      -0.2212
     67  N         11.4840  -38.9280   13.6060 N.am   43  LEU43      -0.1980
     68  CA        12.7400  -39.6130   13.3580 C.3    43  LEU43       0.1596
     69  C         12.8220  -40.1340   11.9320 C.2    43  LEU43       0.2287
     70  O         13.7770  -39.8000   11.2190 O.2    43  LEU43      -0.2864
     71  CB        12.9610  -40.7670   14.3470 C.3    43  LEU43       0.0297
     72  CG        13.4620  -40.3980   15.7430 C.3    43  LEU43       0.0022
     73  CD1       13.4750  -41.6510   16.5970 C.3    43  LEU43       0.0001
     74  CD2       14.8350  -39.7270   15.7300 C.3    43  LEU43       0.0001
     75  N         19.8370  -35.3300   14.1640 N.3    64  GLU64      -0.1245
     76  CA        18.8100  -35.9840   14.9720 C.3    64  GLU64       0.1567
     77  C         19.1500  -37.4700   15.1150 C.2    64  GLU64       0.2260
     78  O         19.8650  -38.0330   14.2870 O.2    64  GLU64      -0.2867
     79  CB        17.4380  -35.7670   14.3390 C.3    64  GLU64       0.0388
     80  CG        16.2480  -36.3090   15.1200 C.3    64  GLU64       0.1160
     81  CD        16.1120  -35.7500   16.5110 C.2    64  GLU64       0.3649
     82  OE1       16.7270  -36.3380   17.4260 O.co2  64  GLU64      -0.2457
     83  OE2       15.3850  -34.7500   16.6860 O.co2  64  GLU64      -0.2457
     84  N         20.0860  -28.0560   19.2680 N.3    90  LEU90      -0.1245
     85  CA        20.3980  -29.0120   18.2070 C.3    90  LEU90       0.1561
     86  C         19.2930  -29.0140   17.1720 C.2    90  LEU90       0.2260
     87  O         18.1510  -29.1950   17.5200 O.2    90  LEU90      -0.2867
     88  CB        20.5170  -30.4390   18.7580 C.3    90  LEU90       0.0270
     89  CG        21.7710  -30.8810   19.5210 C.3    90  LEU90       0.0019
     90  CD1       21.5340  -32.3030   20.0180 C.3    90  LEU90       0.0001
     91  CD2       23.0280  -30.8030   18.6620 C.3    90  LEU90       0.0001
     92  N         18.1080  -30.7900   13.1980 N.3    92  ASP92      -0.1239
     93  CA        17.9540  -32.1670   12.7300 C.3    92  ASP92       0.1674
     94  C         18.9530  -32.5570   11.6360 C.2    92  ASP92       0.2266
     95  O         19.4120  -33.6990   11.5940 O.2    92  ASP92      -0.2867
     96  CB        16.5260  -32.3570   12.2320 C.3    92  ASP92       0.1410
     97  CG        15.4830  -32.0830   13.3230 C.2    92  ASP92       0.3668
     98  OD1       15.6740  -32.5000   14.5050 O.co2  92  ASP92      -0.2456
     99  OD2       14.4730  -31.4340   12.9780 O.co2  92  ASP92      -0.2456
    100  N         15.7150  -27.6000   10.4520 N.3   103  GLU103     -0.1231
    101  CA        14.8720  -28.0970   11.5220 C.3   103  GLU103      0.1699
    102  C         13.5850  -28.6580   10.9000 C.2   103  GLU103      0.2592
    103  O         12.7500  -27.9030   10.3870 O.2   103  GLU103     -0.2718
    104  CB        14.5760  -26.9880   12.5370 C.3   103  GLU103      0.0402
    105  CG        13.5500  -27.3390   13.6180 C.3   103  GLU103      0.1161
    106  CD        13.7860  -28.6870   14.2810 C.2   103  GLU103      0.3649
    107  OE1       14.9530  -29.0500   14.5190 O.co2 103  GLU103     -0.2457
    108  OE2       12.8000  -29.3890   14.5650 O.co2 103  GLU103     -0.2457
    109  N         13.4690  -29.9890   10.9140 N.am  104  ILE104     -0.1980
    110  CA        12.3190  -30.6690   10.3820 C.3   104  ILE104      0.1595
    111  C         11.2220  -30.6230   11.4470 C.2   104  ILE104      0.2287
    112  O         11.4720  -30.8550   12.6380 O.2   104  ILE104     -0.2864
    113  CB        12.6060  -32.1500   10.0690 C.3   104  ILE104      0.0276
    114  CG1       13.7640  -32.3160    9.0850 C.3   104  ILE104      0.0022
    115  CG2       11.3510  -32.8490    9.5630 C.3   104  ILE104      0.0022
    116  CD1       13.6160  -31.5630    7.7890 C.3   104  ILE104      0.0001
    117  N          7.0890  -32.1230   11.9360 N.3   106  VAL106     -0.1245
    118  CA         6.0330  -32.9870   11.4120 C.3   106  VAL106      0.1561
    119  C          4.8140  -32.7800   12.2890 C.2   106  VAL106      0.2260
    120  O          4.8860  -33.0030   13.4800 O.2   106  VAL106     -0.2867
    121  CB         6.4380  -34.4580   11.4480 C.3   106  VAL106      0.0252
    122  CG1        5.3610  -35.3050   10.7810 C.3   106  VAL106      0.0019
    123  CG2        7.7820  -34.6470   10.7710 C.3   106  VAL106      0.0019
    124  N          0.3120  -32.9880   12.7330 N.3   108  ARG108     -0.1245
    125  CA        -0.9480  -33.4910   12.1730 C.3   108  ARG108      0.1563
    126  C         -2.0400  -32.3990   12.1630 C.2   108  ARG108      0.2260
    127  O         -3.2020  -32.6650   11.8450 O.2   108  ARG108     -0.2867
    128  CB        -1.4040  -34.8140   12.8250 C.3   108  ARG108      0.0307
    129  CG        -1.2330  -34.9510   14.3300 C.3   108  ARG108      0.0489
    130  CD         0.0240  -35.7080   14.7230 C.3   108  ARG108      0.2205
    131  NE        -0.1100  -36.2680   16.0670 N.pl3 108  ARG108     -0.0865
    132  CZ         0.6060  -35.9250   17.1390 C.cat 108  ARG108      0.5346
    133  NH1        1.5610  -35.0010   17.0670 N.pl3 108  ARG108      0.1354
    134  NH2        0.3730  -36.5200   18.3090 N.pl3 108  ARG108      0.1354
    135  N          2.0900  -24.5870   12.9070 N.3   114  TYR114     -0.1241
    136  CA         3.2150  -25.3420   13.4730 C.3   114  TYR114      0.1605
    137  C          4.5420  -24.7060   13.0700 C.2   114  TYR114      0.2264
    138  O          5.4460  -24.5780   13.8860 O.2   114  TYR114     -0.2867
    139  CB         3.1830  -26.8180   13.0680 C.3   114  TYR114      0.0534
    140  CG         4.1690  -27.6740   13.8510 C.ar  114  TYR114     -0.0201
    141  CD1        3.9470  -27.9870   15.1970 C.ar  114  TYR114     -0.0009
    142  CD2        5.3200  -28.1790   13.2500 C.ar  114  TYR114     -0.0009
    143  CE1        4.8500  -28.7720   15.9160 C.ar  114  TYR114      0.0417
    144  CE2        6.2160  -28.9700   13.9590 C.ar  114  TYR114      0.0417
    145  CZ         5.9860  -29.2610   15.2870 C.ar  114  TYR114      0.1957
    146  OH         6.8890  -30.0430   15.9720 O.3   114  TYR114     -0.2866
    147  N          7.4060  -23.3590   15.6820 N.3   118  LYS118     -0.1245
    148  CA         8.7990  -23.7580   15.5140 C.3   118  LYS118      0.1561
    149  C          9.7120  -22.5440   15.4600 C.2   118  LYS118      0.2260
    150  O         10.6440  -22.4440   16.2530 O.2   118  LYS118     -0.2867
    151  CB         9.0000  -24.5880   14.2410 C.3   118  LYS118      0.0271
    152  CG         8.8050  -26.0780   14.4250 C.3   118  LYS118      0.0035
    153  CD         9.9510  -26.7300   15.1840 C.3   118  LYS118      0.0206
    154  CE         9.7200  -28.2240   15.3030 C.3   118  LYS118      0.1093
    155  NZ        10.1010  -28.7310   16.6460 N.3   118  LYS118     -0.1314
    156  N         10.4640  -20.8140   18.6700 N.3   121  LYS121     -0.1245
    157  CA        11.3280  -21.5900   19.5650 C.3   121  LYS121      0.1561
    158  C         12.8270  -21.5210   19.2090 C.2   121  LYS121      0.2260
    159  O         13.6690  -21.8190   20.0520 O.2   121  LYS121     -0.2867
    160  CB        10.8620  -23.0510   19.6410 C.3   121  LYS121      0.0271
    161  CG        11.6920  -23.9100   20.5870 C.3   121  LYS121      0.0035
    162  CD        10.9690  -25.1600   21.0700 C.3   121  LYS121      0.0206
    163  CE        11.9150  -26.0370   21.8870 C.3   121  LYS121      0.1093
    164  NZ        11.2120  -27.0680   22.7040 N.3   121  LYS121     -0.1314
    165  N         -2.1180  -34.1710   19.7310 N.3   177  GLU177     -0.1245
    166  CA        -1.1620  -33.0920   19.5580 C.3   177  GLU177      0.1567
    167  C         -1.7220  -31.7750   20.0980 C.2   177  GLU177      0.2260
    168  O         -2.1800  -30.9350   19.3270 O.2   177  GLU177     -0.2867
    169  CB        -0.8250  -32.9390   18.0790 C.3   177  GLU177      0.0388
    170  CG         0.4100  -32.1010   17.8340 C.3   177  GLU177      0.1160
    171  CD         0.6750  -31.8280   16.3750 C.2   177  GLU177      0.3649
    172  OE1        0.2220  -32.6050   15.5180 O.co2 177  GLU177     -0.2457
    173  OE2        1.3520  -30.8250   16.0830 O.co2 177  GLU177     -0.2457
@<TRIPOS>BOND
     1   116   114    1
     2   114   113    1
     3   115   113    1
     4   113   110    1
     5   110   109    1
     6   110   111    1
     7   103   102    2
     8   100   101    1
     9   123   121    1
    10   122   121    1
    11   102   109   am
    12   102   101    1
    13    70    69    2
    14   118   121    1
    15   118   117    1
    16   118   119    1
    17   111   112    2
    18   101   104    1
    19    95    94    2
    20    94    93    1
    21   127   126    2
    22    69    68    1
    23    60    59    2
    24   126   125    1
    25   125   124    1
    26   125   128    1
    27    96    93    1
    28    96    97    1
    29   119   120    2
    30   104   105    1
    31    93    92    1
    32   128   129    1
    33    59    58    1
    34    59    67   am
    35   135   136    1
    36    99    97   ar
    37   139   136    1
    38   139   140    1
    39   137   136    1
    40   137   138    2
    41    58    57    1
    42    58    61    1
    43   142   140   ar
    44   142   144   ar
    45    97    98   ar
    46    68    67    1
    47    68    71    1
    48   105   106    1
    49   140   141   ar
    50   144   145   ar
    51    64    66   ar
    52    64    62   ar
    53    75    76    1
    54   151   152    1
    55   151   148    1
    56    66    65   ar
    57   106   107   ar
    58   106   108   ar
    59    78    77    2
    60    62    61    1
    61    62    63   ar
    62   129   130    1
    63    79    76    1
    64    79    80    1
    65    71    72    1
    66   152   153    1
    67    65    63   ar
    68   130   131    1
    69    76    77    1
    70    80    81    1
    71   153   154    1
    72   141   143   ar
    73   145   143   ar
    74   145   146    1
    75   154   155    1
    76   149   148    1
    77   149   150    2
    78   148   147    1
    79   172   171   ar
    80    47    46    2
    81    74    72    1
    82    72    73    1
    83    52    51    2
    84   131   132    2
    85   173   171   ar
    86   171   170    1
    87    81    83   ar
    88    81    82   ar
    89    51    50    1
    90    46    45    1
    91    46    49   am
    92    45    44    1
    93    45    48    1
    94   133   132    1
    95   132   134    1
    96    86    87    2
    97    86    85    1
    98    49    50    1
    99    50    53    1
   100   170   169    1
   101   169   166    1
   102    85    88    1
   103    85    84    1
   104    91    89    1
   105   156   157    1
   106    88    89    1
   107    55    53    1
   108    53    54    1
   109   158   157    1
   110   158   159    2
   111   168   167    2
   112    89    90    1
   113   166   165    1
   114   166   167    1
   115   157   160    1
   116   160   161    1
   117    54    56    1
   118    38    37    2
   119   161   162    1
   120   162   163    1
   121    37    36    1
   122    36    35    1
   123    36    39    1
   124   163   164    1
   125     5     2    1
   126    39    40    1
   127    40    41    1
   128     2     1    1
   129     2     3    1
   130    42    41    1
   131    42    43    1
   132    12    11    1
   133    12    13    1
   134    11    10    1
   135     3     6   am
   136     3     4    2
   137     6     7    1
   138    25    24    1
   139    23    24   ar
   140    23    21   ar
   141    10     7    1
   142     7     8    1
   143    24    22   ar
   144    21    19   ar
   145    33    32   ar
   146    22    20   ar
   147     8     9    2
   148    19    20   ar
   149    19    18    1
   150    34    32   ar
   151    32    31    1
   152    18    15    1
   153    30    31    1
   154    30    27    1
   155    14    15    1
   156    29    28    2
   157    15    16    1
   158    28    27    1
   159    27    26    1
   160    16    17    2
