@<TRIPOS>MOLECULE
tmp/4awpB00.pdb
 241 232 0 0 0
SMALL
GASTEIGER

@<TRIPOS>ATOM
      1  N         13.2030   11.4090   -4.4990 N.3     4  PHE4       -0.1227
      2  CA        13.4750   10.6680   -5.7250 C.3     4  PHE4        0.1736
      3  C         12.4470   10.9410   -6.8110 C.2     4  PHE4        0.2595
      4  O         11.2440   11.0610   -6.5310 O.2     4  PHE4       -0.2718
      5  CB        13.4890    9.1450   -5.4520 C.3     4  PHE4        0.0547
      6  CG        14.5460    8.7090   -4.4530 C.ar    4  PHE4       -0.0202
      7  CD1       15.8330    8.3830   -4.8820 C.ar    4  PHE4       -0.0042
      8  CD2       14.2500    8.6420   -3.0980 C.ar    4  PHE4       -0.0042
      9  CE1       16.8110    8.0090   -3.9610 C.ar    4  PHE4       -0.0003
     10  CE2       15.2270    8.2530   -2.1780 C.ar    4  PHE4       -0.0003
     11  CZ        16.4790    7.9530   -2.5970 C.ar    4  PHE4       -0.0000
     12  N         12.9130   10.9980   -8.0570 N.am    5  ALA5       -0.1966
     13  CA        11.9940   11.0460   -9.2050 C.3     5  ALA5        0.1728
     14  C         11.2630    9.6810   -9.3690 C.2     5  ALA5        0.2616
     15  O         11.8930    8.6290   -9.2520 O.2     5  ALA5       -0.2715
     16  CB        12.7970   11.3700  -10.4850 C.3     5  ALA5        0.0334
     17  N          9.9570    9.6990   -9.6620 N.am    6  PHE6       -0.1960
     18  CA         9.2730    8.5030  -10.1530 C.3     6  PHE6        0.1771
     19  C          9.7740    8.0640  -11.5280 C.2     6  PHE6        0.2619
     20  O         10.2250    8.8960  -12.3190 O.2     6  PHE6       -0.2715
     21  CB         7.7540    8.7290  -10.2470 C.3     6  PHE6        0.0574
     22  CG         7.0530    8.5430   -8.9600 C.ar    6  PHE6       -0.0200
     23  CD1        6.9130    7.2700   -8.4140 C.ar    6  PHE6       -0.0042
     24  CD2        6.5300    9.6430   -8.2840 C.ar    6  PHE6       -0.0042
     25  CE1        6.2820    7.0710   -7.1860 C.ar    6  PHE6       -0.0003
     26  CE2        5.8230    9.4620   -7.0550 C.ar    6  PHE6       -0.0003
     27  CZ         5.7310    8.1670   -6.4890 C.ar    6  PHE6       -0.0000
     28  N          9.6510    6.7620  -11.7930 N.am    7  GLN7       -0.1977
     29  CA         9.8230    6.1750  -13.1050 C.3     7  GLN7        0.1601
     30  C          8.8220    6.8790  -13.9870 C.2     7  GLN7        0.2287
     31  O          7.6710    7.0910  -13.5720 O.2     7  GLN7       -0.2864
     32  CB         9.5200    4.6750  -13.0670 C.3     7  GLN7        0.0394
     33  CG         9.7980    3.9450  -14.3820 C.3     7  GLN7        0.0908
     34  CD         9.6920    2.4540  -14.2230 C.2     7  GLN7        0.2608
     35  OE1        8.8150    1.9590  -13.4940 O.2     7  GLN7       -0.2717
     36  NE2       10.6030    1.7120  -14.8740 N.am    7  GLN7       -0.0878
     37  N          5.3700    5.5160  -14.2810 N.3    10  ILE10      -0.1245
     38  CA         4.6270    5.6650  -13.0130 C.3    10  ILE10       0.1561
     39  C          4.1560    7.0900  -12.7890 C.2    10  ILE10       0.2260
     40  O          3.0130    7.3060  -12.3370 O.2    10  ILE10      -0.2867
     41  CB         5.4100    5.1650  -11.7870 C.3    10  ILE10       0.0252
     42  CG1        5.7250    3.6450  -11.9230 C.3    10  ILE10       0.0019
     43  CG2        4.6640    5.5640  -10.4380 C.3    10  ILE10       0.0019
     44  CD1        4.4400    2.7110  -11.9700 C.3    10  ILE10       0.0001
     45  N         -5.3000   -2.7160   -2.2790 N.3    32  LEU32      -0.1245
     46  CA        -4.4600   -2.6410   -1.0590 C.3    32  LEU32       0.1561
     47  C         -4.5550   -3.9250   -0.2470 C.2    32  LEU32       0.2260
     48  O         -3.5270   -4.4520    0.2370 O.2    32  LEU32      -0.2867
     49  CB        -4.7840   -1.4060   -0.2100 C.3    32  LEU32       0.0270
     50  CG        -4.6010   -0.0630   -0.9710 C.3    32  LEU32       0.0019
     51  CD1       -4.8800    1.0770   -0.0170 C.3    32  LEU32       0.0001
     52  CD2       -3.2020    0.1590   -1.6190 C.3    32  LEU32       0.0001
     53  N         -2.6660   -6.7630   -2.1220 N.3    35  ASN35      -0.1225
     54  CA        -1.2080   -6.5870   -1.8250 C.3    35  ASN35       0.1785
     55  C         -0.8120   -7.1070   -0.4490 C.2    35  ASN35       0.2597
     56  O          0.2480   -7.7750   -0.2830 O.2    35  ASN35      -0.2718
     57  CB        -0.8040   -5.1150   -1.9650 C.3    35  ASN35       0.1169
     58  CG        -0.6570   -4.6780   -3.4380 C.2    35  ASN35       0.2627
     59  OD1       -0.6340   -5.5070   -4.3510 O.2    35  ASN35      -0.2716
     60  ND2       -0.5520   -3.3650   -3.6620 N.am   35  ASN35      -0.0877
     61  N         -1.6180   -6.7560    0.5580 N.am   36  SER36      -0.1952
     62  CA        -1.4030   -7.2590    1.9160 C.3    36  SER36       0.1924
     63  C         -1.4610   -8.8080    1.9330 C.2    36  SER36       0.2314
     64  O         -0.5770   -9.4480    2.5110 O.2    36  SER36      -0.2863
     65  CB        -2.4390   -6.6390    2.9000 C.3    36  SER36       0.2116
     66  OG        -2.2400   -5.2550    3.0760 O.3    36  SER36      -0.2180
     67  N         -0.8690  -10.8790   -0.4450 N.3    38  ASP38      -0.1225
     68  CA         0.2950  -11.3770   -1.1820 C.3    38  ASP38       0.1805
     69  C          1.5660  -11.3380   -0.2930 C.2    38  ASP38       0.2597
     70  O          2.2910  -12.3370   -0.2600 O.2    38  ASP38      -0.2718
     71  CB         0.5290  -10.6230   -2.4970 C.3    38  ASP38       0.1424
     72  CG        -0.5370  -10.9120   -3.5620 C.2    38  ASP38       0.3668
     73  OD1       -1.3520  -11.8020   -3.3430 O.co2  38  ASP38      -0.2456
     74  OD2       -0.5190  -10.2610   -4.6280 O.co2  38  ASP38      -0.2456
     75  N          1.7910  -10.2150    0.3910 N.am   39  ALA39      -0.1979
     76  CA         2.8860  -10.0150    1.3800 C.3    39  ALA39       0.1597
     77  C          2.8430  -11.0180    2.5680 C.2    39  ALA39       0.2287
     78  O          3.8780  -11.4540    3.1210 O.2    39  ALA39      -0.2864
     79  CB         2.8650   -8.6030    1.8880 C.3    39  ALA39       0.0319
     80  N          3.8410  -14.4270    1.3430 N.3    42  LYS42      -0.1245
     81  CA         5.3150  -14.4590    1.1940 C.3    42  LYS42       0.1561
     82  C          6.0350  -14.7740    2.4960 C.2    42  LYS42       0.2260
     83  O          6.8560  -15.6680    2.5290 O.2    42  LYS42      -0.2867
     84  CB         5.8760  -13.1860    0.5450 C.3    42  LYS42       0.0271
     85  CG         5.6580  -13.1520   -0.9720 C.3    42  LYS42       0.0035
     86  CD         6.2580  -11.8520   -1.5330 C.3    42  LYS42       0.0206
     87  CE         6.1920  -11.8160   -3.0510 C.3    42  LYS42       0.1093
     88  NZ         4.7980  -11.4980   -3.5780 N.3    42  LYS42      -0.1314
     89  N         -0.7600   -4.5430    7.6850 N.3    77  ASP77      -0.1239
     90  CA        -0.6020   -5.9870    7.6480 C.3    77  ASP77       0.1674
     91  C          0.7340   -6.3670    8.3120 C.2    77  ASP77       0.2266
     92  O          1.5730   -5.4780    8.5930 O.2    77  ASP77      -0.2867
     93  CB        -0.7140   -6.5160    6.2360 C.3    77  ASP77       0.1410
     94  CG         0.4880   -6.0870    5.3490 C.2    77  ASP77       0.3668
     95  OD1        1.6120   -6.6190    5.5910 O.co2  77  ASP77      -0.2456
     96  OD2        0.2870   -5.2480    4.4500 O.co2  77  ASP77      -0.2456
     97  N          5.4150   -9.5770    4.6420 N.3    80  ILE80      -0.1231
     98  CA         6.9060   -9.6220    4.5830 C.3    80  ILE80       0.1692
     99  C          7.5430   -8.2140    4.6960 C.2    80  ILE80       0.2593
    100  O          8.6640   -8.0670    5.1910 O.2    80  ILE80      -0.2718
    101  CB         7.3670  -10.4250    3.3130 C.3    80  ILE80       0.0266
    102  CG1        8.8570  -10.8880    3.4010 C.3    80  ILE80       0.0019
    103  CG2        6.9280   -9.6710    1.9930 C.3    80  ILE80       0.0020
    104  CD1        9.2780  -11.7750    2.2450 C.3    80  ILE80       0.0001
    105  N          6.8100   -7.1830    4.2700 N.am   81  GLY81      -0.1942
    106  CA         7.3050   -5.7890    4.3040 C.3    81  GLY81       0.2014
    107  C          8.1540   -5.4630    3.0820 C.2    81  GLY81       0.2638
    108  O          8.2810   -6.2880    2.1720 O.2    81  GLY81      -0.2714
    109  N          8.7610   -4.2730    3.0760 N.am   82  MET82      -0.1976
    110  CA         9.6200   -3.8450    1.9900 C.3    82  MET82       0.1605
    111  C         10.9220   -3.3120    2.6180 C.2    82  MET82       0.2287
    112  O         10.9120   -2.7550    3.7260 O.2    82  MET82      -0.2864
    113  CB         8.9610   -2.7580    1.1320 C.3    82  MET82       0.0413
    114  CG         7.7320   -3.2870    0.3100 C.3    82  MET82       0.0598
    115  SD         6.6450   -1.9720   -0.2020 S.3    82  MET82      -0.1393
    116  CE         5.6350   -1.7170    1.2290 C.3    82  MET82       0.0692
    117  N         13.5560   -1.8100   -2.0890 N.3    86  ASP86      -0.1225
    118  CA        12.1870   -1.9310   -2.6610 C.3    86  ASP86       0.1805
    119  C         11.5340   -0.5480   -2.7730 C.2    86  ASP86       0.2598
    120  O         10.7860   -0.2690   -3.7200 O.2    86  ASP86      -0.2718
    121  CB        11.3070   -2.7960   -1.7510 C.3    86  ASP86       0.1424
    122  CG        11.7280   -4.2820   -1.7090 C.2    86  ASP86       0.3668
    123  OD1       12.2660   -4.8160   -2.7080 O.co2  86  ASP86      -0.2456
    124  OD2       11.4870   -4.9330   -0.6640 O.co2  86  ASP86      -0.2456
    125  N         11.7450    0.2880   -1.7450 N.am   87  LEU87      -0.1966
    126  CA        11.0860    1.6280   -1.6510 C.3    87  LEU87       0.1728
    127  C         11.6570    2.6470   -2.6530 C.2    87  LEU87       0.2616
    128  O         10.9670    3.5890   -3.1000 O.2    87  LEU87      -0.2715
    129  CB        11.1440    2.1580   -0.2210 C.3    87  LEU87       0.0311
    130  CG        10.3270    1.4150    0.8390 C.3    87  LEU87       0.0022
    131  CD1       10.5210    2.0890    2.1150 C.3    87  LEU87       0.0001
    132  CD2        8.7900    1.3280    0.4920 C.3    87  LEU87       0.0001
    133  N         12.9050    2.4270   -3.0340 N.am   88  ILE88      -0.1963
    134  CA        13.6010    3.3160   -3.9790 C.3    88  ILE88       0.1727
    135  C         13.5330    2.8060   -5.4180 C.2    88  ILE88       0.2616
    136  O         13.2310    3.6000   -6.3310 O.2    88  ILE88      -0.2715
    137  CB        15.0880    3.5860   -3.5600 C.3    88  ILE88       0.0290
    138  CG1       15.1430    4.3760   -2.2470 C.3    88  ILE88       0.0022
    139  CG2       15.8790    4.2860   -4.7290 C.3    88  ILE88       0.0023
    140  CD1       16.5210    4.5110   -1.6700 C.3    88  ILE88       0.0001
    141  N         13.8250    1.5070   -5.5970 N.am   89  ASN89      -0.1958
    142  CA        13.8890    0.8560   -6.9080 C.3    89  ASN89       0.1819
    143  C         12.5340    0.4030   -7.3870 C.2    89  ASN89       0.2621
    144  O         12.4000    0.0180   -8.5240 O.2    89  ASN89      -0.2715
    145  CB        14.7680   -0.3710   -6.8580 C.3    89  ASN89       0.1195
    146  CG        16.2130   -0.0330   -6.6100 C.2    89  ASN89       0.2630
    147  OD1       16.6750    1.0680   -6.9620 O.2    89  ASN89      -0.2716
    148  ND2       16.9370   -0.9670   -6.0020 N.am   89  ASN89      -0.0877
    149  N         11.5480    0.4150   -6.4900 N.am   90  ASN90      -0.1958
    150  CA        10.2630   -0.2370   -6.7090 C.3    90  ASN90       0.1819
    151  C         10.3890   -1.7940   -6.6820 C.2    90  ASN90       0.2621
    152  O         11.5050   -2.3490   -6.5550 O.2    90  ASN90      -0.2715
    153  CB         9.5310    0.3330   -7.9230 C.3    90  ASN90       0.1195
    154  CG         7.9930    0.2840   -7.7850 C.2    90  ASN90       0.2630
    155  OD1        7.4510   -0.3390   -6.8680 O.2    90  ASN90      -0.2716
    156  ND2        7.3040    0.9170   -8.7250 N.am   90  ASN90      -0.0877
    157  N          9.2450   -2.4770   -6.6810 N.am   91  LEU91      -0.1977
    158  CA         9.1910   -3.9370   -6.6500 C.3    91  LEU91       0.1596
    159  C          9.3770   -4.5010   -8.0690 C.2    91  LEU91       0.2287
    160  O          8.9110   -3.9120   -9.0520 O.2    91  LEU91      -0.2864
    161  CB         7.8860   -4.4350   -6.0160 C.3    91  LEU91       0.0297
    162  CG         7.5020   -3.9920   -4.6040 C.3    91  LEU91       0.0022
    163  CD1        6.1060   -4.5050   -4.2710 C.3    91  LEU91       0.0001
    164  CD2        8.5120   -4.4530   -3.5690 C.3    91  LEU91       0.0001
    165  N          6.6100   -4.5760  -10.4740 N.3    94  ILE94      -0.1245
    166  CA         6.1510   -3.3150  -11.0440 C.3    94  ILE94       0.1561
    167  C          7.2070   -2.8560  -12.0450 C.2    94  ILE94       0.2260
    168  O          8.3380   -2.4940  -11.6750 O.2    94  ILE94      -0.2867
    169  CB         5.7930   -2.2070   -9.9970 C.3    94  ILE94       0.0252
    170  CG1        4.8280   -2.7430   -8.9130 C.3    94  ILE94       0.0019
    171  CG2        5.2230   -0.9770  -10.7380 C.3    94  ILE94       0.0019
    172  CD1        4.7200   -1.8780   -7.6160 C.3    94  ILE94       0.0001
    173  N         -1.4950   -0.7540   -6.3940 N.3   119  PHE119     -0.1227
    174  CA        -1.1870    0.1980   -5.3590 C.3   119  PHE119      0.1736
    175  C         -1.5990    1.6350   -5.7110 C.2   119  PHE119      0.2595
    176  O         -2.1250    2.3230   -4.8830 O.2   119  PHE119     -0.2718
    177  CB         0.3270    0.2120   -5.0140 C.3   119  PHE119      0.0547
    178  CG         0.6940    1.3720   -4.1760 C.ar  119  PHE119     -0.0202
    179  CD1        0.3490    1.4060   -2.8060 C.ar  119  PHE119     -0.0042
    180  CD2        1.2890    2.5040   -4.7480 C.ar  119  PHE119     -0.0042
    181  CE1        0.6620    2.5220   -2.0130 C.ar  119  PHE119     -0.0003
    182  CE2        1.6010    3.6200   -3.9610 C.ar  119  PHE119     -0.0003
    183  CZ         1.2790    3.6320   -2.5960 C.ar  119  PHE119     -0.0000
    184  N         -1.3570    2.0520   -6.9530 N.am  120  TYR120     -0.1976
    185  CA        -1.4630    3.4590   -7.3480 C.3   120  TYR120      0.1639
    186  C         -2.9350    3.9010   -7.4050 C.2   120  TYR120      0.2290
    187  O         -3.2140    5.1090   -7.4240 O.2   120  TYR120     -0.2864
    188  CB        -0.6910    3.6850   -8.6890 C.3   120  TYR120      0.0560
    189  CG         0.8000    3.4260   -8.5130 C.ar  120  TYR120     -0.0198
    190  CD1        1.6300    4.3880   -7.9490 C.ar  120  TYR120     -0.0009
    191  CD2        1.3570    2.1980   -8.8870 C.ar  120  TYR120     -0.0009
    192  CE1        3.0230    4.1290   -7.7450 C.ar  120  TYR120      0.0417
    193  CE2        2.7440    1.9140   -8.6770 C.ar  120  TYR120      0.0417
    194  CZ         3.5530    2.8880   -8.1150 C.ar  120  TYR120      0.1957
    195  OH         4.8830    2.6000   -7.9420 O.3   120  TYR120     -0.2866
    196  N          3.6480    5.2980    3.3580 N.3   131  VAL131     -0.1245
    197  CA         3.8280    3.8530    3.5460 C.3   131  VAL131      0.1561
    198  C          4.9140    3.6280    4.5830 C.2   131  VAL131      0.2260
    199  O          6.0530    4.0560    4.3840 O.2   131  VAL131     -0.2867
    200  CB         4.1390    3.1150    2.2230 C.3   131  VAL131      0.0252
    201  CG1        4.4400    1.6080    2.4980 C.3   131  VAL131      0.0019
    202  CG2        2.9800    3.2760    1.1690 C.3   131  VAL131      0.0019
    203  N          7.9870    5.7970    3.3200 N.3   143  TRP143     -0.1241
    204  CA         7.8980    6.2610    1.9420 C.3   143  TRP143      0.1605
    205  C          6.6490    7.1280    1.8700 C.2   143  TRP143      0.2264
    206  O          5.6380    6.8040    2.4660 O.2   143  TRP143     -0.2867
    207  CB         7.7370    5.0570    1.0120 C.3   143  TRP143      0.0550
    208  CG         7.5260    5.2720   -0.4660 C.ar  143  TRP143      0.0003
    209  CD1        8.4720    5.0540   -1.4580 C.ar  143  TRP143      0.0946
    210  CD2        6.3010    5.6150   -1.1650 C.ar  143  TRP143      0.0152
    211  NE1        7.9190    5.2770   -2.6960 N.ar  143  TRP143     -0.2442
    212  CE2        6.6030    5.6130   -2.5570 C.ar  143  TRP143      0.0810
    213  CE3        4.9950    5.9550   -0.7560 C.ar  143  TRP143      0.0012
    214  CZ2        5.6490    5.9390   -3.5480 C.ar  143  TRP143      0.0191
    215  CZ3        4.0250    6.3120   -1.7630 C.ar  143  TRP143      0.0001
    216  CH2        4.3650    6.2790   -3.1290 C.ar  143  TRP143      0.0015
    217  N          8.7830   11.1240   -4.9340 N.3   151  PHE151     -0.1241
    218  CA         8.4690   10.5540   -3.6110 C.3   151  PHE151      0.1605
    219  C          9.6150   10.7580   -2.6440 C.2   151  PHE151      0.2264
    220  O         10.7310   11.1300   -3.0790 O.2   151  PHE151     -0.2867
    221  CB         8.0890    9.0730   -3.7090 C.3   151  PHE151      0.0534
    222  CG         9.1800    8.1900   -4.2680 C.ar  151  PHE151     -0.0203
    223  CD1        9.2920    7.9720   -5.6210 C.ar  151  PHE151     -0.0042
    224  CD2       10.1020    7.5580   -3.3890 C.ar  151  PHE151     -0.0042
    225  CE1       10.3210    7.1220   -6.1580 C.ar  151  PHE151     -0.0003
    226  CE2       11.1430    6.7510   -3.8830 C.ar  151  PHE151     -0.0003
    227  CZ        11.2600    6.5080   -5.2740 C.ar  151  PHE151     -0.0000
    228  N          3.5600   -3.8550    6.8660 N.3   165  THR165     -0.1218
    229  CA         3.4170   -2.5620    6.2200 C.3   165  THR165      0.1862
    230  C          2.1260   -1.8690    6.6570 C.2   165  THR165      0.2287
    231  O          1.0740   -2.5480    6.7880 O.2   165  THR165     -0.2866
    232  CB         3.3670   -2.7790    4.6860 C.3   165  THR165      0.1770
    233  OG1        4.5620   -3.4450    4.2640 O.3   165  THR165     -0.2211
    234  CG2        3.1490   -1.4550    3.8800 C.3   165  THR165      0.0375
    235  N         -0.2390    1.1810    5.1260 N.3   167  VAL167     -0.1245
    236  CA        -0.5270    2.1270    4.0410 C.3   167  VAL167      0.1561
    237  C         -1.5240    3.1980    4.5500 C.2   167  VAL167      0.2260
    238  O         -2.6840    2.9100    4.7790 O.2   167  VAL167     -0.2867
    239  CB        -1.0570    1.4540    2.7500 C.3   167  VAL167      0.0252
    240  CG1       -1.4930    2.4940    1.6780 C.3   167  VAL167      0.0019
    241  CG2       -0.0280    0.4620    2.1710 C.3   167  VAL167      0.0019
@<TRIPOS>BOND
     1    36    34   am
     2    33    34    1
     3    33    32    1
     4    37    38    1
     5    34    35    2
     6    30    31    2
     7    30    29    1
     8    29    32    1
     9    29    28    1
    10    38    39    1
    11    38    41    1
    12    39    40    2
    13    20    19    2
    14   167   168    2
    15   167   166    1
    16    44    42    1
    17    42    41    1
    18    28    19   am
    19    41    43    1
    20    19    18    1
    21   166   165    1
    22   166   169    1
    23   171   169    1
    24    16    13    1
    25    21    18    1
    26    21    22    1
    27    18    17    1
    28   169   170    1
    29    17    14   am
    30    14    15    2
    31    14    13    1
    32    13    12    1
    33   160   159    2
    34    22    23   ar
    35    22    24   ar
    36   170   172    1
    37   191   193   ar
    38   191   189   ar
    39   156   154   am
    40   188   189    1
    41   188   185    1
    42   193   194   ar
    43   144   143    2
    44   189   190   ar
    45    23    25   ar
    46    24    26   ar
    47   194   195    1
    48   194   192   ar
    49   159   158    1
    50    12     3   am
    51   190   192   ar
    52   153   154    1
    53   153   150    1
    54   154   155    2
    55   187   186    2
    56   186   185    1
    57   143   142    1
    58   143   149   am
    59   185   184    1
    60    25    27   ar
    61    26    27   ar
    62   147   146    2
    63   184   175   am
    64   142   145    1
    65   142   141    1
    66   145   146    1
    67     3     4    2
    68     3     2    1
    69   150   151    1
    70   150   149    1
    71   151   157   am
    72   151   152    2
    73   157   158    1
    74   158   161    1
    75   146   148   am
    76   173   174    1
    77   136   135    2
    78   225   223   ar
    79   225   227   ar
    80   161   162    1
    81     2     5    1
    82     2     1    1
    83   175   174    1
    84   175   176    2
    85   223   222   ar
    86   141   135   am
    87     5     6    1
    88   135   134    1
    89   174   177    1
    90   227   226   ar
    91   177   178    1
    92   217   218    1
    93     7     6   ar
    94     7     9   ar
    95   180   178   ar
    96   180   182   ar
    97   139   137    1
    98    74    72   ar
    99   162   163    1
   100   162   164    1
   101     6     8   ar
   102    59    58    2
   103   222   221    1
   104   222   224   ar
   105   178   179   ar
   106   134   137    1
   107   134   133    1
   108     9    11   ar
   109   182   183   ar
   110   226   224   ar
   111   120   119    2
   112   221   218    1
   113    60    58   am
   114   218   219    1
   115    88    87    1
   116    72    73   ar
   117    72    71    1
   118   137   138    1
   119   214   216   ar
   120   214   212   ar
   121    58    57    1
   122   216   215   ar
   123   128   127    2
   124     8    10   ar
   125   220   219    2
   126    87    86    1
   127   133   127   am
   128   179   181   ar
   129   119   118    1
   130   119   125   am
   131   123   122   ar
   132   211   212   ar
   133   211   209   ar
   134   118   117    1
   135   118   121    1
   136   127   126    1
   137    11    10   ar
   138   183   181   ar
   139   212   210   ar
   140    71    68    1
   141    45    46    1
   142   138   140    1
   143    53    54    1
   144    57    54    1
   145    54    55    1
   146   215   213   ar
   147   121   122    1
   148   125   126    1
   149   122   124   ar
   150   126   129    1
   151    52    50    1
   152    86    85    1
   153   209   208   ar
   154    68    67    1
   155    68    69    1
   156   210   213   ar
   157   210   208   ar
   158    46    47    1
   159    46    49    1
   160    85    84    1
   161    50    49    1
   162    50    51    1
   163   208   207    1
   164    55    56    2
   165    55    61   am
   166    69    70    2
   167    69    75   am
   168    47    48    2
   169   129   130    1
   170   115   114    1
   171   115   116    1
   172   114   113    1
   173    75    76    1
   174   132   130    1
   175    84    81    1
   176    61    62    1
   177   130   131    1
   178   207   204    1
   179   113   110    1
   180   202   200    1
   181    81    80    1
   182    81    82    1
   183    76    79    1
   184    76    77    1
   185   240   239    1
   186   205   204    1
   187   205   206    2
   188    62    63    1
   189    62    65    1
   190    63    64    2
   191   204   203    1
   192   110   111    1
   193   110   109    1
   194   103   101    1
   195   241   239    1
   196   108   107    2
   197   200   201    1
   198   200   197    1
   199   104   102    1
   200    82    83    2
   201    77    78    2
   202   111   112    2
   203   239   236    1
   204    65    66    1
   205   109   107   am
   206   107   106    1
   207   101   102    1
   208   101    98    1
   209   196   197    1
   210   197   198    1
   211   234   232    1
   212   236   237    1
   213   236   235    1
   214   233   232    1
   215   105   106    1
   216   105    99   am
   217   199   198    2
   218    96    94   ar
   219   237   238    2
   220    98    97    1
   221    98    99    1
   222   232   229    1
   223    99   100    2
   224    94    95   ar
   225    94    93    1
   226   229   230    1
   227   229   228    1
   228    93    90    1
   229   230   231    2
   230    90    89    1
   231    90    91    1
   232    91    92    2
