@<TRIPOS>MOLECULE
tmp/4awqA00.pdb
 212 204 0 0 0
SMALL
GASTEIGER

@<TRIPOS>ATOM
      1  N         -6.3940    2.8800  -17.0550 N.3     4  PHE4       -0.1227
      2  CA        -6.1610    4.3170  -16.9850 C.3     4  PHE4        0.1736
      3  C         -4.6740    4.6720  -17.0350 C.2     4  PHE4        0.2595
      4  O         -3.8520    3.9270  -16.5400 O.2     4  PHE4       -0.2718
      5  CB        -6.6820    4.8760  -15.6550 C.3     4  PHE4        0.0547
      6  CG        -8.1480    4.6580  -15.4440 C.ar    4  PHE4       -0.0202
      7  CD1       -8.5830    3.4840  -14.8880 C.ar    4  PHE4       -0.0042
      8  CD2       -9.0620    5.6520  -15.7890 C.ar    4  PHE4       -0.0042
      9  CE1       -9.9670    3.2420  -14.7280 C.ar    4  PHE4       -0.0003
     10  CE2      -10.4160    5.4250  -15.6060 C.ar    4  PHE4       -0.0003
     11  CZ       -10.8340    4.2100  -15.0610 C.ar    4  PHE4       -0.0000
     12  N         -4.3520    5.8100  -17.6320 N.am    5  ALA5       -0.1966
     13  CA        -2.9820    6.3650  -17.5490 C.3     5  ALA5        0.1728
     14  C         -2.7720    7.0510  -16.2050 C.2     5  ALA5        0.2616
     15  O         -3.6510    7.7920  -15.7400 O.2     5  ALA5       -0.2715
     16  CB        -2.7830    7.3840  -18.6690 C.3     5  ALA5        0.0334
     17  N         -1.5640    6.8940  -15.6220 N.am    6  PHE6       -0.1960
     18  CA        -1.2590    7.6350  -14.4020 C.3     6  PHE6        0.1771
     19  C         -1.2030    9.1330  -14.7110 C.2     6  PHE6        0.2619
     20  O         -0.8380    9.5510  -15.8280 O.2     6  PHE6       -0.2715
     21  CB         0.1030    7.2000  -13.8350 C.3     6  PHE6        0.0574
     22  CG         0.0370    5.9490  -13.0290 C.ar    6  PHE6       -0.0200
     23  CD1       -0.5520    5.9570  -11.7360 C.ar    6  PHE6       -0.0042
     24  CD2        0.5510    4.7470  -13.5280 C.ar    6  PHE6       -0.0042
     25  CE1       -0.6620    4.7410  -10.9800 C.ar    6  PHE6       -0.0003
     26  CE2        0.4780    3.5770  -12.7710 C.ar    6  PHE6       -0.0003
     27  CZ        -0.1110    3.5670  -11.5100 C.ar    6  PHE6       -0.0000
     28  N         -1.5290    9.9390  -13.7040 N.am    7  GLN7       -0.1977
     29  CA        -1.1910   11.3510  -13.7130 C.3     7  GLN7        0.1601
     30  C          0.3090   11.4290  -14.0410 C.2     7  GLN7        0.2287
     31  O          1.1020   10.6070  -13.5180 O.2     7  GLN7       -0.2864
     32  CB        -1.4580   11.9650  -12.3360 C.3     7  GLN7        0.0394
     33  CG        -1.1470   13.4710  -12.2830 C.3     7  GLN7        0.0908
     34  CD        -1.5200   14.0780  -10.9670 C.2     7  GLN7        0.2608
     35  OE1       -1.9800   15.2320  -10.9020 O.2     7  GLN7       -0.2717
     36  NE2       -1.3540   13.3120   -9.9040 N.am    7  GLN7       -0.0878
     37  N          2.9030   11.2210  -11.2380 N.3    10  ILE10      -0.1245
     38  CA         2.9470    9.8960  -10.6270 C.3    10  ILE10       0.1561
     39  C          3.6950    8.8950  -11.5330 C.2    10  ILE10       0.2260
     40  O          4.4890    8.0590  -11.0340 O.2    10  ILE10      -0.2867
     41  CB         1.5360    9.3880  -10.2720 C.3    10  ILE10       0.0252
     42  CG1        0.8920   10.3070   -9.1990 C.3    10  ILE10       0.0019
     43  CG2        1.5420    7.9390   -9.7880 C.3    10  ILE10       0.0019
     44  CD1        1.7010   10.3590   -7.8450 C.3    10  ILE10       0.0001
     45  N          3.4320    1.9350    4.1580 N.3    32  LEU32      -0.1245
     46  CA         2.1580    1.1580    4.0330 C.3    32  LEU32       0.1561
     47  C          1.4580    1.0970    5.4100 C.2    32  LEU32       0.2260
     48  O          0.2350    1.3750    5.5370 O.2    32  LEU32      -0.2867
     49  CB         2.3720   -0.2320    3.4490 C.3    32  LEU32       0.0270
     50  CG         2.9680   -0.1850    2.0200 C.3    32  LEU32       0.0019
     51  CD1        3.0780   -1.6120    1.5470 C.3    32  LEU32       0.0001
     52  CD2        2.0330    0.5740    1.0840 C.3    32  LEU32       0.0001
     53  N         -0.0420    4.5050    6.2590 N.3    35  ASN35      -0.1225
     54  CA        -1.3080    4.6850    5.4740 C.3    35  ASN35       0.1785
     55  C         -2.4740    3.9050    6.0980 C.2    35  ASN35       0.2597
     56  O         -3.5980    4.4770    6.2110 O.2    35  ASN35      -0.2718
     57  CB        -1.0920    4.2550    4.0140 C.3    35  ASN35       0.1169
     58  CG        -0.2840    5.2520    3.2060 C.2    35  ASN35       0.2627
     59  OD1       -0.0590    6.4090    3.5960 O.2    35  ASN35      -0.2716
     60  ND2        0.1190    4.8020    2.0400 N.am   35  ASN35      -0.0877
     61  N         -2.1920    2.6800    6.5540 N.am   36  SER36      -0.1952
     62  CA        -3.1810    1.8320    7.2400 C.3    36  SER36       0.1924
     63  C         -3.6180    2.5280    8.5630 C.2    36  SER36       0.2314
     64  O         -4.8350    2.6580    8.8370 O.2    36  SER36      -0.2863
     65  CB        -2.6530    0.4140    7.4750 C.3    36  SER36       0.2116
     66  OG        -2.5590   -0.2230    6.2260 O.3    36  SER36      -0.2180
     67  N         -5.8150    5.3820    7.8260 N.3    39  ALA39      -0.1245
     68  CA        -7.1580    4.8770    7.3650 C.3    39  ALA39       0.1562
     69  C         -7.9950    4.4010    8.5680 C.2    39  ALA39       0.2260
     70  O         -9.2670    4.5360    8.5810 O.2    39  ALA39      -0.2867
     71  CB        -6.9470    3.7220    6.4150 C.3    39  ALA39       0.0290
     72  N         -5.6850   -3.7900    6.3170 N.3    77  ASP77      -0.1239
     73  CA        -6.1660   -3.0160    7.4170 C.3    77  ASP77       0.1674
     74  C         -7.6920   -2.9470    7.3130 C.2    77  ASP77       0.2266
     75  O         -8.2520   -3.1430    6.2400 O.2    77  ASP77      -0.2867
     76  CB        -5.5350   -1.6280    7.4460 C.3    77  ASP77       0.1410
     77  CG        -5.9790   -0.7580    6.2420 C.2    77  ASP77       0.3668
     78  OD1       -7.2020   -0.3750    6.1830 O.co2  77  ASP77      -0.2456
     79  OD2       -5.1200   -0.4530    5.3790 O.co2  77  ASP77      -0.2456
     80  N        -11.3660    2.7460    0.2820 N.3    82  MET82      -0.1245
     81  CA       -11.3860    3.6950   -0.7920 C.3    82  MET82       0.1570
     82  C        -12.5630    3.3960   -1.7630 C.2    82  MET82       0.2261
     83  O        -12.8660    2.2220   -2.0640 O.2    82  MET82      -0.2867
     84  CB       -10.0570    3.6560   -1.5610 C.3    82  MET82       0.0387
     85  CG        -9.0030    4.3810   -0.7690 C.3    82  MET82       0.0595
     86  SD        -7.3100    3.9850   -1.3140 S.3    82  MET82      -0.1393
     87  CE        -7.1660    2.2810   -0.7940 C.3    82  MET82       0.0692
     88  N        -11.9830    7.3700   -5.6410 N.3    86  ASP86      -0.1225
     89  CA       -10.6260    7.4020   -5.0300 C.3    86  ASP86       0.1805
     90  C         -9.6190    6.6440   -5.9140 C.2    86  ASP86       0.2598
     91  O         -8.4720    7.0780   -6.0830 O.2    86  ASP86      -0.2718
     92  CB       -10.5840    6.7520   -3.6300 C.3    86  ASP86       0.1424
     93  CG       -11.3390    7.5790   -2.5450 C.2    86  ASP86       0.3668
     94  OD1      -11.4700    8.8170   -2.6860 O.co2  86  ASP86      -0.2456
     95  OD2      -11.7290    6.9630   -1.5270 O.co2  86  ASP86      -0.2456
     96  N        -10.0070    5.4830   -6.3940 N.am   87  LEU87      -0.1966
     97  CA        -9.0710    4.5900   -7.1290 C.3    87  LEU87       0.1728
     98  C         -8.7650    5.0920   -8.5470 C.2    87  LEU87       0.2616
     99  O         -7.7380    4.7240   -9.1550 O.2    87  LEU87      -0.2715
    100  CB        -9.6110    3.1680   -7.1640 C.3    87  LEU87       0.0311
    101  CG        -9.7420    2.4500   -5.8220 C.3    87  LEU87       0.0022
    102  CD1      -10.3940    1.0920   -6.0400 C.3    87  LEU87       0.0001
    103  CD2       -8.3320    2.2230   -5.1730 C.3    87  LEU87       0.0001
    104  N         -9.6880    5.8750   -9.0840 N.am   88  ILE88      -0.1963
    105  CA        -9.5030    6.4770  -10.4350 C.3    88  ILE88       0.1727
    106  C         -8.8530    7.8400  -10.3740 C.2    88  ILE88       0.2616
    107  O         -7.8530    8.0720  -11.0500 O.2    88  ILE88      -0.2715
    108  CB       -10.8310    6.4770  -11.2390 C.3    88  ILE88       0.0290
    109  CG1      -11.2650    5.0370  -11.4720 C.3    88  ILE88       0.0022
    110  CG2      -10.6380    7.2000  -12.5260 C.3    88  ILE88       0.0023
    111  CD1      -12.7320    4.8980  -11.9380 C.3    88  ILE88       0.0001
    112  N         -9.4090    8.7430   -9.5430 N.am   89  ASN89      -0.1958
    113  CA        -8.9190   10.1210   -9.4290 C.3    89  ASN89       0.1819
    114  C         -7.6990   10.3290   -8.5280 C.2    89  ASN89       0.2621
    115  O         -7.1240   11.4280   -8.5210 O.2    89  ASN89      -0.2715
    116  CB       -10.0340   10.9970   -8.8970 C.3    89  ASN89       0.1195
    117  CG       -11.2510   10.9870   -9.8030 C.2    89  ASN89       0.2630
    118  OD1      -12.3920   10.8880   -9.3270 O.2    89  ASN89      -0.2716
    119  ND2      -11.0100   11.0480  -11.1200 N.am   89  ASN89      -0.0877
    120  N         -7.3570    9.2890   -7.7720 N.am   90  ASN90      -0.1958
    121  CA        -6.4340    9.3740   -6.6440 C.3    90  ASN90       0.1819
    122  C         -7.0800   10.1520   -5.4600 C.2    90  ASN90       0.2621
    123  O         -8.1710   10.7700   -5.5900 O.2    90  ASN90      -0.2715
    124  CB        -5.1000    9.9820   -7.0530 C.3    90  ASN90       0.1195
    125  CG        -3.9230    9.3640   -6.2800 C.2    90  ASN90       0.2630
    126  OD1       -4.1230    8.6910   -5.2580 O.2    90  ASN90      -0.2716
    127  ND2       -2.7180    9.5630   -6.7830 N.am   90  ASN90      -0.0877
    128  N         -6.4070   10.0610   -4.3120 N.am   91  LEU91      -0.1977
    129  CA        -6.8120   10.7250   -3.0770 C.3    91  LEU91       0.1596
    130  C         -6.4540   12.2070   -3.1600 C.2    91  LEU91       0.2287
    131  O         -5.4340   12.5630   -3.7250 O.2    91  LEU91      -0.2864
    132  CB        -6.0510   10.1040   -1.8930 C.3    91  LEU91       0.0297
    133  CG        -6.3460    8.6120   -1.7570 C.3    91  LEU91       0.0022
    134  CD1       -5.4440    8.0160   -0.6770 C.3    91  LEU91       0.0001
    135  CD2       -7.8320    8.4040   -1.4170 C.3    91  LEU91       0.0001
    136  N         -2.7820   13.1240   -2.4600 N.3    94  ILE94      -0.1245
    137  CA        -1.7300   12.7810   -3.4270 C.3    94  ILE94       0.1561
    138  C         -1.9790   13.6350   -4.6580 C.2    94  ILE94       0.2260
    139  O         -3.0530   13.5530   -5.2850 O.2    94  ILE94      -0.2867
    140  CB        -1.7260   11.2950   -3.8310 C.3    94  ILE94       0.0252
    141  CG1       -1.7040   10.3940   -2.5920 C.3    94  ILE94       0.0019
    142  CG2       -0.5430   11.0130   -4.7760 C.3    94  ILE94       0.0019
    143  CD1       -2.0520    8.9320   -2.8810 C.3    94  ILE94       0.0001
    144  N          2.7710    5.5810   -0.5040 N.3   119  PHE119     -0.1227
    145  CA         2.2880    4.3540   -1.1290 C.3   119  PHE119      0.1736
    146  C          3.2410    3.8760   -2.2470 C.2   119  PHE119      0.2595
    147  O          3.5020    2.6960   -2.3650 O.2   119  PHE119     -0.2718
    148  CB         0.8870    4.5020   -1.7270 C.3   119  PHE119      0.0547
    149  CG         0.5480    3.3780   -2.6610 C.ar  119  PHE119     -0.0202
    150  CD1        0.2170    2.1290   -2.1620 C.ar  119  PHE119     -0.0042
    151  CD2        0.5230    3.5690   -4.0480 C.ar  119  PHE119     -0.0042
    152  CE1       -0.0680    1.0340   -3.0460 C.ar  119  PHE119     -0.0003
    153  CE2        0.2360    2.4890   -4.9420 C.ar  119  PHE119     -0.0003
    154  CZ        -0.0410    1.2170   -4.4170 C.ar  119  PHE119     -0.0000
    155  N          3.7450    4.8170   -3.0420 N.am  120  TYR120     -0.1976
    156  CA         4.5150    4.4070   -4.2580 C.3   120  TYR120      0.1639
    157  C          5.8750    3.8110   -3.9330 C.2   120  TYR120      0.2290
    158  O          6.4950    3.1660   -4.8070 O.2   120  TYR120     -0.2864
    159  CB         4.6120    5.5530   -5.2500 C.3   120  TYR120      0.0560
    160  CG         3.2350    6.0040   -5.6610 C.ar  120  TYR120     -0.0198
    161  CD1        2.5140    5.3050   -6.6130 C.ar  120  TYR120     -0.0009
    162  CD2        2.6480    7.1070   -5.0660 C.ar  120  TYR120     -0.0009
    163  CE1        1.2230    5.7270   -7.0260 C.ar  120  TYR120      0.0417
    164  CE2        1.3410    7.5440   -5.4230 C.ar  120  TYR120      0.0417
    165  CZ         0.6480    6.8670   -6.4030 C.ar  120  TYR120      0.1957
    166  OH        -0.6220    7.3190   -6.7310 O.3   120  TYR120     -0.2866
    167  N         -4.4120   -3.5570   -5.0430 N.3   131  VAL131     -0.1245
    168  CA        -5.0380   -2.9230   -3.8680 C.3   131  VAL131      0.1561
    169  C         -6.4880   -3.3000   -3.9910 C.2   131  VAL131      0.2260
    170  O         -7.1600   -2.8590   -4.9400 O.2   131  VAL131     -0.2867
    171  CB        -4.9110   -1.4150   -3.8910 C.3   131  VAL131      0.0252
    172  CG1       -5.7230   -0.7350   -2.7170 C.3   131  VAL131      0.0019
    173  CG2       -3.4480   -1.0040   -3.8650 C.3   131  VAL131      0.0019
    174  N         -7.6600   -2.4690   -7.6250 N.3   143  TRP143     -0.1241
    175  CA        -6.8440   -1.5210   -8.3730 C.3   143  TRP143      0.1605
    176  C         -5.5150   -2.2740   -8.5270 C.2   143  TRP143      0.2264
    177  O         -5.1250   -2.9990   -7.6300 O.2   143  TRP143     -0.2867
    178  CB        -6.6400   -0.2480   -7.5190 C.3   143  TRP143      0.0550
    179  CG        -5.6930    0.8080   -8.0960 C.ar  143  TRP143      0.0003
    180  CD1       -6.0330    2.0060   -8.6760 C.ar  143  TRP143      0.0946
    181  CD2       -4.2380    0.7940   -8.0220 C.ar  143  TRP143      0.0152
    182  NE1       -4.8990    2.7350   -8.9720 N.ar  143  TRP143     -0.2442
    183  CE2       -3.7860    2.0120   -8.6150 C.ar  143  TRP143      0.0810
    184  CE3       -3.2960   -0.1470   -7.5670 C.ar  143  TRP143      0.0012
    185  CZ2       -2.3980    2.3390   -8.7500 C.ar  143  TRP143      0.0191
    186  CZ3       -1.8900    0.1780   -7.6800 C.ar  143  TRP143      0.0001
    187  CH2       -1.4740    1.4000   -8.2900 C.ar  143  TRP143      0.0015
    188  N         -2.6540    1.7920  -14.9530 N.3   151  PHE151     -0.1241
    189  CA        -3.1930    0.9190  -13.8910 C.3   151  PHE151      0.1605
    190  C         -4.5950    0.5050  -14.2680 C.2   151  PHE151      0.2264
    191  O         -5.1860    1.1130  -15.1620 O.2   151  PHE151     -0.2867
    192  CB        -3.2300    1.6470  -12.5320 C.3   151  PHE151      0.0534
    193  CG        -4.1280    2.8550  -12.4790 C.ar  151  PHE151     -0.0203
    194  CD1       -3.6590    4.1300  -12.8210 C.ar  151  PHE151     -0.0042
    195  CD2       -5.4960    2.7260  -12.0910 C.ar  151  PHE151     -0.0042
    196  CE1       -4.4880    5.3060  -12.7350 C.ar  151  PHE151     -0.0003
    197  CE2       -6.3470    3.8890  -12.0320 C.ar  151  PHE151     -0.0003
    198  CZ        -5.8600    5.1810  -12.3850 C.ar  151  PHE151     -0.0000
    199  N         -8.7170   -2.2160    3.5020 N.3   165  THR165     -0.1218
    200  CA        -7.8850   -2.3280    2.2690 C.3   165  THR165      0.1862
    201  C         -6.8350   -3.4280    2.4520 C.2   165  THR165      0.2287
    202  O         -6.3030   -3.5540    3.5490 O.2   165  THR165     -0.2866
    203  CB        -7.1740   -0.9380    1.9900 C.3   165  THR165      0.1770
    204  OG1       -8.1390    0.1070    1.8040 O.3   165  THR165     -0.2211
    205  CG2       -6.2470   -0.9640    0.7410 C.3   165  THR165      0.0375
    206  N         -3.2670   -4.5160    0.5570 N.3   167  VAL167     -0.1245
    207  CA        -2.2710   -4.1960   -0.4620 C.3   167  VAL167      0.1561
    208  C         -1.4480   -5.4800   -0.6480 C.2   167  VAL167      0.2260
    209  O         -0.8240   -5.9380    0.3040 O.2   167  VAL167     -0.2867
    210  CB        -1.3050   -3.0530   -0.0020 C.3   167  VAL167      0.0252
    211  CG1       -0.1570   -2.8900   -0.9770 C.3   167  VAL167      0.0019
    212  CG2       -2.0970   -1.7340    0.1530 C.3   167  VAL167      0.0019
@<TRIPOS>BOND
     1    16    13    1
     2    12    13    1
     3    12     3   am
     4    13    14    1
     5     1     2    1
     6     3     2    1
     7     3     4    2
     8     2     5    1
     9    14    15    2
    10    14    17   am
    11    20    19    2
    12     8    10   ar
    13     8     6   ar
    14     5     6    1
    15    17    18    1
    16    10    11   ar
    17     6     7   ar
    18   191   190    2
    19    11     9   ar
    20   188   189    1
    21     7     9   ar
    22    19    18    1
    23    19    28   am
    24    18    21    1
    25   190   189    1
    26    30    29    1
    27    30    31    2
    28   189   192    1
    29    21    22    1
    30    29    28    1
    31    29    32    1
    32    24    22   ar
    33    24    26   ar
    34    22    23   ar
    35   194   196   ar
    36   194   193   ar
    37    26    27   ar
    38   196   198   ar
    39   192   193    1
    40   110   108    1
    41   193   195   ar
    42   198   197   ar
    43    32    33    1
    44    33    34    1
    45   195   197   ar
    46   111   109    1
    47    23    25   ar
    48    39    40    2
    49    39    38    1
    50    27    25   ar
    51   109   108    1
    52   108   105    1
    53    37    38    1
    54   119   117   am
    55   107   106    2
    56    34    35    2
    57    34    36   am
    58    38    41    1
    59   105   106    1
    60   105   104    1
    61   106   112   am
    62    41    43    1
    63    41    42    1
    64   117   118    2
    65   117   116    1
    66   112   113    1
    67   113   116    1
    68   113   114    1
    69    42    44    1
    70    99    98    2
    71   104    98   am
    72   182   180   ar
    73   182   183   ar
    74   185   183   ar
    75   185   187   ar
    76   180   179   ar
    77   183   181   ar
    78    98    97    1
    79   114   115    2
    80   114   120   am
    81   176   175    1
    82   176   177    2
    83   175   174    1
    84   175   178    1
    85   187   186   ar
    86   179   181   ar
    87   179   178    1
    88   181   184   ar
    89   120   121    1
    90   186   184   ar
    91   100    97    1
    92   100   101    1
    93    97    96    1
    94   124   121    1
    95   124   125    1
    96   163   161   ar
    97   163   165   ar
    98   127   125   am
    99   166   165    1
   100   121   122    1
   101   161   160   ar
   102   165   164   ar
   103    96    90   am
   104   125   126    2
   105    91    90    2
   106   102   101    1
   107    90    89    1
   108   101   103    1
   109   160   159    1
   110   160   162   ar
   111    88    89    1
   112   123   122    2
   113   122   128   am
   114   164   162   ar
   115   139   138    2
   116   159   156    1
   117   167   168    1
   118    89    92    1
   119   153   154   ar
   120   153   151   ar
   121   170   169    2
   122   158   157    2
   123   142   140    1
   124   138   137    1
   125   154   152   ar
   126   128   129    1
   127   156   157    1
   128   156   155    1
   129   151   149   ar
   130   169   168    1
   131   171   168    1
   132   171   173    1
   133   171   172    1
   134   140   137    1
   135   140   141    1
   136   131   130    2
   137    92    93    1
   138   137   136    1
   139   130   129    1
   140   129   132    1
   141   152   150   ar
   142   155   146   am
   143   143   141    1
   144    94    93   ar
   145   149   150   ar
   146   149   148    1
   147    93    95   ar
   148   147   146    2
   149   146   145    1
   150    83    82    2
   151   132   133    1
   152    82    81    1
   153   133   135    1
   154   133   134    1
   155   148   145    1
   156    84    81    1
   157    84    85    1
   158    86    87    1
   159    86    85    1
   160   145   144    1
   161   211   210    1
   162    81    80    1
   163   208   207    1
   164   208   209    2
   165   207   210    1
   166   207   206    1
   167   210   212    1
   168   205   203    1
   169    52    50    1
   170    51    50    1
   171   204   203    1
   172   203   200    1
   173    50    49    1
   174    60    58   am
   175   200   201    1
   176   200   199    1
   177   201   202    2
   178    58    59    2
   179    58    57    1
   180    49    46    1
   181    57    54    1
   182    46    45    1
   183    46    47    1
   184    79    77   ar
   185    47    48    2
   186    54    55    1
   187    54    53    1
   188    55    56    2
   189    55    61   am
   190    78    77   ar
   191    66    65    1
   192    75    74    2
   193    77    76    1
   194    72    73    1
   195    71    68    1
   196    61    62    1
   197    62    65    1
   198    62    63    1
   199    74    73    1
   200    68    67    1
   201    68    69    1
   202    73    76    1
   203    63    64    2
   204    69    70    2
