@<TRIPOS>MOLECULE
tmp/4awsA01.pdb
 92 88 0 0 0
SMALL
GASTEIGER

@<TRIPOS>ATOM
      1  N          5.3080   -3.2690   17.9720 N.3    37  HIS37      -0.1241
      2  CA         5.8500   -4.5860   18.2460 C.3    37  HIS37       0.1621
      3  C          5.2560   -5.6400   17.3630 C.2    37  HIS37       0.2264
      4  O          5.9940   -6.5010   16.8410 O.2    37  HIS37      -0.2867
      5  CB         5.5790   -4.9740   19.7060 C.3    37  HIS37       0.0745
      6  CG         6.0800   -4.0780   20.7480 C.ar   37  HIS37       0.0817
      7  ND1        5.2750   -3.0790   21.2260 N.ar   37  HIS37      -0.2268
      8  CD2        7.2040   -4.1010   21.4890 C.ar   37  HIS37       0.1154
      9  CE1        5.9430   -2.4720   22.2200 C.ar   37  HIS37       0.1986
     10  NE2        7.1200   -3.0890   22.3980 N.ar   37  HIS37      -0.2212
     11  N          6.7150   -5.5170   14.0000 N.3    40  ALA40      -0.1231
     12  CA         8.0670   -6.0060   13.9750 C.3    40  ALA40       0.1694
     13  C          8.1210   -7.5320   13.9520 C.2    40  ALA40       0.2591
     14  O          8.9130   -8.1240   13.2000 O.2    40  ALA40      -0.2718
     15  CB         8.8580   -5.4410   15.1640 C.3    40  ALA40       0.0304
     16  N          7.2770   -8.1810   14.7610 N.am   41  ILE41      -0.1980
     17  CA         7.1950   -9.6540   14.7400 C.3    41  ILE41       0.1595
     18  C          6.7730  -10.1290   13.3650 C.2    41  ILE41       0.2287
     19  O          7.3680  -11.0570   12.7940 O.2    41  ILE41      -0.2864
     20  CB         6.2300  -10.1340   15.8350 C.3    41  ILE41       0.0276
     21  CG1        6.7800   -9.8590   17.2400 C.3    41  ILE41       0.0022
     22  CG2        5.9290  -11.6230   15.6680 C.3    41  ILE41       0.0022
     23  CD1        5.7910  -10.0180   18.3440 C.3    41  ILE41       0.0001
     24  N          9.5670   -9.7300   10.8340 N.3    44  ALA44      -0.1231
     25  CA        10.6880  -10.6320   11.1210 C.3    44  ALA44       0.1694
     26  C         10.3130  -12.0720   10.8070 C.2    44  ALA44       0.2591
     27  O         11.2040  -12.8420   10.3950 O.2    44  ALA44      -0.2718
     28  CB        11.0980  -10.4690   12.5800 C.3    44  ALA44       0.0304
     29  N          9.0590  -12.4560   10.9690 N.am   45  GLN45      -0.1979
     30  CA         8.6120  -13.7840   10.5890 C.3    45  GLN45       0.1601
     31  C          8.7810  -14.0800    9.0940 C.2    45  GLN45       0.2287
     32  O          8.8040  -15.2360    8.7160 O.2    45  GLN45      -0.2864
     33  CB         7.1410  -13.9630   10.9020 C.3    45  GLN45       0.0394
     34  CG         6.8000  -14.1430   12.3930 C.3    45  GLN45       0.0908
     35  CD         5.3460  -14.2970   12.6740 C.2    45  GLN45       0.2608
     36  OE1        4.9600  -14.7470   13.8170 O.2    45  GLN45      -0.2717
     37  NE2        4.5100  -13.9570   11.8370 N.am   45  GLN45      -0.0878
     38  N         12.1740   -0.3260   15.5370 N.3    83  ILE83      -0.1245
     39  CA        11.8630   -1.6220   16.1360 C.3    83  ILE83       0.1561
     40  C         11.7990   -2.6910   15.0280 C.2    83  ILE83       0.2260
     41  O         12.3420   -3.7900   15.1100 O.2    83  ILE83      -0.2867
     42  CB        10.5580   -1.5600   16.9530 C.3    83  ILE83       0.0252
     43  CG1       10.5090   -0.4660   18.0300 C.3    83  ILE83       0.0019
     44  CG2       10.2440   -2.8930   17.6220 C.3    83  ILE83       0.0019
     45  CD1       11.6910   -0.4840   18.9480 C.3    83  ILE83       0.0001
     46  N         14.4290   -5.7740   14.1400 N.3    87  ALA87      -0.1245
     47  CA        13.9940   -7.1630   14.1530 C.3    87  ALA87       0.1562
     48  C         14.3150   -7.8720   12.8480 C.2    87  ALA87       0.2260
     49  O         14.7820   -9.0120   12.8190 O.2    87  ALA87      -0.2867
     50  CB        12.5120   -7.2140   14.4500 C.3    87  ALA87       0.0290
     51  N         17.3070  -11.0080   11.6680 N.3    91  LYS91      -0.1245
     52  CA        17.0810  -12.2380   10.9090 C.3    91  LYS91       0.1561
     53  C         17.8700  -12.3210    9.6280 C.2    91  LYS91       0.2260
     54  O         17.9180  -13.2970    8.8910 O.2    91  LYS91      -0.2867
     55  CB        15.6180  -12.3690   10.5720 C.3    91  LYS91       0.0271
     56  CG        14.6090  -12.4100   11.6440 C.3    91  LYS91       0.0035
     57  CD        14.9150  -13.4410   12.6940 C.3    91  LYS91       0.0206
     58  CE        13.6920  -13.6390   13.5650 C.3    91  LYS91       0.1093
     59  NZ        14.1140  -14.5810   14.6550 N.3    91  LYS91      -0.1314
     60  N          4.3600  -17.3110    6.3960 N.3   327  PRO327     -0.2116
     61  CA         5.5500  -16.5370    6.8100 C.3   327  PRO327      0.1372
     62  C          6.8170  -17.1140    6.2310 C.2   327  PRO327      0.2244
     63  O          7.7950  -16.4000    5.9490 O.2   327  PRO327     -0.2868
     64  CB         5.4760  -16.5980    8.3380 C.3   327  PRO327      0.0268
     65  CG         4.6880  -17.8240    8.6280 C.3   327  PRO327      0.0207
     66  CD         3.6400  -17.8780    7.5640 C.3   327  PRO327      0.0892
     67  N         -0.2900  -16.8610   11.5930 N.3   358  TYR358     -0.1228
     68  CA        -0.1980  -17.8540   10.5470 C.3   358  TYR358      0.1721
     69  C          1.0340  -18.7010   10.7900 C.2   358  TYR358      0.2437
     70  O          2.1560  -18.1510   10.8550 O.2   358  TYR358     -0.2733
     71  CB        -0.1320  -17.2110    9.1810 C.3   358  TYR358      0.0547
     72  CG        -1.3610  -16.5370    8.6760 C.ar  358  TYR358     -0.0200
     73  CD1       -2.3610  -17.2540    8.0330 C.ar  358  TYR358     -0.0009
     74  CD2       -1.5300  -15.1570    8.7640 C.ar  358  TYR358     -0.0009
     75  CE1       -3.4890  -16.6540    7.5120 C.ar  358  TYR358      0.0417
     76  CE2       -2.6660  -14.5540    8.2590 C.ar  358  TYR358      0.0417
     77  CZ        -3.6380  -15.2810    7.6340 C.ar  358  TYR358      0.1957
     78  OH        -4.7520  -14.7060    7.0850 O.3   358  TYR358     -0.2866
     79  N          0.9010  -20.0050   10.9660 N.am  359  PRO359     -0.2718
     80  CA         2.1060  -20.7950   11.3120 C.3   359  PRO359      0.1535
     81  C          3.0080  -21.0780   10.1480 C.2   359  PRO359      0.2599
     82  O          2.6380  -21.0130    8.9720 O.2   359  PRO359     -0.2715
     83  CB         1.5280  -22.0990   11.8600 C.3   359  PRO359      0.0310
     84  CG         0.2360  -22.2030   11.2030 C.3   359  PRO359      0.0237
     85  CD        -0.3050  -20.8020   11.0150 C.3   359  PRO359      0.0939
     86  N          4.2390  -21.4640   10.4850 N.am  360  THR360     -0.1951
     87  CA         5.1120  -22.0690    9.5120 C.3   360  THR360      0.1897
     88  C          4.6050  -23.4700    9.1810 C.2   360  THR360      0.2313
     89  O          3.8140  -24.0530    9.9080 O.2   360  THR360     -0.2863
     90  CB         6.5690  -22.1110   10.0240 C.3   360  THR360      0.1794
     91  OG1        6.5820  -22.8450   11.2350 O.3   360  THR360     -0.2208
     92  CG2        7.1140  -20.7260   10.2800 C.3   360  THR360      0.0378
@<TRIPOS>BOND
     1    63    62    2
     2    62    61    1
     3    60    61    1
     4    60    66    1
     5    61    64    1
     6    78    77    1
     7    75    77   ar
     8    75    73   ar
     9    66    65    1
    10    77    76   ar
    11    73    72   ar
    12    76    74   ar
    13    64    65    1
    14    72    74   ar
    15    72    71    1
    16    32    31    2
    17    54    53    2
    18    82    81    2
    19    31    30    1
    20    71    68    1
    21    88    87    1
    22    88    89    2
    23    87    90    1
    24    87    86    1
    25    53    52    1
    26    90    92    1
    27    90    91    1
    28    81    86   am
    29    81    80    1
    30    27    26    2
    31    68    69    1
    32    68    67    1
    33    55    52    1
    34    55    56    1
    35    30    33    1
    36    30    29    1
    37    69    70    2
    38    69    79   am
    39    26    29   am
    40    26    25    1
    41    24    25    1
    42    33    34    1
    43    52    51    1
    44    79    85    1
    45    79    80    1
    46    85    84    1
    47    25    28    1
    48    84    83    1
    49    80    83    1
    50    56    57    1
    51    37    35   am
    52    34    35    1
    53    35    36    2
    54    57    58    1
    55    19    18    2
    56    49    48    2
    57    48    47    1
    58    14    13    2
    59    18    17    1
    60    58    59    1
    61    13    12    1
    62    13    16   am
    63    12    11    1
    64    12    15    1
    65    46    47    1
    66    47    50    1
    67    17    16    1
    68    17    20    1
    69    40    41    2
    70    40    39    1
    71    38    39    1
    72    22    20    1
    73    20    21    1
    74    39    42    1
    75     4     3    2
    76    42    44    1
    77    42    43    1
    78    21    23    1
    79     3     2    1
    80     1     2    1
    81    43    45    1
    82     2     5    1
    83     5     6    1
    84     6     7   ar
    85     6     8   ar
    86     7     9   ar
    87     8    10   ar
    88     9    10   ar
