@<TRIPOS>MOLECULE
tmp/4awsA02.pdb
 124 124 0 0 0
SMALL
GASTEIGER

@<TRIPOS>ATOM
      1  N         -0.2160   -3.1090    2.9890 N.3    24  THR24      -0.1218
      2  CA        -0.9280   -2.3670    4.0530 C.3    24  THR24       0.1862
      3  C         -1.7160   -3.3290    4.9330 C.2    24  THR24       0.2287
      4  O         -2.5430   -4.0850    4.4340 O.2    24  THR24      -0.2866
      5  CB        -1.8820   -1.3870    3.3480 C.3    24  THR24       0.1770
      6  OG1       -1.1380   -0.3210    2.7520 O.3    24  THR24      -0.2211
      7  CG2       -2.8850   -0.7290    4.2990 C.3    24  THR24       0.0375
      8  N         -5.8450    5.5720    4.3410 N.3    66  TYR66      -0.1241
      9  CA        -6.5500    4.4850    5.0110 C.3    66  TYR66       0.1605
     10  C         -6.3030    4.5950    6.5030 C.2    66  TYR66       0.2264
     11  O         -5.2120    4.9580    6.9310 O.2    66  TYR66      -0.2867
     12  CB        -6.0860    3.0920    4.4900 C.3    66  TYR66       0.0534
     13  CG        -6.1950    3.0030    2.9870 C.ar   66  TYR66      -0.0201
     14  CD1       -5.1650    3.4560    2.1730 C.ar   66  TYR66      -0.0009
     15  CD2       -7.3230    2.5020    2.3520 C.ar   66  TYR66      -0.0009
     16  CE1       -5.2660    3.4380    0.8070 C.ar   66  TYR66       0.0417
     17  CE2       -7.4210    2.4350    0.9690 C.ar   66  TYR66       0.0417
     18  CZ        -6.3980    2.9280    0.2210 C.ar   66  TYR66       0.1957
     19  OH        -6.4470    2.9400   -1.1640 O.3    66  TYR66      -0.2866
     20  N          4.7550    6.8590    0.8540 N.3   100  TRP100     -0.1241
     21  CA         3.4110    6.9420    0.3130 C.3   100  TRP100      0.1605
     22  C          2.8350    8.3590    0.3770 C.2   100  TRP100      0.2264
     23  O          2.8210    8.9740    1.4320 O.2   100  TRP100     -0.2867
     24  CB         2.4800    6.0320    1.0980 C.3   100  TRP100      0.0550
     25  CG         1.3110    5.4500    0.3380 C.ar  100  TRP100      0.0003
     26  CD1        0.9480    5.5680   -0.9700 C.ar  100  TRP100      0.0946
     27  CD2        0.3400    4.5820    0.9480 C.ar  100  TRP100      0.0152
     28  NE1       -0.1680    4.8130   -1.2240 N.ar  100  TRP100     -0.2442
     29  CE2       -0.5640    4.1800   -0.0720 C.ar  100  TRP100      0.0810
     30  CE3        0.1690    4.0940    2.2390 C.ar  100  TRP100      0.0012
     31  CZ2       -1.5950    3.3090    0.1710 C.ar  100  TRP100      0.0191
     32  CZ3       -0.8670    3.2190    2.4630 C.ar  100  TRP100      0.0001
     33  CH2       -1.7370    2.8380    1.4630 C.ar  100  TRP100      0.0015
     34  N        -13.1580    3.2410   -3.2130 N.3   128  LYS128     -0.1245
     35  CA       -13.4180    3.4190   -1.7800 C.3   128  LYS128      0.1561
     36  C        -12.0960    3.3000   -1.0060 C.2   128  LYS128      0.2260
     37  O        -11.1780    2.6120   -1.4400 O.2   128  LYS128     -0.2867
     38  CB       -14.4340    2.4140   -1.2230 C.3   128  LYS128      0.0271
     39  CG       -15.8170    2.5500   -1.9200 C.3   128  LYS128      0.0035
     40  CD       -16.8590    1.6010   -1.2850 C.3   128  LYS128      0.0206
     41  CE       -18.1940    1.8220   -2.0030 C.3   128  LYS128      0.1093
     42  NZ       -19.1820    0.7680   -1.5660 N.3   128  LYS128     -0.1314
     43  N        -11.0170    3.3270    3.5320 N.3   130  PHE130     -0.1241
     44  CA       -11.6790    3.0430    4.8150 C.3   130  PHE130      0.1605
     45  C        -11.1190    4.0090    5.8520 C.2   130  PHE130      0.2264
     46  O         -9.9900    4.4660    5.7760 O.2   130  PHE130     -0.2867
     47  CB       -11.5840    1.5760    5.2140 C.3   130  PHE130      0.0534
     48  CG       -10.1970    1.0190    5.3720 C.ar  130  PHE130     -0.0203
     49  CD1       -9.4320    1.2610    6.5260 C.ar  130  PHE130     -0.0042
     50  CD2       -9.6500    0.2000    4.4110 C.ar  130  PHE130     -0.0042
     51  CE1       -8.1720    0.7150    6.7020 C.ar  130  PHE130     -0.0003
     52  CE2       -8.3870   -0.3440    4.5690 C.ar  130  PHE130     -0.0003
     53  CZ        -7.6420   -0.1090    5.7130 C.ar  130  PHE130     -0.0000
     54  N        -15.7210    1.3830    5.2900 N.3   140  PHE140     -0.1241
     55  CA       -15.4740    1.7530    3.8900 C.3   140  PHE140      0.1605
     56  C        -16.3280    2.9360    3.4710 C.2   140  PHE140      0.2264
     57  O        -17.5150    3.0040    3.8060 O.2   140  PHE140     -0.2867
     58  CB       -15.6870    0.5110    3.0160 C.3   140  PHE140      0.0534
     59  CG       -14.5120   -0.4500    3.0730 C.ar  140  PHE140     -0.0203
     60  CD1      -14.4090   -1.4190    4.0300 C.ar  140  PHE140     -0.0042
     61  CD2      -13.4910   -0.3270    2.1430 C.ar  140  PHE140     -0.0042
     62  CE1      -13.2850   -2.2360    4.0230 C.ar  140  PHE140     -0.0003
     63  CE2      -12.3770   -1.1340    2.1010 C.ar  140  PHE140     -0.0003
     64  CZ       -12.2960   -2.1030    3.0860 C.ar  140  PHE140     -0.0000
     65  N         -2.1390    6.2890   -6.9600 N.3   184  TYR184     -0.1241
     66  CA        -1.8410    7.2770   -5.8960 C.3   184  TYR184      0.1605
     67  C         -1.2680    8.5490   -6.5080 C.2   184  TYR184      0.2264
     68  O         -1.3640    8.7920   -7.7090 O.2   184  TYR184     -0.2867
     69  CB        -1.0500    6.5910   -4.7760 C.3   184  TYR184      0.0534
     70  CG        -1.8910    5.4890   -4.1590 C.ar  184  TYR184     -0.0201
     71  CD1       -3.0890    5.7820   -3.5040 C.ar  184  TYR184     -0.0009
     72  CD2       -1.4980    4.1630   -4.2120 C.ar  184  TYR184     -0.0009
     73  CE1       -3.8600    4.7900   -2.9290 C.ar  184  TYR184      0.0417
     74  CE2       -2.2570    3.1670   -3.6440 C.ar  184  TYR184      0.0417
     75  CZ        -3.4470    3.4670   -3.0110 C.ar  184  TYR184      0.1957
     76  OH        -4.1730    2.4530   -2.4650 O.3   184  TYR184     -0.2866
     77  N         -5.3280   -6.4570   -6.7770 N.3   272  TRP272     -0.1227
     78  CA        -6.5320   -7.1920   -6.3410 C.3   272  TRP272      0.1737
     79  C         -6.9330   -8.1570   -7.4490 C.2   272  TRP272      0.2595
     80  O         -6.2000   -9.1160   -7.7290 O.2   272  TRP272     -0.2718
     81  CB        -7.6200   -6.2560   -5.8140 C.3   272  TRP272      0.0564
     82  CG        -7.1040   -5.5500   -4.6080 C.ar  272  TRP272      0.0003
     83  CD1       -6.5530   -4.3190   -4.5390 C.ar  272  TRP272      0.0946
     84  CD2       -7.0570   -6.0420   -3.2550 C.ar  272  TRP272      0.0152
     85  NE1       -6.1660   -4.0010   -3.2650 N.ar  272  TRP272     -0.2442
     86  CE2       -6.4790   -5.0680   -2.4590 C.ar  272  TRP272      0.0810
     87  CE3       -7.4410   -7.2380   -2.6740 C.ar  272  TRP272      0.0012
     88  CZ2       -6.2820   -5.2000   -1.1100 C.ar  272  TRP272      0.0191
     89  CZ3       -7.2550   -7.3860   -1.3000 C.ar  272  TRP272      0.0001
     90  CH2       -6.6820   -6.3500   -0.5610 C.ar  272  TRP272      0.0015
     91  N         -8.0820   -7.9370   -8.0860 N.am  273  ASP273     -0.1974
     92  CA        -8.4410   -8.8170   -9.2090 C.3   273  ASP273      0.1709
     93  C         -8.3760   -8.0620  -10.5410 C.2   273  ASP273      0.2293
     94  O         -8.8620   -8.5820  -11.5650 O.2   273  ASP273     -0.2864
     95  CB        -9.8100   -9.4540   -9.0530 C.3   273  ASP273      0.1436
     96  CG        -9.9110  -10.5840   -8.0600 C.2   273  ASP273      0.3671
     97  OD1       -9.0230  -11.4330   -7.8840 O.co2 273  ASP273     -0.2456
     98  OD2      -11.0060  -10.6270   -7.4560 O.co2 273  ASP273     -0.2456
     99  N         -9.4700  -12.6790    4.2340 N.3   344  PRO344     -0.2116
    100  CA        -9.6960  -11.2800    3.9180 C.3   344  PRO344      0.1372
    101  C        -10.1180  -10.4280    5.0890 C.2   344  PRO344      0.2244
    102  O         -9.7180   -9.2480    5.2170 O.2   344  PRO344     -0.2868
    103  CB       -10.7720  -11.3610    2.8230 C.3   344  PRO344      0.0268
    104  CG       -10.4350  -12.6270    2.0900 C.3   344  PRO344      0.0207
    105  CD       -10.0680  -13.5890    3.2230 C.3   344  PRO344      0.0892
    106  N         -7.2290   -8.7510    7.0000 N.3   347  LEU347     -0.1231
    107  CA        -6.1940   -8.0110    6.2850 C.3   347  LEU347      0.1693
    108  C         -5.9050   -6.6670    6.9270 C.2   347  LEU347      0.2592
    109  O         -4.7160   -6.2890    7.0290 O.2   347  LEU347     -0.2718
    110  CB        -6.5930   -7.8050    4.8320 C.3   347  LEU347      0.0284
    111  CG        -6.4880   -9.0710    3.9790 C.3   347  LEU347      0.0019
    112  CD1       -7.0700   -8.7990    2.6130 C.3   347  LEU347      0.0001
    113  CD2       -5.0730   -9.5760    3.8870 C.3   347  LEU347      0.0001
    114  N         -6.9230   -5.9430    7.3610 N.am  348  PHE348     -0.1976
    115  CA        -6.8150   -4.5790    7.7760 C.3   348  PHE348      0.1639
    116  C         -7.3650   -4.3840    9.1800 C.2   348  PHE348      0.2290
    117  O         -8.5070   -4.7650    9.4800 O.2   348  PHE348     -0.2864
    118  CB        -7.5960   -3.6430    6.8390 C.3   348  PHE348      0.0560
    119  CG        -7.2130   -3.8080    5.3900 C.ar  348  PHE348     -0.0200
    120  CD1       -5.9510   -3.5430    4.9430 C.ar  348  PHE348     -0.0042
    121  CD2       -8.1340   -4.3100    4.4850 C.ar  348  PHE348     -0.0042
    122  CE1       -5.6300   -3.7010    3.6330 C.ar  348  PHE348     -0.0003
    123  CE2       -7.7850   -4.5490    3.1750 C.ar  348  PHE348     -0.0003
    124  CZ        -6.5490   -4.1860    2.7310 C.ar  348  PHE348     -0.0000
@<TRIPOS>BOND
     1    94    93    2
     2    93    92    1
     3    92    95    1
     4    92    91    1
     5    95    96    1
     6    91    79   am
     7    96    97   ar
     8    96    98   ar
     9    80    79    2
    10    68    67    2
    11    79    78    1
    12    65    66    1
    13    77    78    1
    14    67    66    1
    15    78    81    1
    16    66    69    1
    17    81    82    1
    18    69    70    1
    19    82    83   ar
    20    82    84   ar
    21    83    85   ar
    22    72    70   ar
    23    72    74   ar
    24    70    71   ar
    25    74    75   ar
    26    71    73   ar
    27    85    86   ar
    28    84    87   ar
    29    84    86   ar
    30    34    35    1
    31    75    73   ar
    32    75    76    1
    33    87    89   ar
    34    86    88   ar
    35    41    42    1
    36    41    40    1
    37    39    40    1
    38    39    38    1
    39    35    38    1
    40    35    36    1
    41    37    36    2
    42    89    90   ar
    43    28    26   ar
    44    28    29   ar
    45    19    18    1
    46    88    90   ar
    47    26    25   ar
    48    29    31   ar
    49    29    27   ar
    50    31    33   ar
    51    18    16   ar
    52    18    17   ar
    53    21    22    1
    54    21    20    1
    55    21    24    1
    56    25    27   ar
    57    25    24    1
    58    22    23    2
    59    16    14   ar
    60    27    30   ar
    61    17    15   ar
    62    33    32   ar
    63   104   103    1
    64   104   105    1
    65    63    61   ar
    66    63    64   ar
    67    61    59   ar
    68    14    13   ar
    69    30    32   ar
    70    15    13   ar
    71   112   111    1
    72   124   123   ar
    73   124   122   ar
    74     6     5    1
    75   103   100    1
    76    13    12    1
    77     1     2    1
    78    58    59    1
    79    58    55    1
    80    59    60   ar
    81    64    62   ar
    82   123   121   ar
    83   105    99    1
    84     5     2    1
    85     5     7    1
    86    56    57    2
    87    56    55    1
    88    43    44    1
    89   122   120   ar
    90   113   111    1
    91    55    54    1
    92   100    99    1
    93   100   101    1
    94   111   110    1
    95    62    60   ar
    96     2     3    1
    97     8     9    1
    98    50    52   ar
    99    50    48   ar
   100     4     3    2
   101   121   119   ar
   102    12     9    1
   103    52    53   ar
   104    44    47    1
   105    44    45    1
   106   110   107    1
   107   120   119   ar
   108     9    10    1
   109   101   102    2
   110    47    48    1
   111    48    49   ar
   112   119   118    1
   113    53    51   ar
   114    46    45    2
   115   107   108    1
   116   107   106    1
   117    10    11    2
   118    49    51   ar
   119   118   115    1
   120   108   109    2
   121   108   114   am
   122   114   115    1
   123   115   116    1
   124   116   117    2
