@<TRIPOS>MOLECULE
tmp/4awtA01.pdb
 163 161 0 0 0
SMALL
GASTEIGER

@<TRIPOS>ATOM
      1  N         -0.2050   -3.1150    3.0360 N.3    24  THR24      -0.1218
      2  CA        -0.9080   -2.3630    4.0880 C.3    24  THR24       0.1862
      3  C         -1.6770   -3.3170    4.9670 C.2    24  THR24       0.2287
      4  O         -2.5290   -4.0670    4.4850 O.2    24  THR24      -0.2866
      5  CB        -1.8820   -1.3740    3.4250 C.3    24  THR24       0.1770
      6  OG1       -1.1620   -0.3100    2.7910 O.3    24  THR24      -0.2211
      7  CG2       -2.8470   -0.7400    4.3930 C.3    24  THR24       0.0375
      8  N         -5.7900    5.5820    4.3610 N.3    66  TYR66      -0.1241
      9  CA        -6.4770    4.4970    5.0220 C.3    66  TYR66       0.1605
     10  C         -6.2390    4.6000    6.4980 C.2    66  TYR66       0.2264
     11  O         -5.1520    4.9660    6.9400 O.2    66  TYR66      -0.2867
     12  CB        -5.9980    3.1230    4.4860 C.3    66  TYR66       0.0534
     13  CG        -6.1430    3.0220    2.9900 C.ar   66  TYR66      -0.0201
     14  CD1       -5.1210    3.5040    2.1600 C.ar   66  TYR66      -0.0009
     15  CD2       -7.2610    2.4770    2.3940 C.ar   66  TYR66      -0.0009
     16  CE1       -5.2380    3.4820    0.7890 C.ar   66  TYR66       0.0417
     17  CE2       -7.3690    2.4130    1.0150 C.ar   66  TYR66       0.0417
     18  CZ        -6.3640    2.9430    0.2110 C.ar   66  TYR66       0.1957
     19  OH        -6.4230    2.9300   -1.1460 O.3    66  TYR66      -0.2866
     20  N          4.7990    6.8460    0.8550 N.3   100  TRP100     -0.1241
     21  CA         3.4470    6.9080    0.3110 C.3   100  TRP100      0.1605
     22  C          2.8700    8.3270    0.3710 C.2   100  TRP100      0.2264
     23  O          2.8640    8.9620    1.4280 O.2   100  TRP100     -0.2867
     24  CB         2.5160    5.9900    1.0960 C.3   100  TRP100      0.0550
     25  CG         1.3460    5.4430    0.3560 C.ar  100  TRP100      0.0003
     26  CD1        0.9990    5.5380   -0.9570 C.ar  100  TRP100      0.0946
     27  CD2        0.3710    4.5980    0.9690 C.ar  100  TRP100      0.0152
     28  NE1       -0.1320    4.7920   -1.1970 N.ar  100  TRP100     -0.2442
     29  CE2       -0.5170    4.1930   -0.0410 C.ar  100  TRP100      0.0810
     30  CE3        0.1940    4.1190    2.2730 C.ar  100  TRP100      0.0012
     31  CZ2       -1.5710    3.3170    0.2300 C.ar  100  TRP100      0.0191
     32  CZ3       -0.8480    3.2460    2.5060 C.ar  100  TRP100      0.0001
     33  CH2       -1.6900    2.8690    1.5260 C.ar  100  TRP100      0.0015
     34  N        -13.1230    3.2270   -3.1730 N.3   128  LYS128     -0.1245
     35  CA       -13.3760    3.4030   -1.7420 C.3   128  LYS128      0.1561
     36  C        -12.0250    3.2730   -0.9900 C.2   128  LYS128      0.2260
     37  O        -11.1270    2.5420   -1.4010 O.2   128  LYS128     -0.2867
     38  CB       -14.3680    2.3990   -1.2120 C.3   128  LYS128      0.0271
     39  CG       -15.7490    2.5610   -1.8570 C.3   128  LYS128      0.0035
     40  CD       -16.8280    1.6760   -1.2490 C.3   128  LYS128      0.0206
     41  CE       -18.1540    1.8730   -2.0090 C.3   128  LYS128      0.1093
     42  NZ       -19.1880    0.9090   -1.5130 N.3   128  LYS128     -0.1314
     43  N        -10.9430    3.3140    3.5480 N.3   130  PHE130     -0.1241
     44  CA       -11.6080    3.0360    4.8010 C.3   130  PHE130      0.1605
     45  C        -11.0650    4.0170    5.8530 C.2   130  PHE130      0.2264
     46  O         -9.9240    4.4750    5.7930 O.2   130  PHE130     -0.2867
     47  CB       -11.5300    1.5800    5.2490 C.3   130  PHE130      0.0534
     48  CG       -10.1230    1.0060    5.4090 C.ar  130  PHE130     -0.0203
     49  CD1       -9.3680    1.2520    6.5300 C.ar  130  PHE130     -0.0042
     50  CD2       -9.5890    0.2080    4.4080 C.ar  130  PHE130     -0.0042
     51  CE1       -8.0910    0.7040    6.6760 C.ar  130  PHE130     -0.0003
     52  CE2       -8.3520   -0.3380    4.5610 C.ar  130  PHE130     -0.0003
     53  CZ        -7.5880   -0.1130    5.6790 C.ar  130  PHE130     -0.0000
     54  N        -15.6450    1.4170    5.3350 N.3   140  PHE140     -0.1241
     55  CA       -15.3870    1.7230    3.9330 C.3   140  PHE140      0.1605
     56  C        -16.2270    2.9340    3.4990 C.2   140  PHE140      0.2264
     57  O        -17.4300    3.0330    3.8130 O.2   140  PHE140     -0.2867
     58  CB       -15.6600    0.4750    3.0480 C.3   140  PHE140      0.0534
     59  CG       -14.5030   -0.5020    3.1550 C.ar  140  PHE140     -0.0203
     60  CD1      -14.4300   -1.4770    4.1150 C.ar  140  PHE140     -0.0042
     61  CD2      -13.4630   -0.3850    2.2610 C.ar  140  PHE140     -0.0042
     62  CE1      -13.2750   -2.2710    4.1820 C.ar  140  PHE140     -0.0003
     63  CE2      -12.3170   -1.1410    2.3000 C.ar  140  PHE140     -0.0003
     64  CZ       -12.2440   -2.1210    3.2950 C.ar  140  PHE140     -0.0000
     65  N          6.2840    4.9270   -3.9270 N.3   179  HIS179     -0.1241
     66  CA         5.0160    4.4000   -4.4460 C.3   179  HIS179      0.1621
     67  C          4.5200    5.3760   -5.5200 C.2   179  HIS179      0.2264
     68  O          3.9290    6.4060   -5.1920 O.2   179  HIS179     -0.2867
     69  CB         3.9820    4.2350   -3.3570 C.3   179  HIS179      0.0745
     70  CG         2.8340    3.3660   -3.7560 C.ar  179  HIS179      0.0817
     71  ND1        2.5990    3.0180   -5.0390 N.ar  179  HIS179     -0.2268
     72  CD2        1.9340    2.7500   -2.9410 C.ar  179  HIS179      0.1154
     73  CE1        1.5520    2.2160   -5.0110 C.ar  179  HIS179      0.1986
     74  NE2        1.1320    2.0180   -3.7780 N.ar  179  HIS179     -0.2212
     75  N         -0.5210    2.2800   -8.4760 N.3   182  ASN182     -0.1240
     76  CA        -1.8360    1.9230   -8.0020 C.3   182  ASN182      0.1653
     77  C         -2.7140    3.1550   -7.7330 C.2   182  ASN182      0.2266
     78  O         -3.5150    3.1630   -6.7950 O.2   182  ASN182     -0.2867
     79  CB        -1.7370    0.9930   -6.8040 C.3   182  ASN182      0.1155
     80  CG        -1.0650   -0.2960   -7.2120 C.2   182  ASN182      0.2627
     81  OD1       -0.8280   -0.5550   -8.3740 O.2   182  ASN182     -0.2716
     82  ND2       -0.7400   -1.1110   -6.2400 N.am  182  ASN182     -0.0877
     83  N         -2.1520    6.2850   -6.9330 N.3   184  TYR184     -0.1241
     84  CA        -1.8340    7.2600   -5.8850 C.3   184  TYR184      0.1605
     85  C         -1.2570    8.5290   -6.4900 C.2   184  TYR184      0.2264
     86  O         -1.3670    8.7760   -7.6720 O.2   184  TYR184     -0.2867
     87  CB        -1.0510    6.5610   -4.7690 C.3   184  TYR184      0.0534
     88  CG        -1.8940    5.4710   -4.1410 C.ar  184  TYR184     -0.0201
     89  CD1       -3.0780    5.7700   -3.4770 C.ar  184  TYR184     -0.0009
     90  CD2       -1.5030    4.1430   -4.2110 C.ar  184  TYR184     -0.0009
     91  CE1       -3.8550    4.7940   -2.9010 C.ar  184  TYR184      0.0417
     92  CE2       -2.2650    3.1580   -3.6340 C.ar  184  TYR184      0.0417
     93  CZ        -3.4440    3.4530   -2.9830 C.ar  184  TYR184      0.1957
     94  OH        -4.1710    2.4400   -2.4450 O.3   184  TYR184     -0.2866
     95  N         -7.4980    0.0650  -11.3240 N.3   238  LEU238     -0.1231
     96  CA        -8.5040   -0.1300  -10.3150 C.3   238  LEU238      0.1693
     97  C         -8.7870    1.1010   -9.4830 C.2   238  LEU238      0.2592
     98  O         -9.9400    1.3730   -9.1320 O.2   238  LEU238     -0.2718
     99  CB        -8.0280   -1.2900   -9.3830 C.3   238  LEU238      0.0284
    100  CG        -9.0240   -1.7110   -8.3390 C.3   238  LEU238      0.0019
    101  CD1      -10.2550   -2.3280   -8.9640 C.3   238  LEU238      0.0001
    102  CD2       -8.3190   -2.6710   -7.3930 C.3   238  LEU238      0.0001
    103  N         -7.7500    1.8280   -9.0690 N.am  239  ASN239     -0.1974
    104  CA        -7.9260    2.9980   -8.2300 C.3   239  ASN239      0.1688
    105  C         -8.1420    4.2880   -8.9930 C.2   239  ASN239      0.2292
    106  O         -8.1300    5.3660   -8.4100 O.2   239  ASN239     -0.2864
    107  CB        -6.7810    3.1110   -7.2240 C.3   239  ASN239      0.1181
    108  CG        -6.8680    2.0340   -6.2090 C.2   239  ASN239      0.2629
    109  OD1       -7.9500    1.4750   -5.9620 O.2   239  ASN239     -0.2716
    110  ND2       -5.7250    1.7390   -5.6190 N.am  239  ASN239     -0.0877
    111  N         -3.5490   -5.5980   -9.4240 N.3   271  ASP271     -0.1225
    112  CA        -3.9790   -4.9970   -8.1760 C.3   271  ASP271      0.1805
    113  C         -5.3540   -5.5870   -7.8740 C.2   271  ASP271      0.2597
    114  O         -6.3260   -5.4390   -8.6100 O.2   271  ASP271     -0.2718
    115  CB        -4.0110   -3.4810   -8.2660 C.3   271  ASP271      0.1424
    116  CG        -3.9470   -2.7810   -6.9440 C.2   271  ASP271      0.3668
    117  OD1       -3.2200   -3.2390   -6.0500 O.co2 271  ASP271     -0.2456
    118  OD2       -4.6080   -1.7070   -6.8300 O.co2 271  ASP271     -0.2456
    119  N         -5.3570   -6.4040   -6.8190 N.am  272  TRP272     -0.1976
    120  CA        -6.5290   -7.1850   -6.4010 C.3   272  TRP272      0.1640
    121  C         -6.9420   -8.1240   -7.5360 C.2   272  TRP272      0.2290
    122  O         -6.2080   -9.0830   -7.8240 O.2   272  TRP272     -0.2864
    123  CB        -7.6240   -6.3120   -5.8610 C.3   272  TRP272      0.0576
    124  CG        -7.1830   -5.6420   -4.6070 C.ar  272  TRP272      0.0006
    125  CD1       -6.7910   -4.3550   -4.4640 C.ar  272  TRP272      0.0946
    126  CD2       -7.0570   -6.2520   -3.3340 C.ar  272  TRP272      0.0152
    127  NE1       -6.4450   -4.1180   -3.1700 N.ar  272  TRP272     -0.2442
    128  CE2       -6.5990   -5.2550   -2.4550 C.ar  272  TRP272      0.0810
    129  CE3       -7.2780   -7.5180   -2.8170 C.ar  272  TRP272      0.0012
    130  CZ2       -6.3680   -5.4870   -1.1040 C.ar  272  TRP272      0.0191
    131  CZ3       -7.0470   -7.7180   -1.4470 C.ar  272  TRP272      0.0001
    132  CH2       -6.6010   -6.7000   -0.6400 C.ar  272  TRP272      0.0015
    133  N         -9.4550  -12.6250    4.3410 N.3   344  PRO344     -0.2102
    134  CA        -9.6850  -11.2120    4.0260 C.3   344  PRO344      0.1504
    135  C        -10.0980  -10.3900    5.1840 C.2   344  PRO344      0.2575
    136  O         -9.6900   -9.1900    5.3090 O.2   344  PRO344     -0.2718
    137  CB       -10.7580  -11.3040    2.9090 C.3   344  PRO344      0.0282
    138  CG       -10.4540  -12.6200    2.2410 C.3   344  PRO344      0.0208
    139  CD       -10.0630  -13.5340    3.3520 C.3   344  PRO344      0.0893
    140  N        -10.9270  -10.9210    6.0900 N.am  345  ALA345     -0.1980
    141  CA       -11.4400  -10.1170    7.1840 C.3   345  ALA345      0.1597
    142  C        -10.3970   -9.6330    8.1430 C.2   345  ALA345      0.2287
    143  O        -10.6890   -8.6840    8.9100 O.2   345  ALA345     -0.2864
    144  CB       -12.4680  -10.9580    7.9940 C.3   345  ALA345      0.0319
    145  N         -7.1830   -8.7130    7.0790 N.3   347  LEU347     -0.1231
    146  CA        -6.1520   -7.9810    6.3410 C.3   347  LEU347      0.1693
    147  C         -5.8410   -6.6390    7.0090 C.2   347  LEU347      0.2592
    148  O         -4.6800   -6.2580    7.0730 O.2   347  LEU347     -0.2718
    149  CB        -6.5240   -7.7900    4.9020 C.3   347  LEU347      0.0284
    150  CG        -6.4480   -9.0730    4.0670 C.3   347  LEU347      0.0019
    151  CD1       -6.9740   -8.8240    2.6920 C.3   347  LEU347      0.0001
    152  CD2       -5.0300   -9.5970    3.9750 C.3   347  LEU347      0.0001
    153  N         -6.8770   -5.9070    7.4180 N.am  348  PHE348     -0.1976
    154  CA        -6.7690   -4.5310    7.8120 C.3   348  PHE348      0.1639
    155  C         -7.3130   -4.3210    9.2130 C.2   348  PHE348      0.2290
    156  O         -8.4600   -4.6940    9.4970 O.2   348  PHE348     -0.2864
    157  CB        -7.5520   -3.6000    6.8560 C.3   348  PHE348      0.0560
    158  CG        -7.1900   -3.7990    5.4240 C.ar  348  PHE348     -0.0200
    159  CD1       -5.9170   -3.5380    4.9610 C.ar  348  PHE348     -0.0042
    160  CD2       -8.1200   -4.2620    4.5430 C.ar  348  PHE348     -0.0042
    161  CE1       -5.5890   -3.7040    3.6450 C.ar  348  PHE348     -0.0003
    162  CE2       -7.8070   -4.4490    3.2300 C.ar  348  PHE348     -0.0003
    163  CZ        -6.5490   -4.1700    2.7880 C.ar  348  PHE348     -0.0000
@<TRIPOS>BOND
     1    95    96    1
     2    96    97    1
     3    96    99    1
     4    97    98    2
     5    97   103   am
     6   111   112    1
     7    99   100    1
     8   103   104    1
     9   105   106    2
    10   105   104    1
    11   101   100    1
    12   114   113    2
    13    75    76    1
    14    81    80    2
    15   100   102    1
    16   115   112    1
    17   115   116    1
    18   104   107    1
    19   112   113    1
    20    76    77    1
    21    76    79    1
    22   113   119   am
    23   122   121    2
    24    77    78    2
    25    86    85    2
    26   121   120    1
    27   107   108    1
    28    80    79    1
    29    80    82   am
    30   116   118   ar
    31   116   117   ar
    32    83    84    1
    33   119   120    1
    34    85    84    1
    35   120   123    1
    36   108   109    2
    37   108   110   am
    38    84    87    1
    39   123   124    1
    40    67    68    2
    41    67    66    1
    42    71    73   ar
    43    71    70   ar
    44    73    74   ar
    45    87    88    1
    46   124   125   ar
    47   124   126   ar
    48   125   127   ar
    49    66    65    1
    50    66    69    1
    51    90    88   ar
    52    90    92   ar
    53    88    89   ar
    54    74    72   ar
    55    70    69    1
    56    70    72   ar
    57    92    93   ar
    58    89    91   ar
    59   126   129   ar
    60   126   128   ar
    61    34    35    1
    62   127   128   ar
    63    93    91   ar
    64    93    94    1
    65   129   131   ar
    66   128   130   ar
    67    41    42    1
    68    41    40    1
    69    39    40    1
    70    39    38    1
    71    35    38    1
    72    35    36    1
    73   131   132   ar
    74    37    36    2
    75    28    26   ar
    76    28    29   ar
    77    19    18    1
    78   130   132   ar
    79    26    25   ar
    80    29    31   ar
    81    29    27   ar
    82    18    16   ar
    83    18    17   ar
    84    31    33   ar
    85    21    22    1
    86    21    20    1
    87    21    24    1
    88    25    27   ar
    89    25    24    1
    90    22    23    2
    91    16    14   ar
    92    27    30   ar
    93    17    15   ar
    94    33    32   ar
    95    14    13   ar
    96   138   137    1
    97   138   139    1
    98    61    63   ar
    99    61    59   ar
   100    30    32   ar
   101    63    64   ar
   102    15    13   ar
   103   151   150    1
   104   163   162   ar
   105   163   161   ar
   106     6     5    1
   107   137   134    1
   108    13    12    1
   109     1     2    1
   110    58    59    1
   111    58    55    1
   112    59    60   ar
   113   162   160   ar
   114    64    62   ar
   115   139   133    1
   116     5     2    1
   117     5     7    1
   118    56    57    2
   119    56    55    1
   120    43    44    1
   121   161   159   ar
   122    55    54    1
   123   152   150    1
   124   134   133    1
   125   134   135    1
   126   150   149    1
   127     2     3    1
   128    60    62   ar
   129     8     9    1
   130    50    52   ar
   131    50    48   ar
   132     4     3    2
   133    12     9    1
   134   160   158   ar
   135    52    53   ar
   136    44    47    1
   137    44    45    1
   138   149   146    1
   139   159   158   ar
   140     9    10    1
   141   135   136    2
   142   135   140   am
   143    47    48    1
   144    48    49   ar
   145   158   157    1
   146    53    51   ar
   147    46    45    2
   148   140   141    1
   149   146   147    1
   150   146   145    1
   151    10    11    2
   152    49    51   ar
   153   157   154    1
   154   147   148    2
   155   147   153   am
   156   141   144    1
   157   141   142    1
   158   153   154    1
   159   154   155    1
   160   142   143    2
   161   155   156    2
