@<TRIPOS>MOLECULE
tmp/4awuA01.pdb
 135 131 0 0 0
SMALL
GASTEIGER

@<TRIPOS>ATOM
      1  N          4.9710   -4.5480   -0.7700 N.3    23  PRO23      -0.2116
      2  CA         4.2620   -3.7420    0.2230 C.3    23  PRO23       0.1372
      3  C          2.8740   -4.2950    0.4840 C.2    23  PRO23       0.2244
      4  O          2.1190   -4.5400   -0.4590 O.2    23  PRO23      -0.2868
      5  CB         4.1620   -2.3660   -0.4400 C.3    23  PRO23       0.0268
      6  CG         5.1890   -2.3570   -1.5010 C.3    23  PRO23       0.0207
      7  CD         5.3540   -3.7690   -1.9580 C.3    23  PRO23       0.0892
      8  N         -0.1220   -3.2200    3.0770 N.3    25  THR25      -0.1218
      9  CA        -0.8210   -2.4680    4.1040 C.3    25  THR25       0.1862
     10  C         -1.5870   -3.4160    5.0130 C.2    25  THR25       0.2287
     11  O         -2.4140   -4.1980    4.5490 O.2    25  THR25      -0.2866
     12  CB        -1.7890   -1.4590    3.4570 C.3    25  THR25       0.1770
     13  OG1       -1.0300   -0.4460    2.7880 O.3    25  THR25      -0.2211
     14  CG2       -2.6940   -0.8130    4.4930 C.3    25  THR25       0.0375
     15  N          2.9330    0.5800    2.5540 N.3    57  GLY57      -0.1225
     16  CA         2.9740    2.0170    2.3500 C.3    57  GLY57       0.1811
     17  C          3.0650    2.7310    3.6840 C.2    57  GLY57       0.2280
     18  O          2.3370    2.4010    4.6220 O.2    57  GLY57      -0.2866
     19  N         -5.5360    6.0150    4.8970 N.3    67  TYR67      -0.1241
     20  CA        -6.3080    4.9960    5.5970 C.3    67  TYR67       0.1605
     21  C         -5.9670    4.9510    7.0780 C.2    67  TYR67       0.2264
     22  O         -4.8210    5.1620    7.4640 O.2    67  TYR67      -0.2867
     23  CB        -6.0420    3.6270    4.9730 C.3    67  TYR67       0.0534
     24  CG        -6.1900    3.6100    3.4730 C.ar   67  TYR67      -0.0201
     25  CD1       -5.1590    4.0420    2.6450 C.ar   67  TYR67      -0.0009
     26  CD2       -7.3560    3.1590    2.8840 C.ar   67  TYR67      -0.0009
     27  CE1       -5.2930    4.0270    1.2770 C.ar   67  TYR67       0.0417
     28  CE2       -7.4990    3.1380    1.5140 C.ar   67  TYR67       0.0417
     29  CZ        -6.4660    3.5740    0.7150 C.ar   67  TYR67       0.1957
     30  OH        -6.5990    3.5570   -0.6520 O.3    67  TYR67      -0.2866
     31  N          8.3470    1.7060    1.7880 N.3    99  GLN99      -0.1245
     32  CA         7.5480    2.2600    0.7010 C.3    99  GLN99       0.1566
     33  C          6.9820    3.6120    1.0980 C.2    99  GLN99       0.2260
     34  O          6.0450    3.6900    1.8960 O.2    99  GLN99      -0.2867
     35  CB         6.4040    1.3410    0.2700 C.3    99  GLN99       0.0367
     36  CG         5.7560    1.8680   -1.0090 C.3    99  GLN99       0.0905
     37  CD         4.4950    1.1530   -1.4160 C.2    99  GLN99       0.2608
     38  OE1        3.5410    1.0740   -0.6530 O.2    99  GLN99      -0.2717
     39  NE2        4.4750    0.6500   -2.6460 N.am   99  GLN99      -0.0878
     40  N          4.8220    6.7290    0.9180 N.3   101  TRP101     -0.1241
     41  CA         3.4550    6.8290    0.4370 C.3   101  TRP101      0.1605
     42  C          2.9100    8.2430    0.5220 C.2   101  TRP101      0.2264
     43  O          3.0090    8.8950    1.5650 O.2   101  TRP101     -0.2867
     44  CB         2.5770    5.9400    1.3080 C.3   101  TRP101      0.0550
     45  CG         1.3310    5.4400    0.6680 C.ar  101  TRP101      0.0003
     46  CD1        0.9250    5.6270   -0.6200 C.ar  101  TRP101      0.0946
     47  CD2        0.3240    4.6400    1.2960 C.ar  101  TRP101      0.0152
     48  NE1       -0.2750    4.9890   -0.8320 N.ar  101  TRP101     -0.2442
     49  CE2       -0.6650    4.3790    0.3310 C.ar  101  TRP101      0.0810
     50  CE3        0.1660    4.1200    2.5840 C.ar  101  TRP101      0.0012
     51  CZ2       -1.8000    3.6210    0.6150 C.ar  101  TRP101      0.0191
     52  CZ3       -0.9590    3.3670    2.8620 C.ar  101  TRP101      0.0001
     53  CH2       -1.9260    3.1250    1.8830 C.ar  101  TRP101      0.0015
     54  N          6.1650    4.9280   -3.8560 N.3   180  HIS180     -0.1241
     55  CA         4.8710    4.4200   -4.2680 C.3   180  HIS180      0.1621
     56  C          4.2860    5.3410   -5.3310 C.2   180  HIS180      0.2264
     57  O          3.7000    6.3730   -5.0170 O.2   180  HIS180     -0.2867
     58  CB         3.9260    4.3080   -3.0760 C.3   180  HIS180      0.0745
     59  CG         2.7310    3.4530   -3.3420 C.ar  180  HIS180      0.0817
     60  ND1        2.3810    3.0420   -4.6120 N.ar  180  HIS180     -0.2268
     61  CD2        1.8130    2.9150   -2.5070 C.ar  180  HIS180      0.1154
     62  CE1        1.2960    2.2940   -4.5450 C.ar  180  HIS180      0.1986
     63  NE2        0.9290    2.2030   -3.2800 N.ar  180  HIS180     -0.2212
     64  N         -1.0520    2.4230   -8.1360 N.3   183  ASN183     -0.1240
     65  CA        -2.3830    2.2470   -7.5720 C.3   183  ASN183      0.1653
     66  C         -3.1240    3.5480   -7.2960 C.2   183  ASN183      0.2266
     67  O         -3.7870    3.6940   -6.2690 O.2   183  ASN183     -0.2867
     68  CB        -2.3100    1.3840   -6.3110 C.3   183  ASN183      0.1155
     69  CG        -1.8110   -0.0220   -6.6010 C.2   183  ASN183      0.2627
     70  OD1       -1.9640   -0.5350   -7.7080 O.2   183  ASN183     -0.2716
     71  ND2       -1.2140   -0.6490   -5.6040 N.am  183  ASN183     -0.0877
     72  N         -2.4030    6.5760   -6.5340 N.3   185  TYR185     -0.1241
     73  CA        -2.0450    7.5100   -5.4770 C.3   185  TYR185      0.1605
     74  C         -1.3550    8.7480   -6.0610 C.2   185  TYR185      0.2264
     75  O         -1.3580    8.9360   -7.2760 O.2   185  TYR185     -0.2867
     76  CB        -1.2290    6.7910   -4.4050 C.3   185  TYR185      0.0534
     77  CG        -2.0610    5.7280   -3.7160 C.ar  185  TYR185     -0.0201
     78  CD1       -3.1990    6.0710   -3.0000 C.ar  185  TYR185     -0.0009
     79  CD2       -1.7290    4.3870   -3.8030 C.ar  185  TYR185     -0.0009
     80  CE1       -3.9710    5.1120   -2.3750 C.ar  185  TYR185      0.0417
     81  CE2       -2.4940    3.4230   -3.1860 C.ar  185  TYR185      0.0417
     82  CZ        -3.6140    3.7860   -2.4750 C.ar  185  TYR185      0.1957
     83  OH        -4.3730    2.8210   -1.8560 O.3   185  TYR185     -0.2866
     84  N          7.7970    2.0120   -7.5400 N.3   232  ARG232     -0.1245
     85  CA         6.7600    1.0740   -7.9330 C.3   232  ARG232      0.1563
     86  C          5.7430    1.7360   -8.8420 C.2   232  ARG232      0.2260
     87  O          5.2200    2.8060   -8.5310 O.2   232  ARG232     -0.2867
     88  CB         6.0500    0.4890   -6.7160 C.3   232  ARG232      0.0307
     89  CG         5.2480   -0.7470   -7.0810 C.3   232  ARG232      0.0489
     90  CD         4.6740   -1.4510   -5.8840 C.3   232  ARG232      0.2205
     91  NE         4.5530   -2.8770   -6.1590 N.pl3 232  ARG232     -0.0865
     92  CZ         3.6900   -3.6970   -5.5760 C.cat 232  ARG232      0.5346
     93  NH1        2.8310   -3.2480   -4.6760 N.pl3 232  ARG232      0.1354
     94  NH2        3.6910   -4.9780   -5.9080 N.pl3 232  ARG232      0.1354
     95  N         -6.4230    0.5080   -9.7950 N.3   239  LEU239     -0.1245
     96  CA        -6.8650    0.5770   -8.4130 C.3   239  LEU239      0.1561
     97  C         -6.9740    2.0420   -7.9960 C.2   239  LEU239      0.2260
     98  O         -6.0470    2.8230   -8.1970 O.2   239  LEU239     -0.2867
     99  CB        -5.8980   -0.1810   -7.4990 C.3   239  LEU239      0.0270
    100  CG        -6.3130   -0.2870   -6.0300 C.3   239  LEU239      0.0019
    101  CD1       -7.7050   -0.8820   -5.9060 C.3   239  LEU239      0.0001
    102  CD2       -5.3040   -1.1170   -5.2510 C.3   239  LEU239      0.0001
    103  N         -4.0470   -6.2580   -8.9560 N.3   272  ASP272     -0.1225
    104  CA        -4.5780   -5.7190   -7.7160 C.3   272  ASP272      0.1805
    105  C         -5.9090   -6.3710   -7.4120 C.2   272  ASP272      0.2597
    106  O         -6.9220   -6.0760   -8.0490 O.2   272  ASP272     -0.2718
    107  CB        -4.7120   -4.2040   -7.7970 C.3   272  ASP272      0.1424
    108  CG        -3.3940   -3.5090   -7.6000 C.2   272  ASP272      0.3668
    109  OD1       -2.9570   -3.3970   -6.4320 O.co2 272  ASP272     -0.2456
    110  OD2       -2.7870   -3.0920   -8.6100 O.co2 272  ASP272     -0.2456
    111  N         -5.8860   -7.2760   -6.4400 N.am  273  TRP273     -0.1976
    112  CA        -7.0540   -8.0650   -6.0900 C.3   273  TRP273      0.1640
    113  C         -7.4980   -8.8400   -7.3350 C.2   273  TRP273      0.2290
    114  O         -6.7470   -9.6790   -7.8350 O.2   273  TRP273     -0.2864
    115  CB        -8.1540   -7.1630   -5.5260 C.3   273  TRP273      0.0576
    116  CG        -7.6570   -6.1820   -4.4780 C.ar  273  TRP273      0.0006
    117  CD1       -7.3640   -4.8590   -4.6680 C.ar  273  TRP273      0.0946
    118  CD2       -7.4000   -6.4510   -3.0920 C.ar  273  TRP273      0.0152
    119  NE1       -6.9440   -4.2890   -3.4870 N.ar  273  TRP273     -0.2442
    120  CE2       -6.9580   -5.2450   -2.5060 C.ar  273  TRP273      0.0810
    121  CE3       -7.5030   -7.5910   -2.2890 C.ar  273  TRP273      0.0012
    122  CZ2       -6.6210   -5.1500   -1.1610 C.ar  273  TRP273      0.0191
    123  CZ3       -7.1690   -7.4920   -0.9530 C.ar  273  TRP273      0.0001
    124  CH2       -6.7360   -6.2810   -0.4020 C.ar  273  TRP273      0.0015
    125  N         -6.6490   -6.0320    7.5100 N.3   349  PHE349     -0.1241
    126  CA        -6.4630   -4.6660    7.9880 C.3   349  PHE349      0.1605
    127  C         -7.0040   -4.4870    9.3960 C.2   349  PHE349      0.2264
    128  O         -8.1070   -4.9360    9.7110 O.2   349  PHE349     -0.2867
    129  CB        -7.1740   -3.6820    7.0590 C.3   349  PHE349      0.0534
    130  CG        -6.9280   -3.9370    5.6010 C.ar  349  PHE349     -0.0203
    131  CD1       -5.7080   -3.6310    5.0300 C.ar  349  PHE349     -0.0042
    132  CD2       -7.9220   -4.4710    4.8000 C.ar  349  PHE349     -0.0042
    133  CE1       -5.4790   -3.8590    3.6930 C.ar  349  PHE349     -0.0003
    134  CE2       -7.6990   -4.7020    3.4620 C.ar  349  PHE349     -0.0003
    135  CZ        -6.4750   -4.3970    2.9060 C.ar  349  PHE349     -0.0000
@<TRIPOS>BOND
     1    95    96    1
     2   103   104    1
     3    86    87    2
     4    86    85    1
     5   110   108   ar
     6    96    97    1
     7    96    99    1
     8    98    97    2
     9    64    65    1
    10   106   105    2
    11    85    84    1
    12    85    88    1
    13   114   113    2
    14   107   104    1
    15   107   108    1
    16   104   105    1
    17    70    69    2
    18   108   109   ar
    19    65    66    1
    20    65    68    1
    21    99   100    1
    22   105   111   am
    23   113   112    1
    24    66    67    2
    25    75    74    2
    26    89    88    1
    27    89    90    1
    28    69    68    1
    29    69    71   am
    30    72    73    1
    31   111   112    1
    32    91    90    1
    33    91    92    2
    34   112   115    1
    35    74    73    1
    36   100   101    1
    37   100   102    1
    38    94    92    1
    39    92    93    1
    40   115   116    1
    41    73    76    1
    42    56    57    2
    43    56    55    1
    44   117   116   ar
    45   117   119   ar
    46    60    62   ar
    47    60    59   ar
    48    62    63   ar
    49   116   118   ar
    50    76    77    1
    51    55    54    1
    52    55    58    1
    53    79    77   ar
    54    79    81   ar
    55    77    78   ar
    56   119   120   ar
    57    59    58    1
    58    59    61   ar
    59    63    61   ar
    60    81    82   ar
    61   118   120   ar
    62   118   121   ar
    63    78    80   ar
    64    39    37   am
    65   120   122   ar
    66    82    80   ar
    67    82    83    1
    68   121   123   ar
    69     7     6    1
    70     7     1    1
    71     6     5    1
    72    37    36    1
    73    37    38    2
    74   122   124   ar
    75    36    35    1
    76   123   124   ar
    77    48    46   ar
    78    48    49   ar
    79     1     2    1
    80    30    29    1
    81    46    45   ar
    82     4     3    2
    83     5     2    1
    84     2     3    1
    85    35    32    1
    86    49    51   ar
    87    49    47   ar
    88    41    42    1
    89    41    40    1
    90    41    44    1
    91    42    43    2
    92    51    53   ar
    93    45    47   ar
    94    45    44    1
    95    32    33    1
    96    32    31    1
    97    29    27   ar
    98    29    28   ar
    99    33    34    2
   100    27    25   ar
   101    47    50   ar
   102    28    26   ar
   103    53    52   ar
   104    16    15    1
   105    16    17    1
   106    50    52   ar
   107    25    24   ar
   108    13    12    1
   109    26    24   ar
   110   135   134   ar
   111   135   133   ar
   112     8     9    1
   113    12     9    1
   114    12    14    1
   115   134   132   ar
   116    24    23    1
   117    17    18    2
   118   133   131   ar
   119     9    10    1
   120    11    10    2
   121   132   130   ar
   122    19    20    1
   123    23    20    1
   124   131   130   ar
   125    20    21    1
   126   130   129    1
   127   129   126    1
   128    21    22    2
   129   125   126    1
   130   126   127    1
   131   127   128    2
