@<TRIPOS>MOLECULE
tmp/4ax6B06.pdb
 159 152 0 0 0
SMALL
GASTEIGER

@<TRIPOS>ATOM
      1  N        -30.9470  -34.4160  -25.4500 N.3    51  TRP51      -0.1241
      2  CA       -30.8900  -33.4460  -24.3600 C.3    51  TRP51       0.1605
      3  C        -30.2560  -34.0220  -23.1250 C.2    51  TRP51       0.2264
      4  O        -30.6770  -35.0670  -22.6200 O.2    51  TRP51      -0.2867
      5  CB       -32.2870  -32.9220  -24.0400 C.3    51  TRP51       0.0550
      6  CG       -32.9090  -32.0770  -25.1300 C.ar   51  TRP51       0.0003
      7  CD1      -33.2120  -32.4570  -26.4390 C.ar   51  TRP51       0.0946
      8  CD2      -33.3560  -30.6770  -25.0300 C.ar   51  TRP51       0.0152
      9  NE1      -33.7840  -31.4200  -27.1320 N.ar   51  TRP51      -0.2442
     10  CE2      -33.9010  -30.3250  -26.3480 C.ar   51  TRP51       0.0810
     11  CE3      -33.3580  -29.7180  -24.0210 C.ar   51  TRP51       0.0012
     12  CZ2      -34.4150  -29.0640  -26.6190 C.ar   51  TRP51       0.0191
     13  CZ3      -33.8800  -28.4500  -24.3070 C.ar   51  TRP51       0.0001
     14  CH2      -34.3960  -28.1330  -25.5750 C.ar   51  TRP51       0.0015
     15  N        -30.5150  -33.2050  -19.9620 N.3    53  ASP53      -0.1239
     16  CA       -31.3340  -32.4500  -19.0070 C.3    53  ASP53       0.1674
     17  C        -31.0110  -32.7250  -17.5340 C.2    53  ASP53       0.2266
     18  O        -31.3670  -31.9320  -16.6560 O.2    53  ASP53      -0.2867
     19  CB       -32.8330  -32.6530  -19.2860 C.3    53  ASP53       0.1410
     20  CG       -33.2310  -34.1180  -19.3560 C.2    53  ASP53       0.3668
     21  OD1      -32.4940  -34.9210  -19.9670 O.co2  53  ASP53      -0.2456
     22  OD2      -34.2990  -34.4670  -18.8140 O.co2  53  ASP53      -0.2456
     23  N        -27.7200  -38.1890  -17.1800 N.3    57  LYS57      -0.1245
     24  CA       -27.9760  -38.3820  -18.6000 C.3    57  LYS57       0.1561
     25  C        -26.6620  -38.3270  -19.3810 C.2    57  LYS57       0.2260
     26  O        -26.6340  -38.6300  -20.5760 O.2    57  LYS57      -0.2867
     27  CB       -28.9470  -37.3180  -19.1180 C.3    57  LYS57       0.0271
     28  CG       -30.0180  -37.8430  -20.0630 C.3    57  LYS57       0.0035
     29  CD       -31.1930  -38.4320  -19.2920 C.3    57  LYS57       0.0206
     30  CE       -32.3830  -38.7140  -20.1950 C.3    57  LYS57       0.1093
     31  NZ       -32.9710  -37.4710  -20.7700 N.3    57  LYS57      -0.1314
     32  N        -28.2790  -28.6660  -21.1330 N.3    85  TYR85      -0.1241
     33  CA       -29.5160  -28.1380  -20.5570 C.3    85  TYR85       0.1605
     34  C        -29.7030  -28.5510  -19.0900 C.2    85  TYR85       0.2264
     35  O        -30.5050  -29.4320  -18.7730 O.2    85  TYR85      -0.2867
     36  CB       -30.7150  -28.5670  -21.4270 C.3    85  TYR85       0.0534
     37  CG       -32.0520  -27.9940  -21.0090 C.ar   85  TYR85      -0.0201
     38  CD1      -32.3050  -26.6270  -21.0900 C.ar   85  TYR85      -0.0009
     39  CD2      -33.0730  -28.8260  -20.5450 C.ar   85  TYR85      -0.0009
     40  CE1      -33.5290  -26.1020  -20.7080 C.ar   85  TYR85       0.0417
     41  CE2      -34.3030  -28.3110  -20.1630 C.ar   85  TYR85       0.0417
     42  CZ       -34.5260  -26.9490  -20.2460 C.ar   85  TYR85       0.1957
     43  OH       -35.7410  -26.4300  -19.8650 O.3    85  TYR85      -0.2866
     44  N        -33.1580  -23.3020  -13.6760 N.3    90  ARG90      -0.1231
     45  CA       -33.4720  -23.5010  -15.0910 C.3    90  ARG90       0.1694
     46  C        -34.8810  -23.0270  -15.4310 C.2    90  ARG90       0.2592
     47  O        -35.7800  -23.0730  -14.5840 O.2    90  ARG90      -0.2718
     48  CB       -33.3380  -24.9870  -15.4340 C.3    90  ARG90       0.0321
     49  CG       -33.1890  -25.3090  -16.9120 C.3    90  ARG90       0.0489
     50  CD       -32.9500  -26.7970  -17.1170 C.3    90  ARG90       0.2205
     51  NE       -34.1170  -27.6050  -16.7560 N.pl3  90  ARG90      -0.0865
     52  CZ       -34.1330  -28.9360  -16.7210 C.cat  90  ARG90       0.5346
     53  NH1      -33.0430  -29.6320  -17.0280 N.pl3  90  ARG90       0.1354
     54  NH2      -35.2440  -29.5750  -16.3770 N.pl3  90  ARG90       0.1354
     55  N        -35.0540  -22.5710  -16.6730 N.am   91  ASP91      -0.1974
     56  CA       -36.3610  -22.1850  -17.2110 C.3    91  ASP91       0.1709
     57  C        -37.0420  -21.1770  -16.2800 C.2    91  ASP91       0.2293
     58  O        -38.1320  -21.4200  -15.7620 O.2    91  ASP91      -0.2864
     59  CB       -37.2240  -23.4370  -17.4280 C.3    91  ASP91       0.1436
     60  CG       -38.4120  -23.1880  -18.3290 C.2    91  ASP91       0.3671
     61  OD1      -38.2470  -22.5510  -19.3900 O.co2  91  ASP91      -0.2456
     62  OD2      -39.5140  -23.6500  -17.9750 O.co2  91  ASP91      -0.2456
     63  N        -40.5250  -26.6790  -16.8870 N.3    97  SER97      -0.1217
     64  CA       -39.2140  -27.2890  -17.1160 C.3    97  SER97       0.1889
     65  C        -38.1670  -26.9530  -16.0530 C.2    97  SER97       0.2288
     66  O        -36.9890  -26.7680  -16.3740 O.2    97  SER97      -0.2866
     67  CB       -38.6940  -26.9140  -18.5060 C.3    97  SER97       0.2089
     68  OG       -39.4250  -27.5760  -19.5230 O.3    97  SER97      -0.2183
     69  N        -30.9660  -23.7670  -23.9670 N.3   136  PRO136     -0.2102
     70  CA       -32.1780  -23.1460  -24.5120 C.3   136  PRO136      0.1504
     71  C        -32.9680  -22.3110  -23.5010 C.2   136  PRO136      0.2575
     72  O        -32.9870  -22.6280  -22.3130 O.2   136  PRO136     -0.2718
     73  CB       -33.0020  -24.3470  -24.9820 C.3   136  PRO136      0.0282
     74  CG       -31.9790  -25.3730  -25.3170 C.3   136  PRO136      0.0208
     75  CD       -30.9230  -25.2110  -24.2630 C.3   136  PRO136      0.0893
     76  N        -33.5950  -21.2430  -23.9960 N.am  137  ALA137     -0.1980
     77  CA       -34.4540  -20.3440  -23.2080 C.3   137  ALA137      0.1597
     78  C        -33.7290  -19.4220  -22.2200 C.2   137  ALA137      0.2287
     79  O        -34.2750  -18.3850  -21.8400 O.2   137  ALA137     -0.2864
     80  CB       -35.5690  -21.1160  -22.5070 C.3   137  ALA137      0.0319
     81  N        -35.5700  -23.3820  -31.1920 N.3   219  VAL219     -0.1231
     82  CA       -35.4680  -24.5980  -30.3750 C.3   219  VAL219      0.1692
     83  C        -36.7240  -24.7900  -29.5250 C.2   219  VAL219      0.2591
     84  O        -37.0740  -23.9310  -28.7080 O.2   219  VAL219     -0.2718
     85  CB       -34.2060  -24.6010  -29.4780 C.3   219  VAL219      0.0266
     86  CG1      -34.2220  -25.7810  -28.5140 C.3   219  VAL219      0.0020
     87  CG2      -32.9400  -24.6290  -30.3230 C.3   219  VAL219      0.0020
     88  N        -37.3950  -25.9200  -29.7470 N.am  220  ALA220     -0.1980
     89  CA       -38.6410  -26.2800  -29.0600 C.3   220  ALA220      0.1597
     90  C        -39.8150  -25.3520  -29.3950 C.2   220  ALA220      0.2287
     91  O        -40.7980  -25.2840  -28.6530 O.2   220  ALA220     -0.2864
     92  CB       -38.4250  -26.3910  -27.5540 C.3   220  ALA220      0.0319
     93  N        -46.6240  -21.5090  -26.2880 N.3   283  TRP283     -0.1241
     94  CA       -45.5120  -22.4070  -26.6170 C.3   283  TRP283      0.1605
     95  C        -45.7320  -23.8490  -26.2460 C.2   283  TRP283      0.2264
     96  O        -45.0780  -24.7340  -26.8010 O.2   283  TRP283     -0.2867
     97  CB       -44.2230  -21.9030  -25.9630 C.3   283  TRP283      0.0550
     98  CG       -44.3620  -21.6420  -24.4790 C.ar  283  TRP283      0.0003
     99  CD1      -44.6560  -20.4330  -23.8520 C.ar  283  TRP283      0.0946
    100  CD2      -44.2290  -22.6140  -23.3810 C.ar  283  TRP283      0.0152
    101  NE1      -44.7080  -20.5820  -22.4900 N.ar  283  TRP283     -0.2442
    102  CE2      -44.4620  -21.8630  -22.1390 C.ar  283  TRP283      0.0810
    103  CE3      -43.9450  -23.9740  -23.3040 C.ar  283  TRP283      0.0012
    104  CZ2      -44.4130  -22.4720  -20.8920 C.ar  283  TRP283      0.0191
    105  CZ3      -43.9020  -24.5760  -22.0400 C.ar  283  TRP283      0.0001
    106  CH2      -44.1310  -23.8420  -20.8660 C.ar  283  TRP283      0.0015
    107  N        -35.5820  -30.1300  -30.6250 N.3   311  LYS311     -0.1231
    108  CA       -36.6270  -30.6980  -29.7820 C.3   311  LYS311      0.1678
    109  C        -37.2190  -31.9420  -30.4480 C.2   311  LYS311      0.2434
    110  O        -37.7060  -31.8640  -31.5770 O.2   311  LYS311     -0.2733
    111  CB       -37.7170  -29.6570  -29.5140 C.3   311  LYS311      0.0284
    112  CG       -38.9800  -30.1940  -28.8560 C.3   311  LYS311      0.0035
    113  CD       -38.7830  -30.4650  -27.3750 C.3   311  LYS311      0.0206
    114  CE       -40.0320  -31.0850  -26.7760 C.3   311  LYS311      0.1093
    115  NZ       -39.9670  -31.1560  -25.2910 N.3   311  LYS311     -0.1314
    116  N        -37.1690  -33.0940  -29.7540 N.am  312  PRO312     -0.2729
    117  CA       -37.7140  -34.3310  -30.3050 C.3   312  PRO312      0.1401
    118  C        -39.2390  -34.3510  -30.2480 C.2   312  PRO312      0.2269
    119  O        -39.8210  -34.2500  -29.1660 O.2   312  PRO312     -0.2865
    120  CB       -37.1200  -35.4180  -29.3960 C.3   312  PRO312      0.0296
    121  CG       -36.0300  -34.7500  -28.6220 C.3   312  PRO312      0.0237
    122  CD       -36.4880  -33.3350  -28.4720 C.3   312  PRO312      0.0939
    123  N        -42.0250  -35.7600  -27.3360 N.3   315  GLU315     -0.1245
    124  CA       -41.6620  -35.4360  -25.9630 C.3   315  GLU315      0.1567
    125  C        -42.3940  -34.1670  -25.5260 C.2   315  GLU315      0.2260
    126  O        -42.2990  -33.1290  -26.1810 O.2   315  GLU315     -0.2867
    127  CB       -40.1450  -35.2810  -25.8330 C.3   315  GLU315      0.0388
    128  CG       -39.3770  -36.5770  -26.0670 C.3   315  GLU315      0.1160
    129  CD       -37.8690  -36.4130  -25.9870 C.2   315  GLU315      0.3649
    130  OE1      -37.3940  -35.4430  -25.3620 O.co2 315  GLU315     -0.2457
    131  OE2      -37.1510  -37.2650  -26.5500 O.co2 315  GLU315     -0.2457
    132  N        -44.0420  -30.7990  -23.6570 N.3   317  ASP317     -0.1239
    133  CA       -43.5380  -29.4860  -23.2440 C.3   317  ASP317      0.1674
    134  C        -43.8540  -29.1530  -21.7850 C.2   317  ASP317      0.2266
    135  O        -43.2630  -28.2350  -21.2160 O.2   317  ASP317     -0.2867
    136  CB       -44.1000  -28.3840  -24.1510 C.3   317  ASP317      0.1410
    137  CG       -43.6700  -28.5360  -25.5990 C.2   317  ASP317      0.3668
    138  OD1      -42.5290  -28.9810  -25.8420 O.co2 317  ASP317     -0.2456
    139  OD2      -44.4750  -28.2010  -26.4960 O.co2 317  ASP317     -0.2456
    140  N        -44.9760  -28.7950  -11.2330 N.3   326  ARG326     -0.1245
    141  CA       -44.4560  -28.0860  -12.4140 C.3   326  ARG326      0.1563
    142  C        -45.5470  -27.7020  -13.4320 C.2   326  ARG326      0.2260
    143  O        -45.3110  -27.7130  -14.6430 O.2   326  ARG326     -0.2867
    144  CB       -43.3220  -28.8760  -13.0970 C.3   326  ARG326      0.0307
    145  CG       -42.1680  -29.2850  -12.1890 C.3   326  ARG326      0.0489
    146  CD       -40.9090  -29.6330  -12.9790 C.3   326  ARG326      0.2205
    147  NE       -41.1370  -30.6420  -14.0170 N.pl3 326  ARG326     -0.0865
    148  CZ       -40.2410  -31.0010  -14.9370 C.cat 326  ARG326      0.5346
    149  NH1      -39.0370  -30.4400  -14.9680 N.pl3 326  ARG326      0.1354
    150  NH2      -40.5500  -31.9250  -15.8360 N.pl3 326  ARG326      0.1354
    151  N        -43.1130  -32.5460  -18.4690 N.3   343  ALA343     -0.1231
    152  CA       -42.1830  -32.0860  -19.5060 C.3   343  ALA343      0.1694
    153  C        -41.0580  -33.0930  -19.7300 C.2   343  ALA343      0.2592
    154  O        -40.4150  -33.5400  -18.7760 O.2   343  ALA343     -0.2718
    155  CB       -41.6140  -30.7210  -19.1460 C.3   343  ALA343      0.0304
    156  N        -40.8370  -33.4520  -20.9930 N.am  344  GLY344     -0.1957
    157  CA       -39.8110  -34.4270  -21.3540 C.3   344  GLY344      0.1869
    158  C        -40.3560  -35.8280  -21.5700 C.2   344  GLY344      0.2309
    159  O        -39.8300  -36.5800  -22.3910 O.2   344  GLY344     -0.2863
@<TRIPOS>BOND
     1   110   109    2
     2    81    82    1
     3   107   108    1
     4   109   108    1
     5   109   116   am
     6    82    83    1
     7    82    85    1
     8    87    85    1
     9   117   118    1
    10   117   116    1
    11   117   120    1
    12   118   119    2
    13   108   111    1
    14   116   122    1
    15    88    83   am
    16    88    89    1
    17    83    84    2
    18   111   112    1
    19    85    86    1
    20   120   121    1
    21    90    89    1
    22    90    91    2
    23    89    92    1
    24   112   113    1
    25   121   122    1
    26   113   114    1
    27   123   124    1
    28     9     7   ar
    29     9    10   ar
    30    96    95    2
    31   114   115    1
    32    12    10   ar
    33    12    14   ar
    34    94    93    1
    35    94    95    1
    36    94    97    1
    37   131   129   ar
    38   139   137   ar
    39     7     6   ar
    40    10     8   ar
    41   126   125    2
    42   128   129    1
    43   128   127    1
    44   129   130   ar
    45    97    98    1
    46   124   127    1
    47   124   125    1
    48   138   137   ar
    49   137   136    1
    50    14    13   ar
    51     1     2    1
    52    74    73    1
    53    74    75    1
    54     6     8   ar
    55     6     5    1
    56     8    11   ar
    57    73    70    1
    58    70    69    1
    59    70    71    1
    60    98    99   ar
    61    98   100   ar
    62     2     5    1
    63     2     3    1
    64    13    11   ar
    65    75    69    1
    66   136   133    1
    67    76    71   am
    68    76    77    1
    69    99   101   ar
    70   132   133    1
    71    71    72    2
    72   100   103   ar
    73   100   102   ar
    74   103   105   ar
    75   133   134    1
    76    77    80    1
    77    77    78    1
    78     3     4    2
    79   101   102   ar
    80   159   158    2
    81    78    79    2
    82   102   104   ar
    83   105   106   ar
    84   134   135    2
    85   158   157    1
    86    36    37    1
    87    36    33    1
    88   157   156    1
    89    32    33    1
    90    38    37   ar
    91    38    40   ar
    92    37    39   ar
    93   156   153   am
    94   104   106   ar
    95    31    30    1
    96    40    42   ar
    97    26    25    2
    98    33    34    1
    99    39    41   ar
   100    42    41   ar
   101    42    43    1
   102    30    29    1
   103    28    29    1
   104    28    27    1
   105    21    20   ar
   106    15    16    1
   107   153   152    1
   108   153   154    2
   109    68    67    1
   110   152   155    1
   111   152   151    1
   112    61    60   ar
   113    25    24    1
   114    20    19    1
   115    20    22   ar
   116    19    16    1
   117    27    24    1
   118    34    35    2
   119    16    17    1
   120    24    23    1
   121    67    64    1
   122    60    62   ar
   123    60    59    1
   124    17    18    2
   125    59    56    1
   126    56    55    1
   127    56    57    1
   128    50    49    1
   129    50    51    1
   130    64    63    1
   131    64    65    1
   132    53    52    1
   133    49    48    1
   134    51    52    2
   135    52    54    1
   136    55    46   am
   137    66    65    2
   138    57    58    2
   139   150   148    1
   140    48    45    1
   141    46    45    1
   142    46    47    2
   143    45    44    1
   144   149   148    1
   145   148   147    2
   146   143   142    2
   147   147   146    1
   148   142   141    1
   149   144   141    1
   150   144   145    1
   151   146   145    1
   152   141   140    1
