@<TRIPOS>MOLECULE
tmp/4ax6B05.pdb
 143 141 0 0 0
SMALL
GASTEIGER

@<TRIPOS>ATOM
      1  N        -35.0540  -22.5710  -16.6730 N.3    91  ASP91      -0.1239
      2  CA       -36.3610  -22.1850  -17.2110 C.3    91  ASP91       0.1674
      3  C        -37.0420  -21.1770  -16.2800 C.2    91  ASP91       0.2266
      4  O        -38.1320  -21.4200  -15.7620 O.2    91  ASP91      -0.2867
      5  CB       -37.2240  -23.4370  -17.4280 C.3    91  ASP91       0.1410
      6  CG       -38.4120  -23.1880  -18.3290 C.2    91  ASP91       0.3668
      7  OD1      -38.2470  -22.5510  -19.3900 O.co2  91  ASP91      -0.2456
      8  OD2      -39.5140  -23.6500  -17.9750 O.co2  91  ASP91      -0.2456
      9  N        -38.5110  -18.2070  -16.4560 N.3    93  ALA93      -0.1231
     10  CA       -39.7380  -17.4610  -16.7500 C.3    93  ALA93       0.1694
     11  C        -40.9830  -18.3460  -16.8460 C.2    93  ALA93       0.2591
     12  O        -42.0930  -17.8470  -17.0460 O.2    93  ALA93      -0.2718
     13  CB       -39.5700  -16.6370  -18.0160 C.3    93  ALA93       0.0304
     14  N        -40.7920  -19.6550  -16.7030 N.am   94  ALA94      -0.1980
     15  CA       -41.8960  -20.6120  -16.7290 C.3    94  ALA94       0.1597
     16  C        -41.7670  -21.6310  -15.5910 C.2    94  ALA94       0.2287
     17  O        -40.8320  -21.5570  -14.7900 O.2    94  ALA94      -0.2864
     18  CB       -41.9640  -21.3020  -18.0820 C.3    94  ALA94       0.0319
     19  N        -30.9660  -23.7670  -23.9670 N.3   136  PRO136     -0.2102
     20  CA       -32.1780  -23.1460  -24.5120 C.3   136  PRO136      0.1504
     21  C        -32.9680  -22.3110  -23.5010 C.2   136  PRO136      0.2575
     22  O        -32.9870  -22.6280  -22.3130 O.2   136  PRO136     -0.2718
     23  CB       -33.0020  -24.3470  -24.9820 C.3   136  PRO136      0.0282
     24  CG       -31.9790  -25.3730  -25.3170 C.3   136  PRO136      0.0208
     25  CD       -30.9230  -25.2110  -24.2630 C.3   136  PRO136      0.0893
     26  N        -33.5950  -21.2430  -23.9960 N.am  137  ALA137     -0.1980
     27  CA       -34.4540  -20.3440  -23.2080 C.3   137  ALA137      0.1597
     28  C        -33.7290  -19.4220  -22.2200 C.2   137  ALA137      0.2287
     29  O        -34.2750  -18.3850  -21.8400 O.2   137  ALA137     -0.2864
     30  CB       -35.5690  -21.1160  -22.5070 C.3   137  ALA137      0.0319
     31  N        -34.4420  -15.3150  -22.0590 N.3   141  ASN141     -0.1240
     32  CA       -35.1560  -14.8610  -20.8620 C.3   141  ASN141      0.1653
     33  C        -34.5090  -13.6490  -20.1960 C.2   141  ASN141      0.2266
     34  O        -35.1820  -12.8860  -19.5010 O.2   141  ASN141     -0.2867
     35  CB       -35.2880  -15.9930  -19.8360 C.3   141  ASN141      0.1155
     36  CG       -36.4640  -16.9120  -20.1180 C.2   141  ASN141      0.2627
     37  OD1      -37.5380  -16.4660  -20.5240 O.2   141  ASN141     -0.2716
     38  ND2      -36.2670  -18.2060  -19.8890 N.am  141  ASN141     -0.0877
     39  N        -35.9660  -10.4070  -22.2830 N.3   144  THR144     -0.1203
     40  CA       -37.3810  -10.0230  -22.2120 C.3   144  THR144      0.1994
     41  C        -38.0530  -10.2560  -20.8560 C.2   144  THR144      0.2617
     42  O        -39.1020   -9.6700  -20.5810 O.2   144  THR144     -0.2717
     43  CB       -38.2230  -10.7420  -23.2900 C.3   144  THR144      0.1784
     44  OG1      -38.0930  -12.1600  -23.1360 O.3   144  THR144     -0.2211
     45  CG2      -37.7850  -10.3330  -24.6940 C.3   144  THR144      0.0376
     46  N        -37.4560  -11.0990  -20.0150 N.am  145  ASN145     -0.1974
     47  CA       -38.1020  -11.5140  -18.7670 C.3   145  ASN145      0.1688
     48  C        -37.3740  -11.1380  -17.4720 C.2   145  ASN145      0.2292
     49  O        -37.4190  -11.8850  -16.4960 O.2   145  ASN145     -0.2864
     50  CB       -38.3990  -13.0220  -18.7920 C.3   145  ASN145      0.1181
     51  CG       -39.6590  -13.3580  -19.5670 C.2   145  ASN145      0.2629
     52  OD1      -40.7500  -12.9070  -19.2250 O.2   145  ASN145     -0.2716
     53  ND2      -39.5150  -14.1720  -20.6080 N.am  145  ASN145     -0.0877
     54  N        -36.4360  -17.3170  -30.8250 N.3   182  HIS182     -0.1241
     55  CA       -37.0230  -17.3600  -32.1640 C.3   182  HIS182      0.1621
     56  C        -37.5550  -16.0150  -32.5900 C.2   182  HIS182      0.2264
     57  O        -37.4780  -15.0390  -31.8350 O.2   182  HIS182     -0.2867
     58  CB       -38.1120  -18.4330  -32.2350 C.3   182  HIS182      0.0745
     59  CG       -39.1650  -18.3090  -31.1600 C.ar  182  HIS182      0.0817
     60  ND1      -40.2540  -17.5340  -31.3010 N.ar  182  HIS182     -0.2268
     61  CD2      -39.2620  -18.8960  -29.9010 C.ar  182  HIS182      0.1154
     62  CE1      -41.0120  -17.6170  -30.1930 C.ar  182  HIS182      0.1986
     63  NE2      -40.4040  -18.4520  -29.3360 N.ar  182  HIS182     -0.2212
     64  N        -40.5310  -14.9320  -32.8620 N.3   184  GLY184     -0.1210
     65  CA       -41.6230  -14.4640  -32.0100 C.3   184  GLY184      0.1956
     66  C        -41.1550  -13.9850  -30.6510 C.2   184  GLY184      0.2611
     67  O        -41.8860  -13.2880  -29.9470 O.2   184  GLY184     -0.2717
     68  N        -39.9330  -14.3640  -30.2860 N.am  185  TRP185     -0.1976
     69  CA       -39.3440  -13.9740  -29.0130 C.3   185  TRP185      0.1640
     70  C        -38.5290  -12.7230  -29.1730 C.2   185  TRP185      0.2290
     71  O        -38.8990  -11.6660  -28.6610 O.2   185  TRP185     -0.2864
     72  CB       -38.4750  -15.1020  -28.4620 C.3   185  TRP185      0.0576
     73  CG       -38.2320  -15.0460  -26.9700 C.ar  185  TRP185      0.0006
     74  CD1      -38.2160  -13.9200  -26.1430 C.ar  185  TRP185      0.0946
     75  CD2      -37.9280  -16.1730  -26.0770 C.ar  185  TRP185      0.0152
     76  NE1      -37.9490  -14.2680  -24.8440 N.ar  185  TRP185     -0.2442
     77  CE2      -37.7650  -15.6010  -24.7330 C.ar  185  TRP185      0.0810
     78  CE3      -37.7890  -17.5470  -26.2470 C.ar  185  TRP185      0.0012
     79  CZ2      -37.4760  -16.3900  -23.6290 C.ar  185  TRP185      0.0191
     80  CZ3      -37.4960  -18.3310  -25.1240 C.ar  185  TRP185      0.0001
     81  CH2      -37.3440  -17.7640  -23.8480 C.ar  185  TRP185      0.0015
     82  N        -35.5700  -23.3820  -31.1920 N.3   219  VAL219     -0.1231
     83  CA       -35.4680  -24.5980  -30.3750 C.3   219  VAL219      0.1692
     84  C        -36.7240  -24.7900  -29.5250 C.2   219  VAL219      0.2592
     85  O        -37.0740  -23.9310  -28.7080 O.2   219  VAL219     -0.2718
     86  CB       -34.2060  -24.6010  -29.4780 C.3   219  VAL219      0.0266
     87  CG1      -34.2220  -25.7810  -28.5140 C.3   219  VAL219      0.0020
     88  CG2      -32.9400  -24.6290  -30.3230 C.3   219  VAL219      0.0020
     89  N        -37.3950  -25.9200  -29.7470 N.am  220  ALA220     -0.1966
     90  CA       -38.6410  -26.2800  -29.0600 C.3   220  ALA220      0.1728
     91  C        -39.8150  -25.3520  -29.3950 C.2   220  ALA220      0.2616
     92  O        -40.7980  -25.2840  -28.6530 O.2   220  ALA220     -0.2715
     93  CB       -38.4250  -26.3910  -27.5540 C.3   220  ALA220      0.0334
     94  N        -39.7020  -24.6490  -30.5210 N.am  221  ASN221     -0.1972
     95  CA       -40.7760  -23.7960  -31.0200 C.3   221  ASN221      0.1688
     96  C        -41.2730  -24.2650  -32.3940 C.2   221  ASN221      0.2292
     97  O        -40.8820  -25.3360  -32.8620 O.2   221  ASN221     -0.2864
     98  CB       -40.3450  -22.3280  -31.0470 C.3   221  ASN221      0.1181
     99  CG       -41.5020  -21.3780  -30.8020 C.2   221  ASN221      0.2629
    100  OD1      -41.9480  -21.2050  -29.6680 O.2   221  ASN221     -0.2716
    101  ND2      -41.9880  -20.7490  -31.8650 N.am  221  ASN221     -0.0877
    102  N        -49.0590  -15.7360  -30.3060 N.3   280  TRP280     -0.1227
    103  CA       -47.7040  -16.0980  -30.7270 C.3   280  TRP280      0.1737
    104  C        -46.8470  -16.6060  -29.5970 C.2   280  TRP280      0.2596
    105  O        -45.9650  -17.4430  -29.8100 O.2   280  TRP280     -0.2718
    106  CB       -47.0320  -14.9170  -31.4200 C.3   280  TRP280      0.0564
    107  CG       -46.0160  -15.3110  -32.4690 C.ar  280  TRP280      0.0003
    108  CD1      -45.7200  -16.5920  -32.9320 C.ar  280  TRP280      0.0946
    109  CD2      -45.1610  -14.4150  -33.2640 C.ar  280  TRP280      0.0152
    110  NE1      -44.7540  -16.5520  -33.9060 N.ar  280  TRP280     -0.2442
    111  CE2      -44.3780  -15.2800  -34.1560 C.ar  280  TRP280      0.0810
    112  CE3      -44.9660  -13.0380  -33.3170 C.ar  280  TRP280      0.0012
    113  CZ2      -43.4490  -14.7650  -35.0510 C.ar  280  TRP280      0.0191
    114  CZ3      -44.0250  -12.5320  -34.2220 C.ar  280  TRP280      0.0001
    115  CH2      -43.2870  -13.3770  -35.0670 C.ar  280  TRP280      0.0015
    116  N        -47.1060  -16.1110  -28.3880 N.am  281  GLY281     -0.1957
    117  CA       -46.3530  -16.5070  -27.1960 C.3   281  GLY281      0.1869
    118  C        -46.7880  -17.8230  -26.5720 C.2   281  GLY281      0.2309
    119  O        -46.2190  -18.2580  -25.5680 O.2   281  GLY281     -0.2863
    120  N        -46.6240  -21.5090  -26.2880 N.3   283  TRP283     -0.1241
    121  CA       -45.5120  -22.4070  -26.6170 C.3   283  TRP283      0.1605
    122  C        -45.7320  -23.8490  -26.2460 C.2   283  TRP283      0.2264
    123  O        -45.0780  -24.7340  -26.8010 O.2   283  TRP283     -0.2867
    124  CB       -44.2230  -21.9030  -25.9630 C.3   283  TRP283      0.0550
    125  CG       -44.3620  -21.6420  -24.4790 C.ar  283  TRP283      0.0003
    126  CD1      -44.6560  -20.4330  -23.8520 C.ar  283  TRP283      0.0946
    127  CD2      -44.2290  -22.6140  -23.3810 C.ar  283  TRP283      0.0152
    128  NE1      -44.7080  -20.5820  -22.4900 N.ar  283  TRP283     -0.2442
    129  CE2      -44.4620  -21.8630  -22.1390 C.ar  283  TRP283      0.0810
    130  CE3      -43.9450  -23.9740  -23.3040 C.ar  283  TRP283      0.0012
    131  CZ2      -44.4130  -22.4720  -20.8920 C.ar  283  TRP283      0.0191
    132  CZ3      -43.9020  -24.5760  -22.0400 C.ar  283  TRP283      0.0001
    133  CH2      -44.1310  -23.8420  -20.8660 C.ar  283  TRP283      0.0015
    134  N        -49.8320  -21.8880  -19.2580 N.3   330  HIS330     -0.1241
    135  CA       -49.6980  -21.9490  -20.7200 C.3   330  HIS330      0.1621
    136  C        -50.0720  -23.2930  -21.2820 C.2   330  HIS330      0.2264
    137  O        -50.5610  -23.3890  -22.4090 O.2   330  HIS330     -0.2867
    138  CB       -48.2770  -21.5950  -21.1460 C.3   330  HIS330      0.0745
    139  CG       -47.9220  -20.1430  -20.9420 C.ar  330  HIS330      0.0817
    140  ND1      -47.3880  -19.6820  -19.7960 N.ar  330  HIS330     -0.2268
    141  CD2      -48.0450  -19.0440  -21.7890 C.ar  330  HIS330      0.1154
    142  CE1      -47.1790  -18.3560  -19.9000 C.ar  330  HIS330      0.1986
    143  NE2      -47.5810  -17.9660  -21.1210 N.ar  330  HIS330     -0.2212
@<TRIPOS>BOND
     1   115   113   ar
     2   115   114   ar
     3   113   111   ar
     4   114   112   ar
     5   111   110   ar
     6   111   109   ar
     7   110   108   ar
     8   112   109   ar
     9   109   107   ar
    10   108   107   ar
    11    97    96    2
    12    64    65    1
    13    56    55    1
    14    56    57    2
    15   107   106    1
    16    96    95    1
    17    58    55    1
    18    58    59    1
    19    55    54    1
    20    65    66    1
    21   101    99   am
    22   106   103    1
    23    60    59   ar
    24    60    62   ar
    25    82    83    1
    26    59    61   ar
    27    98    95    1
    28    98    99    1
    29    95    94    1
    30    99   100    2
    31   103   102    1
    32   103   104    1
    33    66    68   am
    34    66    67    2
    35    94    91   am
    36    83    84    1
    37    83    86    1
    38    88    86    1
    39    68    69    1
    40    62    63   ar
    41    61    63   ar
    42   105   104    2
    43    89    84   am
    44    89    90    1
    45   104   116   am
    46    84    85    2
    47    86    87    1
    48    91    90    1
    49    91    92    2
    50    70    69    1
    51    70    71    2
    52    90    93    1
    53    69    72    1
    54    72    73    1
    55   116   117    1
    56   117   118    1
    57    73    74   ar
    58    73    75   ar
    59   123   122    2
    60   121   120    1
    61   121   122    1
    62   121   124    1
    63   118   119    2
    64    78    75   ar
    65    78    80   ar
    66    74    76   ar
    67    75    77   ar
    68   124   125    1
    69    24    23    1
    70    24    25    1
    71    80    81   ar
    72    23    20    1
    73    76    77   ar
    74    77    79   ar
    75    45    43    1
    76    20    19    1
    77    20    21    1
    78   125   126   ar
    79   125   127   ar
    80    25    19    1
    81    26    21   am
    82    26    27    1
    83   126   128   ar
    84    81    79   ar
    85    21    22    2
    86   127   130   ar
    87   127   129   ar
    88   130   132   ar
    89    43    44    1
    90    43    40    1
    91    27    30    1
    92    27    28    1
    93   128   129   ar
    94   137   136    2
    95    39    40    1
    96    28    29    2
    97    40    41    1
    98   129   131   ar
    99    31    32    1
   100   132   133   ar
   101   141   143   ar
   102   141   139   ar
   103   136   135    1
   104   138   139    1
   105   138   135    1
   106   143   142   ar
   107   139   140   ar
   108   131   133   ar
   109    32    33    1
   110    32    35    1
   111    41    42    2
   112    41    46   am
   113   135   134    1
   114    53    51   am
   115    37    36    2
   116    33    34    2
   117    36    38   am
   118    36    35    1
   119    46    47    1
   120   142   140   ar
   121    51    52    2
   122    51    50    1
   123     7     6   ar
   124    50    47    1
   125    47    48    1
   126     6     8   ar
   127     6     5    1
   128    18    15    1
   129    13    10    1
   130    48    49    2
   131     5     2    1
   132     2     1    1
   133     2     3    1
   134    12    11    2
   135    11    10    1
   136    11    14   am
   137    10     9    1
   138    15    14    1
   139    15    16    1
   140     3     4    2
   141    16    17    2
