@<TRIPOS>MOLECULE
tmp/4ax7B06.pdb
 94 88 0 0 0
SMALL
GASTEIGER

@<TRIPOS>ATOM
      1  N         37.0650  -35.7260  -55.3040 N.3    91  ASP91      -0.1239
      2  CA        38.4230  -35.1750  -55.3170 C.3    91  ASP91       0.1674
      3  C         39.0470  -35.4220  -56.7000 C.2    91  ASP91       0.2266
      4  O         40.1430  -35.9680  -56.8140 O.2    91  ASP91      -0.2867
      5  CB        39.2390  -35.8410  -54.1870 C.3    91  ASP91       0.1410
      6  CG        40.5740  -35.1700  -53.9180 C.2    91  ASP91       0.3668
      7  OD1       40.7570  -33.9850  -54.2480 O.co2  91  ASP91      -0.2456
      8  OD2       41.4540  -35.8520  -53.3490 O.co2  91  ASP91      -0.2456
      9  N         40.6310  -33.8980  -59.0280 N.3    93  ALA93      -0.1231
     10  CA        41.9380  -33.3810  -59.4670 C.3    93  ALA93       0.1694
     11  C         43.1170  -34.2230  -58.9750 C.2    93  ALA93       0.2591
     12  O         44.2510  -34.0210  -59.4150 O.2    93  ALA93      -0.2718
     13  CB        42.1110  -31.9240  -59.0690 C.3    93  ALA93       0.0304
     14  N         42.8440  -35.1620  -58.0680 N.am   94  ALA94      -0.1980
     15  CA        43.8630  -36.0860  -57.5670 C.3    94  ALA94       0.1597
     16  C         43.8740  -37.3940  -58.3660 C.2    94  ALA94       0.2287
     17  O         42.8160  -37.9230  -58.7340 O.2    94  ALA94      -0.2864
     18  CB        43.6490  -36.3620  -56.0870 C.3    94  ALA94       0.0319
     19  N         35.5370  -28.8450  -52.5860 N.3   134  ALA134     -0.1245
     20  CA        36.3140  -29.1100  -53.7930 C.3   134  ALA134      0.1562
     21  C         35.5930  -30.0610  -54.7430 C.2   134  ALA134      0.2260
     22  O         36.1350  -31.0930  -55.1320 O.2   134  ALA134     -0.2867
     23  CB        37.6920  -29.6450  -53.4370 C.3   134  ALA134      0.0290
     24  N         39.3920  -26.9570  -63.4590 N.3   142  ASN142     -0.1240
     25  CA        40.1020  -28.2170  -63.7080 C.3   142  ASN142      0.1653
     26  C         39.4630  -29.1740  -64.7160 C.2   142  ASN142      0.2266
     27  O         39.7030  -30.3830  -64.6640 O.2   142  ASN142     -0.2867
     28  CB        40.3650  -28.9410  -62.3840 C.3   142  ASN142      0.1155
     29  CG        41.2590  -28.1450  -61.4540 C.2   142  ASN142      0.2627
     30  OD1       42.1470  -27.4180  -61.9000 O.2   142  ASN142     -0.2716
     31  ND2       41.0310  -28.2810  -60.1550 N.am  142  ASN142     -0.0877
     32  N         41.9750  -19.5730  -55.3480 N.3   182  TRP182     -0.1241
     33  CA        41.4310  -20.4920  -56.3210 C.3   182  TRP182      0.1605
     34  C         40.4690  -19.7310  -57.1740 C.2   182  TRP182      0.2264
     35  O         40.7870  -19.3750  -58.2970 O.2   182  TRP182     -0.2867
     36  CB        40.7500  -21.6700  -55.6220 C.3   182  TRP182      0.0550
     37  CG        40.5250  -22.8560  -56.5370 C.ar  182  TRP182      0.0003
     38  CD1       40.6170  -22.8830  -57.9310 C.ar  182  TRP182      0.0946
     39  CD2       40.1290  -24.2150  -56.1580 C.ar  182  TRP182      0.0152
     40  NE1       40.3300  -24.1300  -58.4180 N.ar  182  TRP182     -0.2442
     41  CE2       40.0320  -24.9790  -57.4120 C.ar  182  TRP182      0.0810
     42  CE3       39.8660  -24.8580  -54.9550 C.ar  182  TRP182      0.0012
     43  CZ2       39.6850  -26.3210  -57.4300 C.ar  182  TRP182      0.0191
     44  CZ3       39.5190  -26.2140  -54.9840 C.ar  182  TRP182      0.0001
     45  CH2       39.4380  -26.9290  -56.1940 C.ar  182  TRP182      0.0015
     46  N         39.2760  -26.3560  -45.2830 N.3   217  ALA217     -0.1245
     47  CA        40.5310  -27.1120  -45.2310 C.3   217  ALA217      0.1562
     48  C         41.7160  -26.3370  -45.8090 C.2   217  ALA217      0.2260
     49  O         42.7690  -26.9150  -46.0870 O.2   217  ALA217     -0.2867
     50  CB        40.3980  -28.4960  -45.8960 C.3   217  ALA217      0.0290
     51  N         49.2420  -22.8260  -54.2430 N.3   278  GLY278     -0.1225
     52  CA        48.5380  -24.0820  -54.4710 C.3   278  GLY278      0.1811
     53  C         49.0130  -25.2630  -53.6510 C.2   278  GLY278      0.2280
     54  O         48.5170  -26.3750  -53.8210 O.2   278  GLY278     -0.2866
     55  N         48.7300  -27.3120  -50.6910 N.3   280  TRP280     -0.1241
     56  CA        47.5310  -27.4670  -49.8730 C.3   280  TRP280      0.1605
     57  C         47.6760  -28.4580  -48.7620 C.2   280  TRP280      0.2264
     58  O         46.8710  -28.4640  -47.8310 O.2   280  TRP280     -0.2867
     59  CB        46.3550  -27.8930  -50.7600 C.3   280  TRP280      0.0550
     60  CG        46.6430  -29.1550  -51.5530 C.ar  280  TRP280      0.0003
     61  CD1       47.1640  -29.2450  -52.8370 C.ar  280  TRP280      0.0946
     62  CD2       46.4460  -30.5510  -51.1240 C.ar  280  TRP280      0.0152
     63  NE1       47.2930  -30.5570  -53.2270 N.ar  280  TRP280     -0.2442
     64  CE2       46.8800  -31.3900  -52.2500 C.ar  280  TRP280      0.0810
     65  CE3       45.9590  -31.1660  -49.9740 C.ar  280  TRP280      0.0012
     66  CZ2       46.8260  -32.7760  -52.1990 C.ar  280  TRP280      0.0191
     67  CZ3       45.9170  -32.5690  -49.9320 C.ar  280  TRP280      0.0001
     68  CH2       46.3460  -33.3520  -51.0200 C.ar  280  TRP280      0.0015
     69  N         45.8240  -34.1070  -43.9840 N.3   314  ASP314     -0.1239
     70  CA        45.3570  -33.7490  -45.3270 C.3   314  ASP314      0.1674
     71  C         45.6700  -34.8000  -46.3820 C.2   314  ASP314      0.2266
     72  O         45.0980  -34.7670  -47.4720 O.2   314  ASP314     -0.2867
     73  CB        45.9770  -32.4340  -45.7940 C.3   314  ASP314      0.1410
     74  CG        45.5560  -31.2510  -44.9460 C.2   314  ASP314      0.3668
     75  OD1       44.4230  -31.2500  -44.4350 O.co2 314  ASP314     -0.2456
     76  OD2       46.3620  -30.3160  -44.8200 O.co2 314  ASP314     -0.2456
     77  N         49.9600  -38.3340  -52.9060 N.3   325  ASP325     -0.1239
     78  CA        49.9760  -37.1600  -53.7580 C.3   325  ASP325      0.1674
     79  C         51.2970  -36.4350  -53.5190 C.2   325  ASP325      0.2266
     80  O         51.6780  -36.1940  -52.3690 O.2   325  ASP325     -0.2867
     81  CB        48.7830  -36.2580  -53.4180 C.3   325  ASP325      0.1410
     82  CG        48.5230  -35.1950  -54.4720 C.2   325  ASP325      0.3668
     83  OD1       49.4200  -34.3660  -54.7320 O.co2 325  ASP325     -0.2456
     84  OD2       47.4020  -35.1720  -55.0270 O.co2 325  ASP325     -0.2456
     85  N         52.1420  -33.4830  -53.7780 N.3   327  HIS327     -0.1241
     86  CA        51.9580  -32.2490  -53.0140 C.3   327  HIS327      0.1621
     87  C         52.1710  -32.4350  -51.5390 C.2   327  HIS327      0.2264
     88  O         52.5330  -31.4950  -50.8420 O.2   327  HIS327     -0.2867
     89  CB        50.5880  -31.6320  -53.2850 C.3   327  HIS327      0.0745
     90  CG        50.5730  -30.7040  -54.4700 C.ar  327  HIS327      0.0817
     91  ND1       50.5080  -31.1510  -55.7400 N.ar  327  HIS327     -0.2268
     92  CD2       50.6480  -29.3160  -54.5440 C.ar  327  HIS327      0.1154
     93  CE1       50.5260  -30.1020  -56.5820 C.ar  327  HIS327      0.1986
     94  NE2       50.6130  -28.9790  -55.8480 N.ar  327  HIS327     -0.2212
@<TRIPOS>BOND
     1    26    27    2
     2    26    25    1
     3    25    24    1
     4    25    28    1
     5    28    29    1
     6    30    29    2
     7    29    31   am
     8    10    13    1
     9    10     9    1
    10    10    11    1
    11    12    11    2
    12    11    14   am
    13    17    16    2
    14    40    38   ar
    15    40    41   ar
    16    16    15    1
    17    35    34    2
    18    14    15    1
    19    38    37   ar
    20    15    18    1
    21    43    41   ar
    22    43    45   ar
    23    41    39   ar
    24    34    33    1
    25     4     3    2
    26     3     2    1
    27    93    94   ar
    28    93    91   ar
    29    37    39   ar
    30    37    36    1
    31    33    36    1
    32    33    32    1
    33    45    44   ar
    34    39    42   ar
    35    94    92   ar
    36    91    90   ar
    37     2     1    1
    38     2     5    1
    39    22    21    2
    40    84    82   ar
    41    44    42   ar
    42    21    20    1
    43    83    82   ar
    44    92    90   ar
    45    82    81    1
    46    52    51    1
    47    52    53    1
    48    90    89    1
    49     7     6   ar
    50     5     6    1
    51     6     8   ar
    52    54    53    2
    53    20    23    1
    54    20    19    1
    55    85    86    1
    56    78    79    1
    57    78    81    1
    58    78    77    1
    59    79    80    2
    60    89    86    1
    61    63    61   ar
    62    63    64   ar
    63    86    87    1
    64    61    60   ar
    65    64    66   ar
    66    64    62   ar
    67    66    68   ar
    68    60    62   ar
    69    60    59    1
    70    87    88    2
    71    62    65   ar
    72    68    67   ar
    73    59    56    1
    74    55    56    1
    75    65    67   ar
    76    56    57    1
    77    57    58    2
    78    72    71    2
    79    71    70    1
    80    49    48    2
    81    50    47    1
    82    48    47    1
    83    73    70    1
    84    73    74    1
    85    70    69    1
    86    46    47    1
    87    74    76   ar
    88    74    75   ar
