@<TRIPOS>MOLECULE
tmp/4ax8A01.pdb
 223 216 0 0 0
SMALL
GASTEIGER

@<TRIPOS>ATOM
      1  N         35.0890   93.8170  101.8920 N.3   223  GLN223     -0.1245
      2  CA        36.2270   94.7530  102.0640 C.3   223  GLN223      0.1566
      3  C         37.1040   94.3260  103.1950 C.2   223  GLN223      0.2260
      4  O         36.6810   93.6480  104.1410 O.2   223  GLN223     -0.2867
      5  CB        35.8060   96.2290  102.2400 C.3   223  GLN223      0.0367
      6  CG        34.7220   96.4500  103.2930 C.3   223  GLN223      0.0905
      7  CD        33.9830   97.7700  103.1410 C.2   223  GLN223      0.2608
      8  OE1       33.9900   98.5990  104.0500 O.2   223  GLN223     -0.2717
      9  NE2       33.3360   97.9640  102.0020 N.am  223  GLN223     -0.0878
     10  N         37.2470   98.7540  107.4520 N.3   226  PRO226     -0.2102
     11  CA        35.8830   99.0340  107.8670 C.3   226  PRO226      0.1504
     12  C         35.2040  100.1590  107.0740 C.2   226  PRO226      0.2575
     13  O         33.9950  100.1640  106.9120 O.2   226  PRO226     -0.2718
     14  CB        36.0290   99.3660  109.3580 C.3   226  PRO226      0.0282
     15  CG        37.4430   99.7020  109.5590 C.3   226  PRO226      0.0208
     16  CD        38.2030   98.9190  108.5510 C.3   226  PRO226      0.0893
     17  N         36.0020  101.0620  106.5410 N.am  227  TYR227     -0.1977
     18  CA        35.4810  102.2420  105.8130 C.3   227  TYR227      0.1639
     19  C         36.5490  102.9020  104.9350 C.2   227  TYR227      0.2290
     20  O         37.7540  102.7910  105.2070 O.2   227  TYR227     -0.2864
     21  CB        34.8720  103.2650  106.7950 C.3   227  TYR227      0.0560
     22  CG        35.8210  103.6770  107.9000 C.ar  227  TYR227     -0.0198
     23  CD1       35.8710  102.9750  109.1040 C.ar  227  TYR227     -0.0009
     24  CD2       36.6730  104.7660  107.7330 C.ar  227  TYR227     -0.0009
     25  CE1       36.7490  103.3390  110.1060 C.ar  227  TYR227      0.0417
     26  CE2       37.5540  105.1450  108.7270 C.ar  227  TYR227      0.0417
     27  CZ        37.5890  104.4330  109.9130 C.ar  227  TYR227      0.1957
     28  OH        38.4640  104.8330  110.9040 O.3   227  TYR227     -0.2866
     29  N         43.7390   97.9810  111.7370 N.3   234  HIS234     -0.1241
     30  CA        43.5320   96.5800  112.2160 C.3   234  HIS234      0.1621
     31  C         44.3910   95.5850  111.4840 C.2   234  HIS234      0.2264
     32  O         44.1880   94.3680  111.4970 O.2   234  HIS234     -0.2867
     33  CB        42.0730   96.2200  112.1280 C.3   234  HIS234      0.0745
     34  CG        41.1720   97.2020  112.8600 C.ar  234  HIS234      0.0817
     35  ND1       41.2460   97.4070  114.1940 N.ar  234  HIS234     -0.2268
     36  CD2       40.1740   98.0490  112.3890 C.ar  234  HIS234      0.1154
     37  CE1       40.3260   98.3260  114.5640 C.ar  234  HIS234      0.1986
     38  NE2       39.6700   98.7190  113.4590 N.ar  234  HIS234     -0.2212
     39  N         40.7110   91.9100  109.7070 N.3   238  ARG238     -0.1245
     40  CA        39.2510   91.9610  109.7060 C.3   238  ARG238      0.1563
     41  C         38.7140   92.0670  108.3050 C.2   238  ARG238      0.2260
     42  O         39.2110   92.8370  107.4960 O.2   238  ARG238     -0.2867
     43  CB        38.7570   93.1350  110.5160 C.3   238  ARG238      0.0307
     44  CG        39.4640   93.3000  111.8460 C.3   238  ARG238      0.0489
     45  CD        38.8100   94.3900  112.6740 C.3   238  ARG238      0.2205
     46  NE        39.1770   94.3270  114.0800 N.pl3 238  ARG238     -0.0865
     47  CZ        38.5990   95.0240  115.0460 C.cat 238  ARG238      0.5346
     48  NH1       37.5930   95.8450  114.7840 N.pl3 238  ARG238      0.1354
     49  NH2       39.0240   94.8630  116.2890 N.pl3 238  ARG238      0.1354
     50  N         34.9940   92.1320  105.8840 N.3   240  TYR240     -0.1241
     51  CA        33.5340   92.3800  105.8710 C.3   240  TYR240      0.1605
     52  C         32.9040   91.9420  104.5840 C.2   240  TYR240      0.2264
     53  O         33.3640   92.2790  103.5170 O.2   240  TYR240     -0.2867
     54  CB        33.2270   93.8570  106.0790 C.3   240  TYR240      0.0534
     55  CG        33.8680   94.4010  107.3250 C.ar  240  TYR240     -0.0201
     56  CD1       35.2050   94.7980  107.3180 C.ar  240  TYR240     -0.0009
     57  CD2       33.1500   94.5010  108.5100 C.ar  240  TYR240     -0.0009
     58  CE1       35.8280   95.2710  108.4450 C.ar  240  TYR240      0.0417
     59  CE2       33.7610   94.9740  109.6630 C.ar  240  TYR240      0.0417
     60  CZ        35.1130   95.3490  109.6040 C.ar  240  TYR240      0.1957
     61  OH        35.7860   95.8340  110.6800 O.3   240  TYR240     -0.2866
     62  N         29.2510   91.6560  102.4060 N.3   242  PHE242     -0.1241
     63  CA        27.9050   92.2390  102.2630 C.3   242  PHE242      0.1605
     64  C         27.0700   91.4650  101.2930 C.2   242  PHE242      0.2264
     65  O         27.4190   91.3440  100.1270 O.2   242  PHE242     -0.2867
     66  CB        27.9670   93.6970  101.8170 C.3   242  PHE242      0.0534
     67  CG        28.7890   94.5660  102.7200 C.ar  242  PHE242     -0.0203
     68  CD1       30.1700   94.5920  102.6160 C.ar  242  PHE242     -0.0042
     69  CD2       28.1880   95.3240  103.6900 C.ar  242  PHE242     -0.0042
     70  CE1       30.9370   95.3980  103.4430 C.ar  242  PHE242     -0.0003
     71  CE2       28.9430   96.1260  104.5240 C.ar  242  PHE242     -0.0003
     72  CZ        30.3220   96.1710  104.4020 C.ar  242  PHE242     -0.0000
     73  N         25.1950   91.5190  106.7190 N.3   247  VAL247     -0.1245
     74  CA        26.6220   91.8400  106.8080 C.3   247  VAL247      0.1561
     75  C         27.2770   90.8140  107.7240 C.2   247  VAL247      0.2260
     76  O         26.7620   90.4420  108.8040 O.2   247  VAL247     -0.2867
     77  CB        26.9100   93.2440  107.3390 C.3   247  VAL247      0.0252
     78  CG1       28.4210   93.4830  107.4050 C.3   247  VAL247      0.0019
     79  CG2       26.2120   94.2710  106.4600 C.3   247  VAL247      0.0019
     80  N         30.7730   90.0350  109.5280 N.3   249  LYS249     -0.1245
     81  CA        32.0640   90.5040  110.0410 C.3   249  LYS249      0.1561
     82  C         32.8660   89.2560  110.3520 C.2   249  LYS249      0.2260
     83  O         32.4180   88.3960  111.0980 O.2   249  LYS249     -0.2867
     84  CB        31.9380   91.3250  111.3320 C.3   249  LYS249      0.0271
     85  CG        31.4420   92.7610  111.1810 C.3   249  LYS249      0.0035
     86  CD        31.5800   93.5500  112.4820 C.3   249  LYS249      0.0206
     87  CE        30.5710   94.6850  112.6340 C.3   249  LYS249      0.1093
     88  NZ        30.9690   95.6500  113.7110 N.3   249  LYS249     -0.1314
     89  N         36.5300   88.2120  111.7540 N.3   251  PHE251     -0.1241
     90  CA        37.8190   88.5790  112.4050 C.3   251  PHE251      0.1605
     91  C         38.8130   87.4280  112.5640 C.2   251  PHE251      0.2264
     92  O         38.4950   86.3710  113.1090 O.2   251  PHE251     -0.2867
     93  CB        37.5840   89.1430  113.7990 C.3   251  PHE251      0.0534
     94  CG        36.9600   90.5130  113.8250 C.ar  251  PHE251     -0.0203
     95  CD1       36.4750   91.1450  112.6740 C.ar  251  PHE251     -0.0042
     96  CD2       36.8320   91.1620  115.0360 C.ar  251  PHE251     -0.0042
     97  CE1       35.9040   92.3990  112.7370 C.ar  251  PHE251     -0.0003
     98  CE2       36.2390   92.4050  115.1020 C.ar  251  PHE251     -0.0003
     99  CZ        35.7800   93.0260  113.9520 C.ar  251  PHE251     -0.0000
    100  N         36.0890   92.8050  120.8740 N.3   271  GLU271     -0.1245
    101  CA        35.0840   93.5800  120.0850 C.3   271  GLU271      0.1567
    102  C         33.9770   92.6760  119.5800 C.2   271  GLU271      0.2260
    103  O         32.8040   93.0010  119.6900 O.2   271  GLU271     -0.2867
    104  CB        35.6810   94.4210  118.9620 C.3   271  GLU271      0.0388
    105  CG        36.4870   95.5950  119.5600 C.3   271  GLU271      0.1160
    106  CD        37.1000   96.5680  118.5270 C.2   271  GLU271      0.3649
    107  OE1       36.8310   96.4110  117.3130 O.co2 271  GLU271     -0.2457
    108  OE2       37.8890   97.4870  118.9070 O.co2 271  GLU271     -0.2457
    109  N         30.1500   92.7020  120.8720 N.3   275  GLU275     -0.1245
    110  CA        29.1240   93.0460  119.8810 C.3   275  GLU275      0.1567
    111  C         27.9950   92.0240  119.9140 C.2   275  GLU275      0.2260
    112  O         26.8000   92.3660  119.9090 O.2   275  GLU275     -0.2867
    113  CB        29.7240   93.1430  118.4840 C.3   275  GLU275      0.0388
    114  CG        28.7670   93.6370  117.4310 C.3   275  GLU275      0.1160
    115  CD        29.5100   94.3340  116.3000 C.2   275  GLU275      0.3649
    116  OE1       30.6310   94.8390  116.5520 O.co2 275  GLU275     -0.2457
    117  OE2       28.9780   94.3830  115.1650 O.co2 275  GLU275     -0.2457
    118  N         20.0890   96.1490  115.0440 N.3   289  PRO289     -0.2116
    119  CA        20.0440   95.1090  114.0440 C.3   289  PRO289      0.1372
    120  C         20.1420   93.7590  114.7830 C.2   289  PRO289      0.2244
    121  O         20.8140   93.6430  115.7240 O.2   289  PRO289     -0.2868
    122  CB        21.3210   95.3660  113.2460 C.3   289  PRO289      0.0268
    123  CG        22.2540   96.0130  114.2010 C.3   289  PRO289      0.0207
    124  CD        21.3630   96.9060  114.9970 C.3   289  PRO289      0.0892
    125  N         25.0300   89.6700  110.7860 N.3   305  MET305     -0.1230
    126  CA        23.8790   90.5450  111.1620 C.3   305  MET305      0.1702
    127  C         22.9630   90.8970  110.0170 C.2   305  MET305      0.2592
    128  O         23.3490   90.8660  108.8620 O.2   305  MET305     -0.2718
    129  CB        24.3550   91.9140  111.5890 C.3   305  MET305      0.0401
    130  CG        25.2460   91.9270  112.7950 C.3   305  MET305      0.0596
    131  SD        25.8470   93.6210  113.0250 S.3   305  MET305     -0.1393
    132  CE        26.9830   93.8060  111.6840 C.3   305  MET305      0.0692
    133  N         21.7790   91.3380  110.3880 N.am  306  GLU306     -0.1966
    134  CA        20.8500   92.0290  109.4810 C.3   306  GLU306      0.1733
    135  C         21.5460   93.2390  108.9310 C.2   306  GLU306      0.2616
    136  O         22.2810   93.8960  109.6310 O.2   306  GLU306     -0.2715
    137  CB        19.6550   92.5680  110.2370 C.3   306  GLU306      0.0429
    138  CG        18.3340   91.8200  110.1390 C.3   306  GLU306      0.1163
    139  CD        17.2370   92.5480  110.9310 C.2   306  GLU306      0.3649
    140  OE1       17.3410   93.7980  111.1250 O.co2 306  GLU306     -0.2457
    141  OE2       16.2920   91.8790  111.3980 O.co2 306  GLU306     -0.2457
    142  N         21.2940   93.5400  107.6810 N.am  307  LYS307     -0.1963
    143  CA        21.9000   94.7090  107.0370 C.3   307  LYS307      0.1728
    144  C         20.9830   95.8760  107.2730 C.2   307  LYS307      0.2616
    145  O         19.7650   95.7220  107.2530 O.2   307  LYS307     -0.2715
    146  CB        21.9830   94.4870  105.5480 C.3   307  LYS307      0.0311
    147  CG        22.8900   95.4220  104.7960 C.3   307  LYS307      0.0038
    148  CD        23.1400   94.8580  103.3990 C.3   307  LYS307      0.0206
    149  CE        22.7660   95.8510  102.3080 C.3   307  LYS307      0.1093
    150  NZ        23.9200   96.2260  101.4190 N.3   307  LYS307     -0.1314
    151  N         21.5540   97.0420  107.4850 N.am  308  LEU308     -0.1977
    152  CA        20.7330   98.2280  107.6770 C.3   308  LEU308      0.1596
    153  C         20.9210   99.1310  106.5020 C.2   308  LEU308      0.2287
    154  O         22.0260   99.2720  105.9770 O.2   308  LEU308     -0.2864
    155  CB        21.1210   98.9740  108.9330 C.3   308  LEU308      0.0297
    156  CG        20.9210   98.1070  110.1780 C.3   308  LEU308      0.0022
    157  CD1       21.5020   98.8180  111.3910 C.3   308  LEU308      0.0001
    158  CD2       19.4470   97.7290  110.3730 C.3   308  LEU308      0.0001
    159  N         27.1980  105.1360  105.0270 N.3   312  LEU312     -0.1245
    160  CA        28.0710  105.5310  106.1160 C.3   312  LEU312      0.1561
    161  C         28.3430  107.0440  106.0080 C.2   312  LEU312      0.2260
    162  O         28.6460  107.5950  104.9520 O.2   312  LEU312     -0.2867
    163  CB        29.3700  104.7220  106.0810 C.3   312  LEU312      0.0270
    164  CG        30.1190  104.5660  107.4000 C.3   312  LEU312      0.0019
    165  CD1       29.3650  103.6230  108.3440 C.3   312  LEU312      0.0001
    166  CD2       31.5270  104.0750  107.0860 C.3   312  LEU312      0.0001
    167  N         32.3150  107.5310  110.8690 N.3   352  TRP352     -0.1227
    168  CA        32.4880  106.1460  110.3470 C.3   352  TRP352      0.1737
    169  C         31.7180  105.1100  111.1150 C.2   352  TRP352      0.2595
    170  O         31.7520  103.9320  110.8140 O.2   352  TRP352     -0.2718
    171  CB        33.9450  105.7660  110.2180 C.3   352  TRP352      0.0564
    172  CG        34.7680  106.0370  111.4210 C.ar  352  TRP352      0.0003
    173  CD1       34.9990  105.1920  112.5020 C.ar  352  TRP352      0.0946
    174  CD2       35.5720  107.2110  111.6770 C.ar  352  TRP352      0.0152
    175  NE1       35.8460  105.7710  113.4090 N.ar  352  TRP352     -0.2442
    176  CE2       36.2200  106.9890  112.9770 C.ar  352  TRP352      0.0810
    177  CE3       35.7930  108.4080  111.0080 C.ar  352  TRP352      0.0012
    178  CZ2       37.0480  107.9320  113.5490 C.ar  352  TRP352      0.0191
    179  CZ3       36.6330  109.3590  111.6030 C.ar  352  TRP352      0.0001
    180  CH2       37.2480  109.1220  112.8400 C.ar  352  TRP352      0.0015
    181  N         31.0160  105.5690  112.1240 N.am  353  ASN353     -0.1974
    182  CA        30.1760  104.7080  112.9890 C.3   353  ASN353      0.1688
    183  C         28.6920  105.0250  112.9200 C.2   353  ASN353      0.2292
    184  O         27.8300  104.5040  113.6570 O.2   353  ASN353     -0.2864
    185  CB        30.6130  104.8040  114.4260 C.3   353  ASN353      0.1181
    186  CG        31.9520  104.1300  114.6760 C.2   353  ASN353      0.2629
    187  OD1       32.3330  103.1650  113.9930 O.2   353  ASN353     -0.2716
    188  ND2       32.6660  104.6250  115.6760 N.am  353  ASN353     -0.0877
    189  N         25.4130  105.4990  110.3120 N.3   355  MET355     -0.1245
    190  CA        24.7270  105.2440  109.0490 C.3   355  MET355      0.1570
    191  C         23.4450  106.0440  108.8730 C.2   355  MET355      0.2261
    192  O         22.5520  106.0820  109.7260 O.2   355  MET355     -0.2867
    193  CB        24.4360  103.7730  108.8610 C.3   355  MET355      0.0387
    194  CG        25.6680  103.0360  108.3350 C.3   355  MET355      0.0595
    195  SD        25.2820  101.4950  107.5200 S.3   355  MET355     -0.1393
    196  CE        24.2810  102.2000  106.2240 C.3   355  MET355      0.0692
    197  N         26.1150  102.1910  114.1520 N.3   365  ILE365     -0.1231
    198  CA        26.3300  100.8650  113.5390 C.3   365  ILE365      0.1692
    199  C         27.4590  100.0750  114.0850 C.2   365  ILE365      0.2592
    200  O         27.6980   98.9320  113.6280 O.2   365  ILE365     -0.2718
    201  CB        26.5850  100.9110  112.0390 C.3   365  ILE365      0.0266
    202  CG1       27.7680  101.8230  111.7690 C.3   365  ILE365      0.0019
    203  CG2       25.2720  101.2530  111.3240 C.3   365  ILE365      0.0020
    204  CD1       28.7400  101.3280  110.7340 C.3   365  ILE365      0.0001
    205  N         28.1960  100.6530  115.0120 N.am  366  ASP366     -0.1960
    206  CA        29.2220   99.8330  115.6330 C.3   366  ASP366      0.1840
    207  C         28.9330   99.7170  117.0910 C.2   366  ASP366      0.2622
    208  O         28.9480  100.7070  117.7780 O.2   366  ASP366     -0.2715
    209  CB        30.6230  100.3610  115.3820 C.3   366  ASP366      0.1450
    210  CG        31.7090   99.3290  115.7200 C.2   366  ASP366      0.3671
    211  OD1       31.9870   98.4130  114.9060 O.co2 366  ASP366     -0.2456
    212  OD2       32.2810   99.4200  116.8170 O.co2 366  ASP366     -0.2456
    213  N         28.6850   98.4950  117.5450 N.am  367  PHE367     -0.1974
    214  CA        28.3240   98.2740  118.9590 C.3   367  PHE367      0.1639
    215  C         29.4140   97.6740  119.8380 C.2   367  PHE367      0.2290
    216  O         29.2280   97.3820  121.0220 O.2   367  PHE367     -0.2864
    217  CB        27.0510   97.5060  119.0790 C.3   367  PHE367      0.0560
    218  CG        26.0010   97.9610  118.1050 C.ar  367  PHE367     -0.0200
    219  CD1       25.2200   99.0870  118.3970 C.ar  367  PHE367     -0.0042
    220  CD2       25.8320   97.3370  116.8810 C.ar  367  PHE367     -0.0042
    221  CE1       24.2670   99.5500  117.4910 C.ar  367  PHE367     -0.0003
    222  CE2       24.8680   97.7730  115.9610 C.ar  367  PHE367     -0.0003
    223  CZ        24.0820   98.8780  116.2740 C.ar  367  PHE367     -0.0000
@<TRIPOS>BOND
     1    65    64    2
     2    64    63    1
     3   150   149    1
     4    66    63    1
     5    66    67    1
     6     1     2    1
     7     9     7   am
     8     2     5    1
     9     2     3    1
    10     5     6    1
    11    63    62    1
    12   149   148    1
    13    68    67   ar
    14    68    70   ar
    15    67    69   ar
    16     7     6    1
    17     7     8    2
    18     3     4    2
    19   148   147    1
    20    70    72   ar
    21    53    52    2
    22    69    71   ar
    23    72    71   ar
    24    52    51    1
    25   147   146    1
    26    19    20    2
    27    19    18    1
    28   162   161    2
    29   159   160    1
    30   146   143    1
    31    18    17    1
    32    18    21    1
    33    51    50    1
    34    51    54    1
    35   154   153    2
    36   161   160    1
    37    54    55    1
    38   163   160    1
    39   163   164    1
    40   196   195    1
    41    79    77    1
    42   153   152    1
    43    17    12   am
    44    73    74    1
    45    21    22    1
    46    74    77    1
    47    74    75    1
    48    13    12    2
    49   143   144    1
    50   143   142    1
    51    12    11    1
    52   166   164    1
    53   145   144    2
    54   144   151   am
    55    56    55   ar
    56    56    58   ar
    57    55    57   ar
    58    77    78    1
    59   164   165    1
    60    10    11    1
    61    10    16    1
    62   151   152    1
    63    42    41    2
    64   195   194    1
    65   152   155    1
    66   142   135   am
    67    75    76    2
    68    24    22   ar
    69    24    26   ar
    70    11    14    1
    71    22    23   ar
    72    41    40    1
    73   194   193    1
    74    58    60   ar
    75    57    59   ar
    76    16    15    1
    77    26    27   ar
    78   193   190    1
    79   128   127    2
    80   191   190    1
    81   191   192    2
    82   135   134    1
    83   135   136    2
    84   155   156    1
    85   190   189    1
    86    23    25   ar
    87    14    15    1
    88   134   137    1
    89   134   133    1
    90    80    81    1
    91    60    59   ar
    92    60    61    1
    93    40    39    1
    94    40    43    1
    95    27    25   ar
    96    27    28    1
    97   127   133   am
    98   127   126    1
    99    81    82    1
   100    81    84    1
   101   138   137    1
   102   138   139    1
   103   156   158    1
   104   156   157    1
   105   171   168    1
   106   171   172    1
   107   168   167    1
   108   168   169    1
   109    82    83    2
   110    43    44    1
   111   204   202    1
   112   125   126    1
   113   170   169    2
   114   139   140   ar
   115   139   141   ar
   116   177   179   ar
   117   177   174   ar
   118   169   181   am
   119   126   129    1
   120    85    84    1
   121    85    86    1
   122   203   201    1
   123   172   174   ar
   124   172   173   ar
   125    31    32    2
   126    31    30    1
   127   129   130    1
   128   179   180   ar
   129   174   176   ar
   130   132   131    1
   131    29    30    1
   132    89    90    1
   133   202   201    1
   134    44    45    1
   135   201   198    1
   136   181   182    1
   137    33    30    1
   138    33    34    1
   139    36    34   ar
   140    36    38   ar
   141    90    91    1
   142    90    93    1
   143    86    87    1
   144   173   175   ar
   145    91    92    2
   146    87    88    1
   147    45    46    1
   148    95    97   ar
   149    95    94   ar
   150    97    99   ar
   151   130   131    1
   152   180   178   ar
   153    34    35   ar
   154   183   182    1
   155   183   184    2
   156   176   175   ar
   157   176   178   ar
   158   182   185    1
   159   122   119    1
   160   122   123    1
   161    38    37   ar
   162   198   199    1
   163   198   197    1
   164   200   199    2
   165    93    94    1
   166    94    96   ar
   167    99    98   ar
   168   187   186    2
   169   119   120    1
   170   119   118    1
   171    46    47    2
   172   199   205   am
   173    35    37   ar
   174   123   124    1
   175   185   186    1
   176   186   188   am
   177   120   121    2
   178    48    47    1
   179   211   210   ar
   180   124   118    1
   181   205   206    1
   182    96    98   ar
   183    47    49    1
   184   117   115   ar
   185   209   206    1
   186   209   210    1
   187   206   207    1
   188   210   212   ar
   189   222   223   ar
   190   222   220   ar
   191   223   221   ar
   192   115   116   ar
   193   115   114    1
   194   220   218   ar
   195   207   213   am
   196   207   208    2
   197   107   106   ar
   198   114   113    1
   199   221   219   ar
   200   213   214    1
   201   218   219   ar
   202   218   217    1
   203   113   110    1
   204   106   108   ar
   205   106   105    1
   206   214   217    1
   207   214   215    1
   208   104   105    1
   209   104   101    1
   210   102   103    2
   211   102   101    1
   212   215   216    2
   213   110   111    1
   214   110   109    1
   215   112   111    2
   216   101   100    1
