@<TRIPOS>MOLECULE
tmp/4ax9A01.pdb
 226 228 0 0 0
SMALL
GASTEIGER

@<TRIPOS>ATOM
      1  N         22.6740   -6.0540   18.5080 N.3    43  HIS43      -0.1241
      2  CA        22.5530   -7.4410   18.0860 C.3    43  HIS43       0.1621
      3  C         21.7390   -7.6070   16.7870 C.2    43  HIS43       0.2264
      4  O         21.7690   -8.6870   16.1780 O.2    43  HIS43      -0.2867
      5  CB        22.0140   -8.3390   19.2110 C.3    43  HIS43       0.0745
      6  CG        20.5320   -8.3720   19.3070 C.ar   43  HIS43       0.0817
      7  ND1       19.8270   -7.6130   20.2230 N.ar   43  HIS43      -0.2268
      8  CD2       19.6080   -9.0720   18.6010 C.ar   43  HIS43       0.1154
      9  CE1       18.5340   -7.8450   20.0710 C.ar   43  HIS43       0.1986
     10  NE2       18.3760   -8.7240   19.0910 N.ar   43  HIS43      -0.2212
     11  N         26.0070  -10.1880   15.4750 N.3    47  TYR47      -0.1241
     12  CA        25.8100  -11.2790   16.3950 C.3    47  TYR47       0.1605
     13  C         26.5600  -12.5350   15.8810 C.2    47  TYR47       0.2264
     14  O         25.9510  -13.4070   15.2650 O.2    47  TYR47      -0.2867
     15  CB        24.3050  -11.5350   16.6420 C.3    47  TYR47       0.0534
     16  CG        24.1070  -12.4670   17.7860 C.ar   47  TYR47      -0.0201
     17  CD1       24.5690  -12.1350   19.0660 C.ar   47  TYR47      -0.0009
     18  CD2       23.5080  -13.7060   17.5940 C.ar   47  TYR47      -0.0009
     19  CE1       24.4000  -13.0080   20.1330 C.ar   47  TYR47       0.0417
     20  CE2       23.3620  -14.5930   18.6450 C.ar   47  TYR47       0.0417
     21  CZ        23.8200  -14.2350   19.9070 C.ar   47  TYR47       0.1957
     22  OH        23.6730  -15.1170   20.9380 O.3    47  TYR47      -0.2866
     23  N         25.3740  -16.3920   15.3880 N.3    50  TRP50      -0.1241
     24  CA        24.5010  -16.6950   14.2450 C.3    50  TRP50       0.1605
     25  C         25.1000  -16.2260   12.9310 C.2    50  TRP50       0.2264
     26  O         24.3720  -16.0400   11.9530 O.2    50  TRP50      -0.2867
     27  CB        23.1340  -16.0270   14.4100 C.3    50  TRP50       0.0550
     28  CG        22.2970  -16.5730   15.5420 C.ar   50  TRP50       0.0003
     29  CD1       22.5700  -17.6570   16.3320 C.ar   50  TRP50       0.0946
     30  CD2       21.0190  -16.0820   15.9630 C.ar   50  TRP50       0.0152
     31  NE1       21.5640  -17.8420   17.2460 N.ar   50  TRP50      -0.2442
     32  CE2       20.5920  -16.8940   17.0360 C.ar   50  TRP50       0.0810
     33  CE3       20.2020  -15.0220   15.5460 C.ar   50  TRP50       0.0012
     34  CZ2       19.3700  -16.6860   17.6980 C.ar   50  TRP50       0.0191
     35  CZ3       18.9840  -14.8040   16.2100 C.ar   50  TRP50       0.0001
     36  CH2       18.5880  -15.6340   17.2740 C.ar   50  TRP50       0.0015
     37  N         25.9440  -13.3370   12.1000 N.3    52  LYS52      -0.1245
     38  CA        25.3390  -12.0830   11.6580 C.3    52  LYS52       0.1561
     39  C         26.3480  -10.9560   11.8210 C.2    52  LYS52       0.2260
     40  O         26.8780  -10.7470   12.9050 O.2    52  LYS52      -0.2867
     41  CB        24.0660  -11.8260   12.4560 C.3    52  LYS52       0.0271
     42  CG        23.2620  -10.6170   11.9890 C.3    52  LYS52       0.0035
     43  CD        22.2310  -10.2030   13.0330 C.3    52  LYS52       0.0206
     44  CE        20.9340  -11.0040   12.9760 C.3    52  LYS52       0.1093
     45  NZ        20.1350  -10.6640   14.1990 N.3    52  LYS52      -0.1314
     46  N         28.2980   -9.4190   23.2770 N.3    92  TRP92      -0.1227
     47  CA        27.5280  -10.4720   22.6230 C.3    92  TRP92       0.1737
     48  C         27.9130  -11.8880   23.0690 C.2    92  TRP92       0.2595
     49  O         27.1880  -12.8570   22.7660 O.2    92  TRP92      -0.2718
     50  CB        27.6900  -10.3620   21.1060 C.3    92  TRP92       0.0564
     51  CG        29.1180  -10.3310   20.6380 C.ar   92  TRP92       0.0003
     52  CD1       29.8820   -9.2220   20.4030 C.ar   92  TRP92       0.0946
     53  CD2       29.9540  -11.4670   20.3310 C.ar   92  TRP92       0.0152
     54  NE1       31.1290   -9.5880   19.9610 N.ar   92  TRP92      -0.2442
     55  CE2       31.2050  -10.9570   19.9030 C.ar   92  TRP92       0.0810
     56  CE3       29.7600  -12.8660   20.3730 C.ar   92  TRP92       0.0012
     57  CZ2       32.2860  -11.7990   19.5210 C.ar   92  TRP92       0.0191
     58  CZ3       30.8370  -13.7130   19.9730 C.ar   92  TRP92       0.0001
     59  CH2       32.0800  -13.1680   19.5710 C.ar   92  TRP92       0.0015
     60  N         29.0390  -12.0250   23.7630 N.am   93  ARG93      -0.1966
     61  CA        29.4840  -13.3770   24.2020 C.3    93  ARG93       0.1729
     62  C         28.6980  -13.9100   25.3660 C.2    93  ARG93       0.2616
     63  O         28.4490  -15.1050   25.4390 O.2    93  ARG93      -0.2715
     64  CB        30.9720  -13.3990   24.5720 C.3    93  ARG93       0.0348
     65  CG        31.8840  -13.0570   23.4260 C.3    93  ARG93       0.0492
     66  CD        33.3420  -13.0120   23.8550 C.3    93  ARG93       0.2205
     67  NE        34.1730  -13.1120   22.6690 N.pl3  93  ARG93      -0.0865
     68  CZ        34.4560  -14.2680   22.0600 C.cat  93  ARG93       0.5346
     69  NH1       33.9990  -15.4280   22.5420 N.pl3  93  ARG93       0.1354
     70  NH2       35.1930  -14.2580   20.9650 N.pl3  93  ARG93       0.1354
     71  N         28.3070  -13.0320   26.2820 N.am   94  GLU94      -0.1963
     72  CA        27.7380  -13.4750   27.5320 C.3    94  GLU94       0.1733
     73  C         26.2580  -13.1100   27.7190 C.2    94  GLU94       0.2616
     74  O         25.4260  -13.9970   27.9090 O.2    94  GLU94      -0.2715
     75  CB        28.5420  -12.9180   28.6910 C.3    94  GLU94       0.0429
     76  CG        28.2130  -13.5930   30.0120 C.3    94  GLU94       0.1163
     77  CD        28.6080  -12.7590   31.2250 C.2    94  GLU94       0.3649
     78  OE1       29.4190  -11.8080   31.0770 O.co2  94  GLU94      -0.2457
     79  OE2       28.0970  -13.0550   32.3390 O.co2  94  GLU94      -0.2457
     80  N         25.9150  -11.8190   27.6800 N.am   95  ASN95      -0.1958
     81  CA        24.5600  -11.4250   28.1220 C.3    95  ASN95       0.1819
     82  C         23.8840  -10.2860   27.3420 C.2    95  ASN95       0.2621
     83  O         22.8590   -9.7800   27.7910 O.2    95  ASN95      -0.2715
     84  CB        24.6080  -11.0580   29.6160 C.3    95  ASN95       0.1195
     85  CG        25.6280   -9.9830   29.8940 C.2    95  ASN95       0.2630
     86  OD1       26.3430   -9.5490   28.9750 O.2    95  ASN95      -0.2716
     87  ND2       25.7110   -9.5410   31.1370 N.am   95  ASN95      -0.0877
     88  N         24.4620   -9.8770   26.2110 N.am   96  LEU96      -0.1977
     89  CA        23.9700   -8.7510   25.4000 C.3    96  LEU96       0.1596
     90  C         23.9900   -7.4230   26.1630 C.2    96  LEU96       0.2287
     91  O         23.1800   -6.5160   25.9210 O.2    96  LEU96      -0.2864
     92  CB        22.5750   -9.0220   24.7970 C.3    96  LEU96       0.0297
     93  CG        22.4610  -10.1640   23.8040 C.3    96  LEU96       0.0022
     94  CD1       20.9930  -10.3160   23.3840 C.3    96  LEU96       0.0001
     95  CD2       23.3630  -10.0160   22.5840 C.3    96  LEU96       0.0001
     96  N         20.5290  -15.8820   32.8160 N.3   173  ILE173     -0.1245
     97  CA        21.4070  -14.8460   32.2360 C.3   173  ILE173      0.1561
     98  C         21.7960  -13.8120   33.3100 C.2   173  ILE173      0.2260
     99  O         20.9600  -13.4400   34.1560 O.2   173  ILE173     -0.2867
    100  CB        20.7490  -14.1400   31.0050 C.3   173  ILE173      0.0252
    101  CG1       20.3140  -15.1550   29.9300 C.3   173  ILE173      0.0019
    102  CG2       21.6890  -13.1290   30.3490 C.3   173  ILE173      0.0019
    103  CD1       21.4670  -15.8110   29.2000 C.3   173  ILE173      0.0001
    104  N          4.1060   -9.0830   24.9810 N.3   193  ASP193     -0.1225
    105  CA         5.5760   -9.1220   24.9440 C.3   193  ASP193      0.1805
    106  C          5.9850   -8.7180   23.5420 C.2   193  ASP193      0.2598
    107  O          5.1610   -8.7390   22.6310 O.2   193  ASP193     -0.2718
    108  CB         6.0550  -10.5520   25.2250 C.3   193  ASP193      0.1424
    109  CG         7.5470  -10.6530   25.5800 C.2   193  ASP193      0.3668
    110  OD1        8.2710   -9.6240   25.6810 O.co2 193  ASP193     -0.2456
    111  OD2        7.9970  -11.8190   25.7580 O.co2 193  ASP193     -0.2456
    112  N          7.2470   -8.3460   23.3720 N.am  194  ALA194     -0.1966
    113  CA         7.8310   -8.2880   22.0470 C.3   194  ALA194      0.1728
    114  C          8.1590   -9.7240   21.6120 C.2   194  ALA194      0.2616
    115  O          8.2060  -10.6310   22.4340 O.2   194  ALA194     -0.2715
    116  CB         9.1090   -7.4520   22.0510 C.3   194  ALA194      0.0334
    117  N          8.3940   -9.9170   20.3220 N.am  195  CYS195     -0.1954
    118  CA         8.7530  -11.2400   19.8110 C.3   195  CYS195      0.1843
    119  C          9.7540  -11.0690   18.6510 C.2   195  CYS195      0.2625
    120  O         10.2280   -9.9400   18.4010 O.2   195  CYS195     -0.2714
    121  CB         7.4820  -11.9870   19.3970 C.3   195  CYS195      0.0997
    122  SG         7.6920  -13.7960   19.3260 S.3   195  CYS195     -0.0797
    123  N         10.1090  -12.1680   17.9730 N.am  196  GLU196     -0.1977
    124  CA        11.0650  -12.1190   16.8750 C.3   196  GLU196      0.1602
    125  C         10.6720  -11.0530   15.8600 C.2   196  GLU196      0.2287
    126  O          9.5250  -11.0140   15.4320 O.2   196  GLU196     -0.2864
    127  CB        11.1180  -13.4800   16.1610 C.3   196  GLU196      0.0415
    128  CG        12.2640  -13.5800   15.1740 C.3   196  GLU196      0.1163
    129  CD        12.3760  -14.9520   14.5580 C.2   196  GLU196      0.3649
    130  OE1       12.1550  -15.9470   15.2830 O.co2 196  GLU196     -0.2457
    131  OE2       12.6900  -15.0250   13.3480 O.co2 196  GLU196     -0.2457
    132  N         12.8890   -6.8200   17.8700 N.3   199  SER199     -0.1217
    133  CA        14.1950   -6.3920   18.4320 C.3   199  SER199      0.1889
    134  C         14.6770   -5.0990   17.8220 C.2   199  SER199      0.2288
    135  O         14.4940   -4.8860   16.6350 O.2   199  SER199     -0.2866
    136  CB        15.2820   -7.4630   18.1940 C.3   199  SER199      0.2089
    137  OG        14.9710   -8.6510   18.8880 O.3   199  SER199     -0.2183
    138  N         14.1860   -2.7620   22.6450 N.3   219  VAL219     -0.1231
    139  CA        13.8740   -4.1940   22.7190 C.3   219  VAL219      0.1692
    140  C         15.1800   -4.9990   22.4980 C.2   219  VAL219      0.2593
    141  O         15.7720   -4.9450   21.4100 O.2   219  VAL219     -0.2718
    142  CB        12.8120   -4.6090   21.6690 C.3   219  VAL219      0.0266
    143  CG1       12.4870   -6.0980   21.7900 C.3   219  VAL219      0.0020
    144  CG2       11.5270   -3.8000   21.7940 C.3   219  VAL219      0.0020
    145  N         15.6120   -5.7320   23.5240 N.am  220  SER220     -0.1938
    146  CA        16.9170   -6.4100   23.4620 C.3   220  SER220      0.2055
    147  C         16.7580   -7.9300   23.4100 C.2   220  SER220      0.2643
    148  O         17.1100   -8.5290   22.4110 O.2   220  SER220     -0.2714
    149  CB        17.8320   -5.9710   24.6090 C.3   220  SER220      0.2130
    150  OG        19.1130   -6.5750   24.5250 O.3   220  SER220     -0.2179
    151  N         16.2800   -8.5620   24.4710 N.am  221  TRP221     -0.1959
    152  CA        16.1600  -10.0170   24.4710 C.3   221  TRP221      0.1771
    153  C         15.0820  -10.5490   25.4020 C.2   221  TRP221      0.2620
    154  O         14.4500   -9.8010   26.1740 O.2   221  TRP221     -0.2715
    155  CB        17.5210  -10.6830   24.8070 C.3   221  TRP221      0.0590
    156  CG        18.0720  -10.3010   26.1790 C.ar  221  TRP221      0.0006
    157  CD1       18.8430   -9.2110   26.4770 C.ar  221  TRP221      0.0946
    158  CD2       17.8890  -11.0050   27.4080 C.ar  221  TRP221      0.0152
    159  NE1       19.1420   -9.1860   27.8210 N.ar  221  TRP221     -0.2442
    160  CE2       18.5950  -10.2930   28.4080 C.ar  221  TRP221      0.0810
    161  CE3       17.2320  -12.1830   27.7600 C.ar  221  TRP221      0.0012
    162  CZ2       18.6360  -10.7180   29.7410 C.ar  221  TRP221      0.0191
    163  CZ3       17.2800  -12.6000   29.0990 C.ar  221  TRP221      0.0001
    164  CH2       17.9680  -11.8680   30.0560 C.ar  221  TRP221      0.0015
    165  N         14.8600  -11.8530   25.3120 N.am  222  GLY222     -0.1940
    166  CA        13.8990  -12.5260   26.2020 C.3   222  GLY222      0.2014
    167  C         13.8790  -14.0050   25.8610 C.2   222  GLY222      0.2639
    168  O         14.3560  -14.4040   24.8130 O.2   222  GLY222     -0.2714
    169  N         13.3270  -14.8260   26.7310 N.am  223  GLU223     -0.1963
    170  CA        13.3380  -16.2600   26.5030 C.3   223  GLU223      0.1733
    171  C         11.9910  -16.6300   25.9260 C.2   223  GLU223      0.2617
    172  O         11.0040  -16.6500   26.6370 O.2   223  GLU223     -0.2715
    173  CB        13.6160  -16.9920   27.8170 C.3   223  GLU223      0.0429
    174  CG        15.0450  -16.7940   28.3180 C.3   223  GLU223      0.1163
    175  CD        15.2130  -17.0750   29.8090 C.2   223  GLU223      0.3649
    176  OE1       14.8270  -18.1680   30.2800 O.co2 223  GLU223     -0.2457
    177  OE2       15.7130  -16.1900   30.5120 O.co2 223  GLU223     -0.2457
    178  N         11.9510  -16.8470   24.6210 N.am  224  GLY224     -0.1940
    179  CA        10.6880  -17.0680   23.9350 C.3   224  GLY224      0.2014
    180  C          9.9250  -15.7500   23.8270 C.2   224  GLY224      0.2639
    181  O         10.5220  -14.6740   23.9190 O.2   224  GLY224     -0.2714
    182  N          8.6100  -15.8340   23.6790 N.am  225  CYS225     -0.1967
    183  CA         7.7610  -14.6370   23.6700 C.3   225  CYS225      0.1712
    184  C          6.5140  -14.8720   24.4630 C.2   225  CYS225      0.2296
    185  O          5.7870  -15.8500   24.2100 O.2   225  CYS225     -0.2864
    186  CB         7.3290  -14.2770   22.2690 C.3   225  CYS225      0.0983
    187  SG         8.6200  -14.3010   21.0450 S.3   225  CYS225     -0.0798
    188  N         10.1620  -12.3930   31.1480 N.3   231  TYR231     -0.1227
    189  CA         9.9920  -10.9640   30.8980 C.3   231  TYR231      0.1736
    190  C         10.8550  -10.5480   29.7250 C.2   231  TYR231      0.2596
    191  O         11.8850  -11.1660   29.4500 O.2   231  TYR231     -0.2718
    192  CB        10.4110  -10.1680   32.1400 C.3   231  TYR231      0.0548
    193  CG         9.5670  -10.5750   33.3080 C.ar  231  TYR231     -0.0200
    194  CD1        8.2960  -10.0290   33.4790 C.ar  231  TYR231     -0.0009
    195  CD2        9.9900  -11.5780   34.1970 C.ar  231  TYR231     -0.0009
    196  CE1        7.4750  -10.4350   34.5280 C.ar  231  TYR231      0.0417
    197  CE2        9.1680  -11.9950   35.2490 C.ar  231  TYR231      0.0417
    198  CZ         7.9120  -11.4210   35.4030 C.ar  231  TYR231      0.1957
    199  OH         7.0650  -11.8270   36.4270 O.3   231  TYR231     -0.2866
    200  N         10.4550   -9.4680   29.0710 N.am  232  GLY232     -0.1942
    201  CA        11.2590   -8.9250   28.0030 C.3   232  GLY232      0.2014
    202  C         12.3390   -8.0750   28.6300 C.2   232  GLY232      0.2639
    203  O         12.0860   -7.4180   29.6370 O.2   232  GLY232     -0.2714
    204  N         13.5590   -8.1470   28.0820 N.am  233  PHE233     -0.1959
    205  CA        14.6570   -7.2940   28.5240 C.3   233  PHE233      0.1771
    206  C         14.9480   -6.1960   27.5430 C.2   233  PHE233      0.2619
    207  O         14.9370   -6.4300   26.3290 O.2   233  PHE233     -0.2715
    208  CB        15.9320   -8.1300   28.8360 C.3   233  PHE233      0.0574
    209  CG        15.8220   -8.8640   30.1500 C.ar  233  PHE233     -0.0200
    210  CD1       15.1180  -10.0600   30.2300 C.ar  233  PHE233     -0.0042
    211  CD2       16.3120   -8.3130   31.3030 C.ar  233  PHE233     -0.0042
    212  CE1       14.9390  -10.6980   31.4530 C.ar  233  PHE233     -0.0003
    213  CE2       16.1670   -8.9610   32.5310 C.ar  233  PHE233     -0.0003
    214  CZ        15.4940  -10.1510   32.5950 C.ar  233  PHE233     -0.0000
    215  N         15.2900   -5.0150   28.0780 N.am  234  TYR234     -0.1974
    216  CA        15.4120   -3.8200   27.2840 C.3   234  TYR234      0.1639
    217  C         16.7220   -3.1220   27.6220 C.2   234  TYR234      0.2290
    218  O         17.0920   -3.0150   28.7880 O.2   234  TYR234     -0.2864
    219  CB        14.2170   -2.8710   27.5840 C.3   234  TYR234      0.0560
    220  CG        12.8940   -3.4730   27.1690 C.ar  234  TYR234     -0.0198
    221  CD1       12.2240   -4.3850   28.0020 C.ar  234  TYR234     -0.0009
    222  CD2       12.3540   -3.1990   25.9170 C.ar  234  TYR234     -0.0009
    223  CE1       11.0440   -4.9680   27.6010 C.ar  234  TYR234      0.0417
    224  CE2       11.1590   -3.7680   25.5120 C.ar  234  TYR234      0.0417
    225  CZ        10.5240   -4.6670   26.3530 C.ar  234  TYR234      0.1957
    226  OH         9.3540   -5.2530   25.9500 O.3   234  TYR234     -0.2866
@<TRIPOS>BOND
     1    38    39    1
     2    38    37    1
     3    38    41    1
     4    39    40    2
     5    26    25    2
     6    42    41    1
     7    42    43    1
     8    25    24    1
     9    44    43    1
    10    44    45    1
    11   131   129   ar
    12    24    27    1
    13    24    23    1
    14    27    28    1
    15   129   128    1
    16   129   130   ar
    17   128   127    1
    18    14    13    2
    19   126   125    2
    20    11    12    1
    21    28    30   ar
    22    28    29   ar
    23    33    30   ar
    24    33    35   ar
    25   125   124    1
    26    13    12    1
    27    30    32   ar
    28   127   124    1
    29     4     3    2
    30    35    36   ar
    31    29    31   ar
    32    12    15    1
    33   135   134    2
    34    15    16    1
    35     3     2    1
    36   124   123    1
    37    32    31   ar
    38    32    34   ar
    39    36    34   ar
    40    18    16   ar
    41    18    20   ar
    42    16    17   ar
    43   134   133    1
    44   132   133    1
    45   123   119   am
    46     2     1    1
    47     2     5    1
    48   136   133    1
    49   136   137    1
    50   120   119    2
    51     8    10   ar
    52     8     6   ar
    53    20    21   ar
    54   119   118    1
    55    17    19   ar
    56    10     9   ar
    57     5     6    1
    58     6     7   ar
    59   122   121    1
    60   122   187    1
    61   121   118    1
    62    57    59   ar
    63    57    55   ar
    64    59    58   ar
    65   118   117    1
    66    55    54   ar
    67    55    53   ar
    68    21    19   ar
    69    21    22    1
    70    54    52   ar
    71    58    56   ar
    72     9     7   ar
    73   117   114   am
    74    53    56   ar
    75    53    51   ar
    76    52    51   ar
    77    51    50    1
    78    70    68    1
    79   187   186    1
    80    50    47    1
    81   141   140    2
    82   114   113    1
    83   114   115    2
    84   142   143    1
    85   142   144    1
    86   142   139    1
    87   113   116    1
    88   113   112    1
    89    68    69    1
    90    68    67    2
    91   186   183    1
    92   148   147    2
    93   140   139    1
    94   140   145   am
    95    95    93    1
    96    47    48    1
    97    47    46    1
    98   107   106    2
    99   138   139    1
   100    67    66    1
   101    49    48    2
   102    48    60   am
   103   112   106   am
   104    94    93    1
   105   147   146    1
   106   147   151   am
   107    65    66    1
   108    65    64    1
   109   146   145    1
   110   146   149    1
   111   106   105    1
   112   183   182    1
   113   183   184    1
   114   182   180   am
   115    60    61    1
   116    93    92    1
   117   180   181    2
   118   180   179    1
   119   179   178    1
   120    61    64    1
   121    61    62    1
   122   185   184    2
   123   152   151    1
   124   152   155    1
   125   152   153    1
   126   150   149    1
   127   178   171   am
   128    92    89    1
   129   155   156    1
   130   168   167    2
   131   105   104    1
   132   105   108    1
   133   108   109    1
   134   165   153   am
   135   165   166    1
   136    62    63    2
   137    62    71   am
   138    89    90    1
   139    89    88    1
   140   153   154    2
   141   224   222   ar
   142   224   225   ar
   143   109   110   ar
   144   109   111   ar
   145   167   166    1
   146   167   169   am
   147   222   220   ar
   148    91    90    2
   149   171   170    1
   150   171   172    2
   151   226   225    1
   152   156   157   ar
   153   156   158   ar
   154    88    82   am
   155    71    72    1
   156   207   206    2
   157   225   223   ar
   158   157   159   ar
   159   170   169    1
   160   170   173    1
   161   220   219    1
   162   220   221   ar
   163   216   219    1
   164   216   217    1
   165   216   215    1
   166    82    83    2
   167    82    81    1
   168   158   161   ar
   169   158   160   ar
   170    72    73    1
   171    72    75    1
   172   206   215   am
   173   206   205    1
   174   223   221   ar
   175   217   218    2
   176    80    73   am
   177    80    81    1
   178    73    74    2
   179   161   163   ar
   180   173   174    1
   181   159   160   ar
   182   201   202    1
   183   201   200    1
   184   204   205    1
   185   204   202   am
   186    81    84    1
   187   174   175    1
   188   160   162   ar
   189   205   208    1
   190   202   203    2
   191    75    76    1
   192   208   209    1
   193    86    85    2
   194   200   190   am
   195   163   164   ar
   196   103   101    1
   197   191   190    2
   198    84    85    1
   199   190   189    1
   200   162   164   ar
   201   175   176   ar
   202   175   177   ar
   203    85    87   am
   204   101   100    1
   205    76    77    1
   206   209   210   ar
   207   209   211   ar
   208   210   212   ar
   209   102   100    1
   210   189   188    1
   211   189   192    1
   212   100    97    1
   213    78    77   ar
   214    77    79   ar
   215   211   213   ar
   216   212   214   ar
   217   192   193    1
   218    97    96    1
   219    97    98    1
   220   213   214   ar
   221   193   194   ar
   222   193   195   ar
   223    98    99    2
   224   194   196   ar
   225   195   197   ar
   226   196   198   ar
   227   197   198   ar
   228   198   199    1
