@<TRIPOS>MOLECULE
tmp/4axaA00.pdb
 190 183 0 0 0
SMALL
GASTEIGER

@<TRIPOS>ATOM
      1  N          8.5470   15.0490    7.8680 N.3    36  LEU36      -0.1231
      2  CA         8.3410   13.6090    8.0950 C.3    36  LEU36       0.1693
      3  C          9.5480   12.7850    7.7420 C.2    36  LEU36       0.2593
      4  O          9.5980   11.6020    8.0740 O.2    36  LEU36      -0.2718
      5  CB         7.1450   13.0870    7.2820 C.3    36  LEU36       0.0284
      6  CG         5.8290   13.7980    7.5460 C.3    36  LEU36       0.0019
      7  CD1        4.7860   13.2490    6.5920 C.3    36  LEU36       0.0001
      8  CD2        5.3690   13.6650    9.0070 C.3    36  LEU36       0.0001
      9  N         10.5080   13.4110    7.0750 N.am   37  GLY37      -0.1942
     10  CA        11.7260   12.7580    6.6610 C.3    37  GLY37       0.2014
     11  C         12.5030   13.5860    5.6540 C.2    37  GLY37       0.2640
     12  O         12.0050   14.5720    5.1030 O.2    37  GLY37      -0.2714
     13  N         13.7400   13.1560    5.4280 N.am   38  THR38      -0.1936
     14  CA        14.6830   13.8300    4.5640 C.3    38  THR38       0.2028
     15  C         15.3570   12.8600    3.5910 C.2    38  THR38       0.2643
     16  O         15.3460   11.6310    3.7940 O.2    38  THR38      -0.2714
     17  CB        15.7780   14.5440    5.3760 C.3    38  THR38       0.1808
     18  OG1       16.5130   13.5860    6.1420 O.3    38  THR38      -0.2208
     19  CG2       15.1850   15.6050    6.2760 C.3    38  THR38       0.0379
     20  N         15.9330   13.4450    2.5420 N.am   39  GLY39      -0.1939
     21  CA        16.7660   12.7510    1.5530 C.3    39  GLY39       0.2014
     22  C         17.9360   13.6670    1.1660 C.2    39  GLY39       0.2640
     23  O         18.0850   14.7840    1.6930 O.2    39  GLY39      -0.2714
     24  N         18.7710   13.2050    0.2440 N.am   40  SER40      -0.1935
     25  CA        19.9590   13.9680   -0.1530 C.3    40  SER40       0.2055
     26  C         19.6420   15.2880   -0.8470 C.2    40  SER40       0.2643
     27  O         20.4280   16.2180   -0.7650 O.2    40  SER40      -0.2714
     28  CB        20.8530   13.1230   -1.0690 C.3    40  SER40       0.2130
     29  OG        21.6250   12.2080   -0.3120 O.3    40  SER40      -0.2179
     30  N         18.4980   15.3750   -1.5300 N.am   41  PHE41      -0.1959
     31  CA        18.1400   16.6020   -2.2810 C.3    41  PHE41       0.1774
     32  C         16.7210   17.0970   -1.9610 C.2    41  PHE41       0.2659
     33  O         16.2010   17.9980   -2.6310 O.2    41  PHE41      -0.2711
     34  CB        18.3510   16.3980   -3.7990 C.3    41  PHE41       0.0574
     35  CG        17.7980   15.0900   -4.3210 C.ar   41  PHE41      -0.0200
     36  CD1       18.5620   13.9300   -4.2830 C.ar   41  PHE41      -0.0042
     37  CD2       16.5210   15.0280   -4.8440 C.ar   41  PHE41      -0.0042
     38  CE1       18.0610   12.7260   -4.7580 C.ar   41  PHE41      -0.0003
     39  CE2       16.0110   13.8340   -5.3210 C.ar   41  PHE41      -0.0003
     40  CZ        16.7770   12.6860   -5.2790 C.ar   41  PHE41      -0.0000
     41  N         16.0950   16.5080   -0.9340 N.am   42  GLY42      -0.1716
     42  CA        14.7620   16.9070   -0.5730 C.2    42  GLY42       0.1480
     43  C         14.2800   16.4700    0.7850 C.2    42  GLY42       0.2820
     44  O         14.9900   15.8340    1.5670 O.2    42  GLY42      -0.2669
     45  N         13.0350   16.8320    1.0500 N.am   43  ARG43      -0.1929
     46  CA        12.3790   16.5130    2.2960 C.3    43  ARG43       0.1732
     47  C         10.9240   16.1830    2.0190 C.2    43  ARG43       0.2616
     48  O         10.4090   16.5260    0.9530 O.2    43  ARG43      -0.2715
     49  CB        12.4350   17.7340    3.2250 C.3    43  ARG43       0.0348
     50  CG        13.7990   18.4390    3.3030 C.3    43  ARG43       0.0492
     51  CD        13.6510   19.8430    3.8510 C.3    43  ARG43       0.2205
     52  NE        13.3020   20.8250    2.8260 N.pl3  43  ARG43      -0.0865
     53  CZ        13.0830   22.1070    3.0930 C.cat  43  ARG43       0.5346
     54  NH1       13.1780   22.5430    4.3400 N.pl3  43  ARG43       0.1354
     55  NH2       12.7710   22.9500    2.1300 N.pl3  43  ARG43       0.1354
     56  N         10.2780   15.5290    2.9760 N.am   44  VAL44      -0.1977
     57  CA         8.8380   15.3230    2.9200 C.3    44  VAL44       0.1596
     58  C          8.2550   15.9820    4.1670 C.2    44  VAL44       0.2287
     59  O          8.7570   15.7790    5.2760 O.2    44  VAL44      -0.2864
     60  CB         8.4810   13.8440    2.8390 C.3    44  VAL44       0.0276
     61  CG1        6.9780   13.6370    2.9800 C.3    44  VAL44       0.0022
     62  CG2        8.9240   13.2760    1.4980 C.3    44  VAL44       0.0022
     63  N          1.1310   14.5440    2.3630 N.3    57  ALA57      -0.1245
     64  CA         2.5920   14.6050    2.4380 C.3    57  ALA57       0.1562
     65  C          3.1140   15.3310    1.2130 C.2    57  ALA57       0.2260
     66  O          2.7280   15.0180    0.0790 O.2    57  ALA57      -0.2867
     67  CB         3.1810   13.2400    2.4830 C.3    57  ALA57       0.0290
     68  N          6.4380   16.2970   -0.8010 N.3    59  LYS59      -0.1245
     69  CA         7.8570   16.0800   -1.0650 C.3    59  LYS59       0.1561
     70  C          8.3760   17.3550   -1.7100 C.2    59  LYS59       0.2260
     71  O          7.8180   17.8280   -2.6850 O.2    59  LYS59      -0.2867
     72  CB         8.0610   14.9070   -2.0120 C.3    59  LYS59       0.0271
     73  CG         9.5000   14.6300   -2.3410 C.3    59  LYS59       0.0035
     74  CD         9.8430   13.1760   -2.0790 C.3    59  LYS59       0.0206
     75  CE         9.6170   12.3340   -3.2510 C.3    59  LYS59       0.1093
     76  NZ         9.9750   10.9180   -2.9370 N.3    59  LYS59      -0.1314
     77  N         11.7160   19.0380   -3.3420 N.3    61  LEU61      -0.1245
     78  CA        13.0470   18.8140   -3.8970 C.3    61  LEU61       0.1561
     79  C         13.7070   20.1340   -4.2690 C.2    61  LEU61       0.2260
     80  O         13.1100   20.9880   -4.9480 O.2    61  LEU61      -0.2867
     81  CB        12.9540   17.9210   -5.1280 C.3    61  LEU61       0.0270
     82  CG        12.2390   16.5830   -4.9360 C.3    61  LEU61       0.0019
     83  CD1       12.3050   15.8120   -6.2180 C.3    61  LEU61       0.0001
     84  CD2       12.7960   15.7440   -3.7470 C.3    61  LEU61       0.0001
     85  N          1.0980   14.1020   -2.1010 N.3   107  MET107     -0.1230
     86  CA         0.5390   12.7660   -2.1700 C.3   107  MET107      0.1702
     87  C         -0.2010   12.4210   -0.8830 C.2   107  MET107      0.2592
     88  O         -0.1410   13.1490    0.0730 O.2   107  MET107     -0.2718
     89  CB         1.6740   11.7530   -2.4340 C.3   107  MET107      0.0401
     90  CG         2.6640   11.5570   -1.2980 C.3   107  MET107      0.0596
     91  SD         4.2860   10.9140   -1.8900 S.3   107  MET107     -0.1393
     92  CE         4.7910   12.4090   -2.7190 C.3   107  MET107      0.0692
     93  N         -0.9040   11.3040   -0.8520 N.am  108  GLU108     -0.1966
     94  CA        -1.6490   10.9850    0.3420 C.3   108  GLU108      0.1733
     95  C         -0.7120   10.7680    1.5410 C.2   108  GLU108      0.2616
     96  O          0.3900   10.2330    1.4050 O.2   108  GLU108     -0.2715
     97  CB        -2.6360    9.8450    0.1310 C.3   108  GLU108      0.0429
     98  CG        -2.1130    8.5660   -0.3840 C.3   108  GLU108      0.1163
     99  CD        -3.2420    7.6410   -0.8060 C.2   108  GLU108      0.3649
    100  OE1       -4.0800    7.3170    0.0700 O.co2 108  GLU108     -0.2457
    101  OE2       -3.2650    7.2590   -2.0040 O.co2 108  GLU108     -0.2457
    102  N         -1.1890   11.2000    2.7080 N.am  109  TYR109     -0.1960
    103  CA        -0.4870   11.0650    3.9730 C.3   109  TYR109      0.1771
    104  C         -0.7600    9.6930    4.5740 C.2   109  TYR109      0.2619
    105  O         -1.9140    9.2710    4.6990 O.2   109  TYR109     -0.2715
    106  CB        -0.9270   12.1670    4.9440 C.3   109  TYR109      0.0574
    107  CG        -0.3350   12.0710    6.3290 C.ar  109  TYR109     -0.0198
    108  CD1        1.0260   11.8740    6.5120 C.ar  109  TYR109     -0.0009
    109  CD2       -1.1450   12.1790    7.4620 C.ar  109  TYR109     -0.0009
    110  CE1        1.5750   11.7850    7.7980 C.ar  109  TYR109      0.0417
    111  CE2       -0.6050   12.0910    8.7500 C.ar  109  TYR109      0.0417
    112  CZ         0.7510   11.8950    8.9100 C.ar  109  TYR109      0.1957
    113  OH         1.2920   11.8070   10.1760 O.3   109  TYR109     -0.2866
    114  N          0.3150    9.0110    4.9410 N.am  110  ALA110     -0.1977
    115  CA         0.2700    7.7080    5.5920 C.3   110  ALA110      0.1597
    116  C          0.6820    7.8800    7.0570 C.2   110  ALA110      0.2287
    117  O          1.8750    7.9570    7.3570 O.2   110  ALA110     -0.2864
    118  CB         1.1860    6.7620    4.8890 C.3   110  ALA110      0.0319
    119  N          7.0210    4.8620    8.8860 N.3   114  GLU114     -0.1245
    120  CA         7.7930    3.9230    8.0520 C.3   114  GLU114      0.1567
    121  C          7.8000    2.5260    8.6810 C.2   114  GLU114      0.2260
    122  O          7.9320    2.3950    9.9100 O.2   114  GLU114     -0.2867
    123  CB         9.2380    4.3810    7.9390 C.3   114  GLU114      0.0388
    124  CG         9.4440    5.6800    7.1770 C.3   114  GLU114      0.1160
    125  CD        10.8790    6.2010    7.2350 C.2   114  GLU114      0.3649
    126  OE1       11.7380    5.5680    7.8760 O.co2 114  GLU114     -0.2457
    127  OE2       11.1580    7.2520    6.6400 O.co2 114  GLU114     -0.2457
    128  N         12.5420    1.5460    4.9390 N.3   157  GLU157     -0.1231
    129  CA        12.5520    2.9930    5.1120 C.3   157  GLU157      0.1699
    130  C         11.5560    3.6580    4.1730 C.2   157  GLU157      0.2592
    131  O         11.0440    4.7550    4.4500 O.2   157  GLU157     -0.2718
    132  CB        13.9550    3.5650    4.7970 C.3   157  GLU157      0.0402
    133  CG        15.0490    3.2710    5.8030 C.3   157  GLU157      0.1161
    134  CD        15.8520    2.0030    5.4980 C.2   157  GLU157      0.3649
    135  OE1       15.2630    0.9660    5.1340 O.co2 157  GLU157     -0.2457
    136  OE2       17.0860    2.0540    5.6290 O.co2 157  GLU157     -0.2457
    137  N         11.2840    2.9950    3.0590 N.am  158  ASN158     -0.1974
    138  CA        10.4190    3.5430    2.0180 C.3   158  ASN158      0.1688
    139  C          9.1080    2.8140    1.8640 C.2   158  ASN158      0.2292
    140  O          8.4960    2.8890    0.8020 O.2   158  ASN158     -0.2864
    141  CB        11.1610    3.5450    0.6730 C.3   158  ASN158      0.1181
    142  CG        12.2730    4.5390    0.6550 C.2   158  ASN158      0.2629
    143  OD1       12.3700    5.3620    1.5540 O.2   158  ASN158     -0.2716
    144  ND2       13.1200    4.4740   -0.3610 N.am  158  ASN158     -0.0877
    145  N          5.5860    2.9610    3.6880 N.3   160  MET160     -0.1245
    146  CA         4.7930    3.6970    4.6690 C.3   160  MET160      0.1570
    147  C          3.5720    2.8740    5.0630 C.2   160  MET160      0.2261
    148  O          3.0230    2.1350    4.2370 O.2   160  MET160     -0.2867
    149  CB         4.3710    5.0540    4.1050 C.3   160  MET160      0.0387
    150  CG         5.5090    5.8680    3.4690 C.3   160  MET160      0.0595
    151  SD         6.9100    6.0860    4.5780 S.3   160  MET160     -0.1393
    152  CE         6.1510    7.0180    5.9160 C.3   160  MET160      0.0692
    153  N          5.7610    5.0210   -1.8650 N.3   170  THR170     -0.1203
    154  CA         5.6710    6.4570   -2.1590 C.3   170  THR170      0.1994
    155  C          6.7970    7.0770   -2.9970 C.2   170  THR170      0.2617
    156  O          6.5660    8.0700   -3.7220 O.2   170  THR170     -0.2717
    157  CB         5.6700    7.2880   -0.8450 C.3   170  THR170      0.1784
    158  OG1        6.8900    7.0550   -0.1320 O.3   170  THR170     -0.2211
    159  CG2        4.4930    6.9180    0.0410 C.3   170  THR170      0.0376
    160  N          7.9940    6.5090   -2.8990 N.am  171  ASP171     -0.1973
    161  CA         9.1790    7.1220   -3.4890 C.3   171  ASP171      0.1709
    162  C          9.5830    6.4450   -4.8100 C.2   171  ASP171      0.2293
    163  O          9.9270    5.2580   -4.8510 O.2   171  ASP171     -0.2864
    164  CB        10.3350    7.0150   -2.5220 C.3   171  ASP171      0.1436
    165  CG        10.0110    7.5820   -1.1550 C.2   171  ASP171      0.3671
    166  OD1        9.1660    8.5130   -1.0490 O.co2 171  ASP171     -0.2456
    167  OD2       10.6270    7.0720   -0.1860 O.co2 171  ASP171     -0.2456
    168  N          6.1760    8.9950   13.4760 N.3   313  PHE313     -0.1241
    169  CA         7.3330    9.4720   12.7150 C.3   313  PHE313      0.1605
    170  C          8.3560    9.9920   13.7020 C.2   313  PHE313      0.2264
    171  O          7.9950   10.4790   14.7720 O.2   313  PHE313     -0.2867
    172  CB         6.9580   10.6260   11.7720 C.3   313  PHE313      0.0534
    173  CG         6.1060   10.2070   10.5860 C.ar  313  PHE313     -0.0203
    174  CD1        4.7240   10.0800   10.7070 C.ar  313  PHE313     -0.0042
    175  CD2        6.6880    9.9440    9.3620 C.ar  313  PHE313     -0.0042
    176  CE1        3.9510    9.6930    9.6070 C.ar  313  PHE313     -0.0003
    177  CE2        5.9180    9.5570    8.2650 C.ar  313  PHE313     -0.0003
    178  CZ         4.5490    9.4340    8.3960 C.ar  313  PHE313     -0.0000
    179  N         12.5440   15.5920   13.0520 N.3   316  TYR316     -0.1241
    180  CA        13.6050   16.1110   12.1970 C.3   316  TYR316      0.1605
    181  C         13.7360   17.5920   12.3780 C.2   316  TYR316      0.2264
    182  O         12.7380   18.2850   12.6050 O.2   316  TYR316     -0.2867
    183  CB        13.2800   15.8200   10.7380 C.3   316  TYR316      0.0534
    184  CG        13.3170   14.3330   10.3910 C.ar  316  TYR316     -0.0201
    185  CD1       14.4900   13.7350    9.9840 C.ar  316  TYR316     -0.0009
    186  CD2       12.1700   13.5450   10.4770 C.ar  316  TYR316     -0.0009
    187  CE1       14.5350   12.4030    9.6690 C.ar  316  TYR316      0.0417
    188  CE2       12.2050   12.1960   10.1630 C.ar  316  TYR316      0.0417
    189  CZ        13.3910   11.6400    9.7610 C.ar  316  TYR316      0.1957
    190  OH        13.4630   10.3320    9.4470 O.3   316  TYR316     -0.2866
@<TRIPOS>BOND
     1    83    82    1
     2    39    40   ar
     3    39    37   ar
     4    40    38   ar
     5    81    82    1
     6    81    78    1
     7    80    79    2
     8    82    84    1
     9   163   162    2
    10    37    35   ar
    11   162   161    1
    12    38    36   ar
    13    35    36   ar
    14    35    34    1
    15    79    78    1
    16    78    77    1
    17    34    31    1
    18   156   155    2
    19   161   160    1
    20   161   164    1
    21    75    76    1
    22    75    74    1
    23   155   160   am
    24   155   154    1
    25    92    91    1
    26    71    70    2
    27    33    32    2
    28   164   165    1
    29    89    86    1
    30    89    90    1
    31    73    74    1
    32    73    72    1
    33    31    32    1
    34    31    30    1
    35    86    85    1
    36    86    87    1
    37   154   153    1
    38   154   157    1
    39    72    69    1
    40   101    99   ar
    41    32    41    1
    42    91    90    1
    43    70    69    1
    44    30    26   am
    45   165   166   ar
    46   165   167   ar
    47    28    29    1
    48    28    25    1
    49    69    68    1
    50    41    42    2
    51    87    93   am
    52    87    88    2
    53    93    94    1
    54    26    27    2
    55    26    25    1
    56   157   158    1
    57   157   159    1
    58    99    98    1
    59    99   100   ar
    60    42    43    1
    61    98    97    1
    62   144   142   am
    63    25    24    1
    64    66    65    2
    65    97    94    1
    66    24    22   am
    67    94    95    1
    68   142   141    1
    69   142   143    2
    70   141   138    1
    71    43    45   am
    72    43    44    2
    73   140   139    2
    74    48    47    2
    75    45    46    1
    76    22    21    1
    77    22    23    2
    78    65    64    1
    79    96    95    2
    80    62    60    1
    81    95   102   am
    82    21    20    1
    83   139   138    1
    84   138   137    1
    85    47    46    1
    86    47    56   am
    87    55    53    1
    88    46    49    1
    89    63    64    1
    90    64    67    1
    91    20    15   am
    92   102   103    1
    93    52    53    2
    94    52    51    1
    95    60    57    1
    96    60    61    1
    97    57    56    1
    98    57    58    1
    99   137   130   am
   100    53    54    1
   101    49    50    1
   102    50    51    1
   103   150   149    1
   104   150   151    1
   105    15    16    2
   106    15    14    1
   107   145   146    1
   108   103   104    1
   109   103   106    1
   110   149   146    1
   111    58    59    2
   112   130   131    2
   113   130   129    1
   114   148   147    2
   115    14    17    1
   116    14    13    1
   117   104   105    2
   118   104   114   am
   119   151   152    1
   120   146   147    1
   121   132   129    1
   122   132   133    1
   123   118   115    1
   124   128   129    1
   125   114   115    1
   126   106   107    1
   127    12    11    2
   128   135   134   ar
   129    17    18    1
   130    17    19    1
   131    13    11   am
   132   134   136   ar
   133   134   133    1
   134   115   116    1
   135    11    10    1
   136   107   108   ar
   137   107   109   ar
   138   108   110   ar
   139     7     6    1
   140   127   125   ar
   141    10     9    1
   142   116   117    2
   143     9     3   am
   144   124   125    1
   145   124   123    1
   146   125   126   ar
   147     5     6    1
   148     5     2    1
   149   109   111   ar
   150     6     8    1
   151     3     4    2
   152     3     2    1
   153   110   112   ar
   154     1     2    1
   155   123   120    1
   156   120   121    1
   157   120   119    1
   158   177   178   ar
   159   177   175   ar
   160   178   176   ar
   161   121   122    2
   162   111   112   ar
   163   112   113    1
   164   175   173   ar
   165   190   189    1
   166   176   174   ar
   167   187   189   ar
   168   187   185   ar
   169   189   188   ar
   170   185   184   ar
   171   188   186   ar
   172   184   186   ar
   173   184   183    1
   174   173   174   ar
   175   173   172    1
   176   183   180    1
   177   172   169    1
   178   180   181    1
   179   180   179    1
   180   181   182    2
   181   169   168    1
   182   169   170    1
   183   170   171    2
