@<TRIPOS>MOLECULE
tmp/4axbA00.pdb
 122 121 0 0 0
SMALL
GASTEIGER

@<TRIPOS>ATOM
      1  N        -22.9450  -47.0270  -29.0220 N.3    68  ASP68      -0.1239
      2  CA       -23.3240  -47.6040  -27.7180 C.3    68  ASP68       0.1674
      3  C        -24.5100  -48.6350  -27.8370 C.2    68  ASP68       0.2266
      4  O        -25.6150  -48.2450  -28.1310 O.2    68  ASP68      -0.2867
      5  CB       -23.7040  -46.4850  -26.7330 C.3    68  ASP68       0.1410
      6  CG       -23.9130  -47.0020  -25.2930 C.2    68  ASP68       0.3668
      7  OD1      -23.7760  -48.2370  -24.9890 O.co2  68  ASP68      -0.2456
      8  OD2      -24.1940  -46.1600  -24.4270 O.co2  68  ASP68      -0.2456
      9  N        -27.5820  -40.5050  -27.2730 N.3    80  TRP80      -0.1241
     10  CA       -26.2270  -40.1030  -27.6310 C.3    80  TRP80       0.1605
     11  C        -25.6620  -40.7160  -28.9480 C.2    80  TRP80       0.2264
     12  O        -24.6290  -40.2200  -29.4750 O.2    80  TRP80      -0.2867
     13  CB       -25.2470  -40.3520  -26.4610 C.3    80  TRP80       0.0550
     14  CG       -25.6540  -39.6870  -25.1360 C.ar   80  TRP80       0.0003
     15  CD1      -26.1450  -40.3130  -24.0240 C.ar   80  TRP80       0.0946
     16  CD2      -25.5930  -38.2970  -24.8140 C.ar   80  TRP80       0.0152
     17  NE1      -26.4120  -39.3980  -23.0230 N.ar   80  TRP80      -0.2442
     18  CE2      -26.0730  -38.1490  -23.4850 C.ar   80  TRP80       0.0810
     19  CE3      -25.1470  -37.1700  -25.4940 C.ar   80  TRP80       0.0012
     20  CZ2      -26.1120  -36.8860  -22.8270 C.ar   80  TRP80       0.0191
     21  CZ3      -25.1950  -35.9090  -24.8610 C.ar   80  TRP80       0.0001
     22  CH2      -25.6660  -35.7810  -23.5350 C.ar   80  TRP80       0.0015
     23  N        -18.8050  -33.5930  -27.6760 N.3   113  GLY113     -0.1210
     24  CA       -17.9450  -34.6270  -27.0890 C.3   113  GLY113      0.1956
     25  C        -18.3530  -36.0500  -27.5260 C.2   113  GLY113      0.2612
     26  O        -19.0790  -36.2430  -28.5150 O.2   113  GLY113     -0.2717
     27  N        -17.8250  -37.0510  -26.8170 N.am  114  GLY114     -0.1956
     28  CA       -17.9210  -38.4460  -27.2270 C.3   114  GLY114      0.1869
     29  C        -16.5530  -39.1190  -27.0970 C.2   114  GLY114      0.2309
     30  O        -16.2210  -40.0990  -27.8490 O.2   114  GLY114     -0.2863
     31  N        -16.6380  -40.9090  -30.5830 N.3   118  THR118     -0.1218
     32  CA       -18.0050  -40.8740  -30.9990 C.3   118  THR118      0.1862
     33  C        -18.5230  -39.4210  -31.0580 C.2   118  THR118      0.2287
     34  O        -17.8020  -38.4390  -30.6990 O.2   118  THR118     -0.2866
     35  CB       -18.9430  -41.7180  -30.0100 C.3   118  THR118      0.1770
     36  OG1      -18.9930  -41.0860  -28.7080 O.3   118  THR118     -0.2211
     37  CG2      -18.4730  -43.2440  -29.8840 C.3   118  THR118      0.0375
     38  N        -28.3090  -30.7390  -29.1940 N.3   126  TYR126     -0.1241
     39  CA       -27.4000  -29.7120  -29.7380 C.3   126  TYR126      0.1605
     40  C        -28.1180  -28.7830  -30.7420 C.2   126  TYR126      0.2264
     41  O        -27.4740  -28.0570  -31.5280 O.2   126  TYR126     -0.2867
     42  CB       -26.2210  -30.3590  -30.4650 C.3   126  TYR126      0.0534
     43  CG       -25.4050  -31.3780  -29.7110 C.ar  126  TYR126     -0.0201
     44  CD1      -25.2800  -31.2980  -28.2990 C.ar  126  TYR126     -0.0009
     45  CD2      -24.7230  -32.4120  -30.4180 C.ar  126  TYR126     -0.0009
     46  CE1      -24.5120  -32.2500  -27.5900 C.ar  126  TYR126      0.0417
     47  CE2      -23.9000  -33.3490  -29.7480 C.ar  126  TYR126      0.0417
     48  CZ       -23.8110  -33.2560  -28.3300 C.ar  126  TYR126      0.1957
     49  OH       -23.0840  -34.1210  -27.5900 O.3   126  TYR126     -0.2866
     50  N        -18.5460  -29.6190  -24.9640 N.3   195  GLU195     -0.1245
     51  CA       -18.6700  -30.3900  -23.7340 C.3   195  GLU195      0.1567
     52  C        -17.7910  -31.6660  -23.7580 C.2   195  GLU195      0.2260
     53  O        -17.6570  -32.3290  -24.8280 O.2   195  GLU195     -0.2867
     54  CB       -20.1460  -30.7190  -23.4380 C.3   195  GLU195      0.0388
     55  CG       -20.4380  -31.5020  -22.0540 C.3   195  GLU195      0.1160
     56  CD       -20.4960  -33.0040  -22.2240 C.2   195  GLU195      0.3649
     57  OE1      -20.3730  -33.4240  -23.4070 O.co2 195  GLU195     -0.2457
     58  OE2      -20.6980  -33.7490  -21.1970 O.co2 195  GLU195     -0.2457
     59  N        -22.2550  -41.8910  -14.5850 N.3   325  ALA325     -0.1231
     60  CA       -22.6060  -42.4760  -15.9000 C.3   325  ALA325      0.1694
     61  C        -21.6660  -43.6400  -16.1810 C.2   325  ALA325      0.2592
     62  O        -22.0390  -44.5920  -16.8380 O.2   325  ALA325     -0.2718
     63  CB       -22.4350  -41.4360  -16.9960 C.3   325  ALA325      0.0304
     64  N        -20.4320  -43.5540  -15.7110 N.am  326  PHE326     -0.1976
     65  CA       -19.4600  -44.5430  -16.1720 C.3   326  PHE326      0.1639
     66  C        -19.5090  -45.8350  -15.3850 C.2   326  PHE326      0.2290
     67  O        -18.9610  -46.8370  -15.8290 O.2   326  PHE326     -0.2864
     68  CB       -18.0410  -43.9440  -16.2330 C.3   326  PHE326      0.0560
     69  CG       -17.9890  -42.7160  -17.0940 C.ar  326  PHE326     -0.0200
     70  CD1      -17.8400  -42.8420  -18.4860 C.ar  326  PHE326     -0.0042
     71  CD2      -18.1280  -41.4310  -16.5230 C.ar  326  PHE326     -0.0042
     72  CE1      -17.8280  -41.7110  -19.3140 C.ar  326  PHE326     -0.0003
     73  CE2      -18.1170  -40.2800  -17.3280 C.ar  326  PHE326     -0.0003
     74  CZ       -17.9700  -40.4370  -18.7460 C.ar  326  PHE326     -0.0000
     75  N        -32.2860  -41.9460  -16.5500 N.3   427  TRP427     -0.1241
     76  CA       -31.4180  -42.7350  -15.6440 C.3   427  TRP427      0.1605
     77  C        -31.9460  -42.7480  -14.1740 C.2   427  TRP427      0.2264
     78  O        -32.6770  -41.8370  -13.7500 O.2   427  TRP427     -0.2867
     79  CB       -29.9760  -42.1680  -15.7000 C.3   427  TRP427      0.0550
     80  CG       -29.3190  -42.2300  -17.0870 C.ar  427  TRP427      0.0003
     81  CD1      -29.2870  -41.2280  -18.0360 C.ar  427  TRP427      0.0946
     82  CD2      -28.5960  -43.3450  -17.6540 C.ar  427  TRP427      0.0152
     83  NE1      -28.6240  -41.6660  -19.1700 N.ar  427  TRP427     -0.2442
     84  CE2      -28.1720  -42.9530  -18.9580 C.ar  427  TRP427      0.0810
     85  CE3      -28.2870  -44.6590  -17.1970 C.ar  427  TRP427      0.0012
     86  CZ2      -27.4130  -43.8000  -19.7880 C.ar  427  TRP427      0.0191
     87  CZ3      -27.5440  -45.5110  -18.0500 C.ar  427  TRP427      0.0001
     88  CH2      -27.1050  -45.0650  -19.3120 C.ar  427  TRP427      0.0015
     89  N        -25.9670  -35.8530  -13.6530 N.3   434  MET434     -0.1230
     90  CA       -25.0350  -36.6610  -14.4190 C.3   434  MET434      0.1702
     91  C        -24.2210  -35.8610  -15.4000 C.2   434  MET434      0.2592
     92  O        -24.6100  -34.7650  -15.8230 O.2   434  MET434     -0.2718
     93  CB       -25.8500  -37.7150  -15.2140 C.3   434  MET434      0.0401
     94  CG       -26.1730  -38.9730  -14.4510 C.3   434  MET434      0.0596
     95  SD       -27.2830  -40.0920  -15.3620 S.3   434  MET434     -0.1393
     96  CE       -26.1880  -40.8660  -16.5410 C.3   434  MET434      0.0692
     97  N        -23.1100  -36.4560  -15.8190 N.am  435  HIS435     -0.1962
     98  CA       -22.2830  -35.9590  -16.9200 C.3   435  HIS435      0.1787
     99  C        -23.1480  -35.9000  -18.1760 C.2   435  HIS435      0.2621
    100  O        -23.7910  -36.8910  -18.4850 O.2   435  HIS435     -0.2715
    101  CB       -21.1770  -36.9990  -17.1270 C.3   435  HIS435      0.0785
    102  CG       -20.2680  -36.7040  -18.2800 C.ar  435  HIS435      0.0821
    103  ND1      -19.2910  -35.7310  -18.2260 N.ar  435  HIS435     -0.2267
    104  CD2      -20.1390  -37.3070  -19.4930 C.ar  435  HIS435      0.1154
    105  CE1      -18.6290  -35.7190  -19.3770 C.ar  435  HIS435      0.1986
    106  NE2      -19.1270  -36.6620  -20.1660 N.ar  435  HIS435     -0.2212
    107  N        -23.1820  -34.7450  -18.8680 N.am  436  GLY436     -0.1940
    108  CA       -23.8870  -34.5250  -20.1660 C.3   436  GLY436      0.2014
    109  C        -25.2360  -33.8630  -19.9800 C.2   436  GLY436      0.2638
    110  O        -25.8740  -33.4590  -20.9510 O.2   436  GLY436     -0.2714
    111  N        -25.7050  -33.7120  -18.7480 N.am  437  TYR437     -0.1973
    112  CA       -27.1160  -33.3580  -18.6070 C.3   437  TYR437      0.1639
    113  C        -27.3030  -31.8960  -18.2270 C.2   437  TYR437      0.2290
    114  O        -28.3610  -31.5380  -17.7480 O.2   437  TYR437     -0.2864
    115  CB       -27.9210  -34.3920  -17.7200 C.3   437  TYR437      0.0560
    116  CG       -28.1140  -35.7000  -18.4940 C.ar  437  TYR437     -0.0198
    117  CD1      -29.1580  -35.8450  -19.3900 C.ar  437  TYR437     -0.0009
    118  CD2      -27.1700  -36.7210  -18.4420 C.ar  437  TYR437     -0.0009
    119  CE1      -29.2990  -37.0220  -20.1710 C.ar  437  TYR437      0.0417
    120  CE2      -27.3020  -37.9020  -19.2160 C.ar  437  TYR437      0.0417
    121  CZ       -28.3830  -38.0360  -20.0690 C.ar  437  TYR437      0.1957
    122  OH       -28.5480  -39.1730  -20.8400 O.3   437  TYR437     -0.2866
@<TRIPOS>BOND
     1    41    40    2
     2    33    32    1
     3    33    34    2
     4    32    31    1
     5    32    35    1
     6    40    39    1
     7    42    39    1
     8    42    43    1
     9    45    47   ar
    10    45    43   ar
    11    35    37    1
    12    35    36    1
    13    47    48   ar
    14    39    38    1
    15    43    44   ar
    16    12    11    2
    17     1     2    1
    18    11    10    1
    19    26    25    2
    20    48    46   ar
    21    48    49    1
    22    44    46   ar
    23     4     3    2
    24    30    29    2
    25     3     2    1
    26     2     5    1
    27    23    24    1
    28    10     9    1
    29    10    13    1
    30    25    24    1
    31    25    27   am
    32    28    29    1
    33    28    27    1
    34     5     6    1
    35    13    14    1
    36    19    21   ar
    37    19    16   ar
    38     6     7   ar
    39     6     8   ar
    40    14    16   ar
    41    14    15   ar
    42    50    51    1
    43    21    22   ar
    44    53    52    2
    45    16    18   ar
    46    15    17   ar
    47    52    51    1
    48    51    54    1
    49    22    20   ar
    50    18    17   ar
    51    18    20   ar
    52    54    55    1
    53    57    56   ar
    54    56    55    1
    55    56    58   ar
    56   110   109    2
    57   122   121    1
    58   119   121   ar
    59   119   117   ar
    60   106   104   ar
    61   106   105   ar
    62   108   109    1
    63   108   107    1
    64   121   120   ar
    65   109   111   am
    66    86    88   ar
    67    86    84   ar
    68   104   102   ar
    69   117   116   ar
    70   105   103   ar
    71    72    74   ar
    72    72    70   ar
    73    88    87   ar
    74   120   118   ar
    75    83    84   ar
    76    83    81   ar
    77    84    82   ar
    78   107    99   am
    79   111   112    1
    80    74    73   ar
    81   112   113    1
    82   112   115    1
    83   116   118   ar
    84   116   115    1
    85    70    69   ar
    86   100    99    2
    87   102   103   ar
    88   102   101    1
    89   113   114    2
    90    99    98    1
    91    87    85   ar
    92    81    80   ar
    93    82    85   ar
    94    82    80   ar
    95    73    71   ar
    96   101    98    1
    97    69    71   ar
    98    69    68    1
    99    80    79    1
   100    63    60    1
   101    98    97    1
   102    62    61    2
   103    75    76    1
   104    96    95    1
   105    68    65    1
   106    61    60    1
   107    61    64   am
   108    65    64    1
   109    65    66    1
   110    60    59    1
   111    67    66    2
   112    92    91    2
   113    97    91   am
   114    79    76    1
   115    76    77    1
   116    91    90    1
   117    95    94    1
   118    93    94    1
   119    93    90    1
   120    90    89    1
   121    77    78    2
