@<TRIPOS>MOLECULE
tmp/4axdA00.pdb
 191 179 0 0 0
SMALL
GASTEIGER

@<TRIPOS>ATOM
      1  N        -22.5930   -3.4120  -11.3850 N.3    16  ARG16      -0.1231
      2  CA       -23.6630   -2.4330  -11.6290 C.3    16  ARG16       0.1694
      3  C        -24.3380   -2.6800  -12.9740 C.2    16  ARG16       0.2593
      4  O        -25.5750   -2.7060  -13.0620 O.2    16  ARG16      -0.2718
      5  CB       -23.1340   -0.9960  -11.5470 C.3    16  ARG16       0.0321
      6  CG       -24.1220    0.0840  -12.0040 C.3    16  ARG16       0.0489
      7  CD       -25.3350    0.2230  -11.0850 C.3    16  ARG16       0.2205
      8  NE       -24.9650    0.6710   -9.7430 N.pl3  16  ARG16      -0.0865
      9  CZ       -24.6560    1.9220   -9.4200 C.cat  16  ARG16       0.5346
     10  NH1      -24.6290    2.8700  -10.3460 N.pl3  16  ARG16       0.1354
     11  NH2      -24.3250    2.2150   -8.1770 N.pl3  16  ARG16       0.1354
     12  N        -23.5290   -2.8540  -14.0210 N.am   17  GLY17      -0.1942
     13  CA       -24.0540   -3.0840  -15.3670 C.3    17  GLY17       0.2014
     14  C        -22.9550   -3.2580  -16.3860 C.2    17  GLY17       0.2639
     15  O        -21.7720   -3.3480  -16.0460 O.2    17  GLY17      -0.2714
     16  N        -23.3520   -3.2920  -17.6520 N.am   18  GLU18      -0.1963
     17  CA       -22.4280   -3.5280  -18.7330 C.3    18  GLU18       0.1733
     18  C        -23.0920   -3.2030  -20.0550 C.2    18  GLU18       0.2617
     19  O        -24.3220   -3.1910  -20.1570 O.2    18  GLU18      -0.2715
     20  CB       -21.9740   -4.9970  -18.7260 C.3    18  GLU18       0.0429
     21  CG       -23.0470   -6.0040  -19.1140 C.3    18  GLU18       0.1163
     22  CD       -22.5820   -7.4320  -18.9300 C.2    18  GLU18       0.3649
     23  OE1      -22.6780   -7.9490  -17.7930 O.co2  18  GLU18      -0.2457
     24  OE2      -22.1350   -8.0380  -19.9320 O.co2  18  GLU18      -0.2457
     25  N        -22.2620   -2.9410  -21.0570 N.am   19  GLY19      -0.1940
     26  CA       -22.7140   -2.8920  -22.4430 C.3    19  GLY19       0.2014
     27  C        -21.7540   -3.7230  -23.2740 C.2    19  GLY19       0.2639
     28  O        -21.0270   -4.5600  -22.7310 O.2    19  GLY19      -0.2714
     29  N        -21.7200   -3.4700  -24.5810 N.am   20  GLY20      -0.1939
     30  CA       -20.8420   -4.2120  -25.4900 C.3    20  GLY20       0.2014
     31  C        -19.3330   -4.0940  -25.2940 C.2    20  GLY20       0.2639
     32  O        -18.5950   -5.0010  -25.6810 O.2    20  GLY20      -0.2714
     33  N        -18.8560   -2.9860  -24.7260 N.am   21  ALA21      -0.1963
     34  CA       -17.4110   -2.7640  -24.5800 C.3    21  ALA21       0.1728
     35  C        -16.8840   -2.8260  -23.1440 C.2    21  ALA21       0.2616
     36  O        -15.7020   -3.1440  -22.9450 O.2    21  ALA21      -0.2715
     37  CB       -16.9910   -1.4420  -25.2100 C.3    21  ALA21       0.0334
     38  N        -17.7340   -2.4990  -22.1650 N.am   22  ASN22      -0.1972
     39  CA       -17.2930   -2.3350  -20.7750 C.3    22  ASN22       0.1688
     40  C        -18.1580   -3.0130  -19.7140 C.2    22  ASN22       0.2292
     41  O        -19.3610   -3.1370  -19.8770 O.2    22  ASN22      -0.2864
     42  CB       -17.1920   -0.8440  -20.4210 C.3    22  ASN22       0.1181
     43  CG       -16.0590   -0.1480  -21.1590 C.2    22  ASN22       0.2629
     44  OD1      -14.9110   -0.2350  -20.7570 O.2    22  ASN22      -0.2716
     45  ND2      -16.3870    0.5440  -22.2450 N.am   22  ASN22      -0.0877
     46  N        -19.1820   -2.3200  -15.6840 N.3    24  VAL24      -0.1245
     47  CA       -19.2300   -1.2210  -14.7270 C.3    24  VAL24       0.1561
     48  C        -19.5490   -1.7790  -13.3440 C.2    24  VAL24       0.2260
     49  O        -20.5090   -2.5420  -13.1760 O.2    24  VAL24      -0.2867
     50  CB       -20.2450   -0.1210  -15.1260 C.3    24  VAL24       0.0252
     51  CG1      -20.2140    1.0410  -14.1310 C.3    24  VAL24       0.0019
     52  CG2      -19.9850    0.3680  -16.5440 C.3    24  VAL24       0.0019
     53  N        -17.8280    4.8390   -9.6550 N.3    38  VAL38      -0.1245
     54  CA       -17.9150    3.5490  -10.3340 C.3    38  VAL38       0.1561
     55  C        -16.5880    3.3020  -11.0150 C.2    38  VAL38       0.2260
     56  O        -15.8010    4.2310  -11.1870 O.2    38  VAL38      -0.2867
     57  CB       -19.0740    3.4660  -11.3660 C.3    38  VAL38       0.0252
     58  CG1      -20.4220    3.5020  -10.6550 C.3    38  VAL38       0.0019
     59  CG2      -18.9630    4.5700  -12.4250 C.3    38  VAL38       0.0019
     60  N        -15.0160    1.5660  -14.5650 N.3    40  ARG40      -0.1245
     61  CA       -15.3420    1.0810  -15.8870 C.3    40  ARG40       0.1563
     62  C        -14.1550    0.2670  -16.3930 C.2    40  ARG40       0.2260
     63  O        -13.0140    0.7450  -16.4070 O.2    40  ARG40      -0.2867
     64  CB       -15.6140    2.2710  -16.7810 C.3    40  ARG40       0.0307
     65  CG       -16.4910    1.9980  -17.9770 C.3    40  ARG40       0.0489
     66  CD       -16.8630    3.3340  -18.5960 C.3    40  ARG40       0.2205
     67  NE       -17.7640    3.2170  -19.7340 N.pl3  40  ARG40      -0.0865
     68  CZ       -17.3930    3.4210  -20.9900 C.cat  40  ARG40       0.5346
     69  NH1      -16.1290    3.7330  -21.2700 N.pl3  40  ARG40       0.1354
     70  NH2      -18.2830    3.3260  -21.9620 N.pl3  40  ARG40       0.1354
     71  N        -14.9920    6.8470  -12.5000 N.3   146  LEU146     -0.1231
     72  CA       -15.9300    7.9060  -12.8370 C.3   146  LEU146      0.1693
     73  C        -16.8730    8.1270  -11.6580 C.2   146  LEU146      0.2592
     74  O        -17.1410    7.2020  -10.8930 O.2   146  LEU146     -0.2718
     75  CB       -16.7560    7.4770  -14.0540 C.3   146  LEU146      0.0284
     76  CG       -15.9460    7.1880  -15.3160 C.3   146  LEU146      0.0019
     77  CD1      -16.4270    5.8890  -15.9430 C.3   146  LEU146      0.0001
     78  CD2      -16.0480    8.3450  -16.2940 C.3   146  LEU146      0.0001
     79  N        -17.3850    9.3440  -11.5100 N.am  147  ASN147     -0.1960
     80  CA       -18.4750    9.5580  -10.5770 C.3   147  ASN147      0.1819
     81  C        -19.6810    8.7250  -10.9720 C.2   147  ASN147      0.2621
     82  O        -19.9570    8.5560  -12.1520 O.2   147  ASN147     -0.2715
     83  CB       -18.8790   11.0190  -10.5420 C.3   147  ASN147      0.1195
     84  CG       -17.8600   11.8830   -9.8400 C.2   147  ASN147      0.2630
     85  OD1      -17.4430   12.9130  -10.3660 O.2   147  ASN147     -0.2716
     86  ND2      -17.4580   11.4770   -8.6530 N.am  147  ASN147     -0.0877
     87  N        -20.3890    8.2210   -9.9660 N.am  148  ASP148     -0.1957
     88  CA       -21.5830    7.4250  -10.1590 C.3   148  ASP148      0.1840
     89  C        -22.7490    8.3790  -10.4480 C.2   148  ASP148      0.2622
     90  O        -23.2670    9.0470   -9.5460 O.2   148  ASP148     -0.2715
     91  CB       -21.8340    6.5980   -8.8930 C.3   148  ASP148      0.1450
     92  CG       -23.0160    5.6700   -9.0100 C.2   148  ASP148      0.3671
     93  OD1      -23.7930    5.7640   -9.9870 O.co2 148  ASP148     -0.2456
     94  OD2      -23.1690    4.8410   -8.0870 O.co2 148  ASP148     -0.2456
     95  N        -23.1560    8.4440  -11.7100 N.am  149  HIS149     -0.1973
     96  CA       -24.2300    9.3600  -12.1040 C.3   149  HIS149      0.1656
     97  C        -25.6130    8.8360  -11.8150 C.2   149  HIS149      0.2291
     98  O        -26.6130    9.4740  -12.1700 O.2   149  HIS149     -0.2864
     99  CB       -24.0740    9.7850  -13.5540 C.3   149  HIS149      0.0771
    100  CG       -22.7220   10.3650  -13.8610 C.ar  149  HIS149      0.0820
    101  ND1      -22.1740   11.3560  -13.1280 N.ar  149  HIS149     -0.2267
    102  CD2      -21.7980   10.0520  -14.8530 C.ar  149  HIS149      0.1154
    103  CE1      -20.9620   11.6540  -13.6200 C.ar  149  HIS149      0.1986
    104  NE2      -20.7330   10.8560  -14.6780 N.ar  149  HIS149     -0.2212
    105  N        -31.8230    6.9300  -16.7550 N.3   166  GLU166     -0.1245
    106  CA       -30.8880    6.7590  -17.8640 C.3   166  GLU166      0.1567
    107  C        -31.6370    6.5810  -19.1980 C.2   166  GLU166      0.2260
    108  O        -32.4880    5.6870  -19.3420 O.2   166  GLU166     -0.2867
    109  CB       -29.9640    5.5680  -17.5920 C.3   166  GLU166      0.0388
    110  CG       -28.9400    5.2940  -18.6970 C.3   166  GLU166      0.1160
    111  CD       -28.0970    4.0640  -18.3940 C.2   166  GLU166      0.3649
    112  OE1      -28.0640    3.6530  -17.2150 O.co2 166  GLU166     -0.2457
    113  OE2      -27.4550    3.5170  -19.3160 O.co2 166  GLU166     -0.2457
    114  N        -31.2360    6.2030  -23.4310 N.3   168  LYS168     -0.1245
    115  CA       -30.4680    6.0160  -24.6750 C.3   168  LYS168      0.1561
    116  C        -31.3360    6.5820  -25.7860 C.2   168  LYS168      0.2260
    117  O        -32.2480    5.8970  -26.2760 O.2   168  LYS168     -0.2867
    118  CB       -30.1910    4.5380  -24.9330 C.3   168  LYS168      0.0271
    119  CG       -29.2320    4.2780  -26.0940 C.3   168  LYS168      0.0035
    120  CD       -29.1530    2.7860  -26.3960 C.3   168  LYS168      0.0206
    121  CE       -28.2900    2.0650  -25.3740 C.3   168  LYS168      0.1093
    122  NZ       -26.9140    1.8070  -25.9050 N.3   168  LYS168     -0.1314
    123  N        -34.1540    3.3000  -18.3210 N.3   241  ARG241     -0.1245
    124  CA       -34.0010    2.6340  -17.0380 C.3   241  ARG241      0.1563
    125  C        -34.0380    3.6320  -15.9330 C.2   241  ARG241      0.2260
    126  O        -33.6490    4.7280  -16.1530 O.2   241  ARG241     -0.2867
    127  CB       -32.6660    1.9420  -16.8760 C.3   241  ARG241      0.0307
    128  CG       -32.1420    1.2910  -18.0040 C.3   241  ARG241      0.0489
    129  CD       -30.7550    1.6770  -18.2660 C.3   241  ARG241      0.2205
    130  NE       -29.9460    0.5450  -18.4730 N.pl3 241  ARG241     -0.0865
    131  CZ       -29.7760   -0.0960  -19.6050 C.cat 241  ARG241      0.5346
    132  NH1      -30.3430    0.2500  -20.7400 N.pl3 241  ARG241      0.1354
    133  NH2      -29.0050   -1.1190  -19.5720 N.pl3 241  ARG241      0.1354
    134  N        -33.0340    4.1520  -11.6580 N.3   243  PHE243     -0.1241
    135  CA       -32.3120    3.6550  -10.4860 C.3   243  PHE243      0.1605
    136  C        -32.7910    4.3460   -9.2170 C.2   243  PHE243      0.2264
    137  O        -33.0390    5.5470   -9.2220 O.2   243  PHE243     -0.2867
    138  CB       -30.8040    3.9090  -10.6330 C.3   243  PHE243      0.0534
    139  CG       -30.1780    3.2110  -11.8070 C.ar  243  PHE243     -0.0203
    140  CD1      -29.7320    1.8860  -11.6940 C.ar  243  PHE243     -0.0042
    141  CD2      -29.9930    3.8780  -13.0120 C.ar  243  PHE243     -0.0042
    142  CE1      -29.1420    1.2440  -12.7740 C.ar  243  PHE243     -0.0003
    143  CE2      -29.4100    3.2360  -14.1010 C.ar  243  PHE243     -0.0003
    144  CZ       -28.9940    1.9120  -13.9820 C.ar  243  PHE243     -0.0000
    145  N        -25.1450    7.2390  -30.2980 N.3   368  ASP368     -0.1239
    146  CA       -25.1150    5.9860  -29.5390 C.3   368  ASP368      0.1674
    147  C        -24.9270    6.1740  -28.0290 C.2   368  ASP368      0.2266
    148  O        -24.8740    5.2080  -27.2920 O.2   368  ASP368     -0.2867
    149  CB       -24.0200    5.0600  -30.0930 C.3   368  ASP368      0.1410
    150  CG       -24.3600    4.5030  -31.4690 C.2   368  ASP368      0.3668
    151  OD1      -25.5510    4.4320  -31.8280 O.co2 368  ASP368     -0.2456
    152  OD2      -23.4320    4.1450  -32.2150 O.co2 368  ASP368     -0.2456
    153  N        -25.6320    7.7160  -24.0010 N.3   370  SER370     -0.1217
    154  CA       -26.7640    7.8120  -23.0920 C.3   370  SER370      0.1889
    155  C        -26.6400    9.0430  -22.2020 C.2   370  SER370      0.2288
    156  O        -25.5690    9.6480  -22.0980 O.2   370  SER370     -0.2866
    157  CB       -26.9130    6.5180  -22.2660 C.3   370  SER370      0.2089
    158  OG       -27.3920    5.4540  -23.0880 O.3   370  SER370     -0.2183
    159  N        -27.6900   10.3590  -18.2350 N.3   372  MET372     -0.1245
    160  CA       -28.1280    9.9860  -16.8900 C.3   372  MET372      0.1570
    161  C        -28.5230   11.2810  -16.2200 C.2   372  MET372      0.2261
    162  O        -27.7140   12.2110  -16.1410 O.2   372  MET372     -0.2867
    163  CB       -27.0260    9.2540  -16.1130 C.3   372  MET372      0.0387
    164  CG       -26.6520    7.8860  -16.6950 C.3   372  MET372      0.0595
    165  SD       -25.5980    6.8850  -15.6050 S.3   372  MET372     -0.1393
    166  CE       -26.8300    6.3320  -14.4440 C.3   372  MET372      0.0692
    167  N        -23.1000    9.6960  -20.7650 N.3   405  ILE405     -0.1231
    168  CA       -22.2170    8.5440  -20.6160 C.3   405  ILE405      0.1692
    169  C        -22.0760    7.8070  -21.9380 C.2   405  ILE405      0.2592
    170  O        -22.8220    8.0670  -22.8920 O.2   405  ILE405     -0.2718
    171  CB       -22.6900    7.5610  -19.5180 C.3   405  ILE405      0.0266
    172  CG1      -24.0800    6.9900  -19.8440 C.3   405  ILE405      0.0019
    173  CG2      -22.6440    8.2300  -18.1400 C.3   405  ILE405      0.0020
    174  CD1      -24.3940    5.6940  -19.0970 C.3   405  ILE405      0.0001
    175  N        -21.1020    6.9020  -21.9830 N.am  406  ASP406     -0.1974
    176  CA       -20.9390    5.9690  -23.0960 C.3   406  ASP406      0.1709
    177  C        -20.5980    6.7590  -24.3580 C.2   406  ASP406      0.2293
    178  O        -21.2600    6.6470  -25.3820 O.2   406  ASP406     -0.2864
    179  CB       -22.2120    5.1270  -23.2760 C.3   406  ASP406      0.1436
    180  CG       -22.0300    3.9740  -24.2400 C.2   406  ASP406      0.3671
    181  OD1      -20.8750    3.6760  -24.6190 O.co2 406  ASP406     -0.2456
    182  OD2      -23.0600    3.3600  -24.6160 O.co2 406  ASP406     -0.2456
    183  N        -15.5160    5.6140  -32.2520 N.3   410  LYS410     -0.1245
    184  CA       -15.9440    4.5500  -33.1460 C.3   410  LYS410      0.1561
    185  C        -14.8130    4.2150  -34.1360 C.2   410  LYS410      0.2260
    186  O        -14.2450    5.1150  -34.7530 O.2   410  LYS410     -0.2867
    187  CB       -17.2260    4.9490  -33.9000 C.3   410  LYS410      0.0271
    188  CG       -18.3470    5.5040  -33.0190 C.3   410  LYS410      0.0035
    189  CD       -18.8800    4.4610  -32.0460 C.3   410  LYS410      0.0206
    190  CE       -19.7640    5.1170  -30.9910 C.3   410  LYS410      0.1093
    191  NZ       -20.2790    4.1240  -30.0040 N.3   410  LYS410     -0.1314
@<TRIPOS>BOND
     1   186   185    2
     2   185   184    1
     3   187   184    1
     4   187   188    1
     5   184   183    1
     6   188   189    1
     7   152   150   ar
     8   189   190    1
     9   151   150   ar
    10   150   149    1
    11   190   191    1
    12   145   146    1
    13   149   146    1
    14   146   147    1
    15   147   148    2
    16   120   119    1
    17   120   121    1
    18   117   116    2
    19   119   118    1
    20   122   121    1
    21   116   115    1
    22    32    31    2
    23    30    31    1
    24    30    29    1
    25   178   177    2
    26    31    33   am
    27    37    34    1
    28   118   115    1
    29    33    34    1
    30   115   114    1
    31   181   180   ar
    32   182   180   ar
    33    29    27   am
    34    34    35    1
    35   177   176    1
    36   180   179    1
    37   153   154    1
    38   179   176    1
    39    27    28    2
    40    27    26    1
    41    35    36    2
    42    35    38   am
    43   176   175    1
    44   154   157    1
    45   154   155    1
    46   158   157    1
    47   170   169    2
    48    26    25    1
    49    45    43   am
    50   155   156    2
    51    38    39    1
    52   175   169   am
    53    70    68    1
    54   169   168    1
    55    69    68    1
    56    43    44    2
    57    43    42    1
    58    25    18   am
    59    68    67    2
    60    39    42    1
    61    39    40    1
    62   167   168    1
    63   132   131    1
    64   168   171    1
    65    19    18    2
    66    18    17    1
    67    24    22   ar
    68    41    40    2
    69   172   171    1
    70   172   174    1
    71    67    66    1
    72   131   133    1
    73   131   130    2
    74   171   173    1
    75   108   107    2
    76   113   111   ar
    77   107   106    1
    78    21    22    1
    79    21    20    1
    80    22    23   ar
    81    17    20    1
    82    17    16    1
    83   110   111    1
    84   110   109    1
    85    66    65    1
    86   130   129    1
    87   111   112   ar
    88   123   124    1
    89   129   128    1
    90   159   160    1
    91   128   127    1
    92    65    64    1
    93   106   109    1
    94   106   105    1
    95    16    14   am
    96   124   127    1
    97   124   125    1
    98   160   161    1
    99   160   163    1
   100    64    61    1
   101   164   163    1
   102   164   165    1
   103    52    50    1
   104    63    62    2
   105    62    61    1
   106    14    15    2
   107    14    13    1
   108    78    76    1
   109   161   162    2
   110   126   125    2
   111    77    76    1
   112    61    60    1
   113    46    47    1
   114   165   166    1
   115    13    12    1
   116    76    75    1
   117    50    47    1
   118    50    51    1
   119   102   104   ar
   120   102   100   ar
   121    47    48    1
   122   104   103   ar
   123   143   144   ar
   124   143   141   ar
   125    75    72    1
   126    12     3   am
   127   144   142   ar
   128   100    99    1
   129   100   101   ar
   130   103   101   ar
   131    99    96    1
   132    48    49    2
   133     4     3    2
   134   141   139   ar
   135     3     2    1
   136    72    71    1
   137    72    73    1
   138   142   140   ar
   139    59    57    1
   140    98    97    2
   141    82    81    2
   142    96    97    1
   143    96    95    1
   144     6     5    1
   145     6     7    1
   146   139   140   ar
   147   139   138    1
   148    95    89   am
   149   134   135    1
   150    73    79   am
   151    73    74    2
   152     2     5    1
   153     2     1    1
   154    79    80    1
   155    57    58    1
   156    57    54    1
   157    56    55    2
   158     7     8    1
   159    55    54    1
   160    81    80    1
   161    81    87   am
   162   138   135    1
   163    80    83    1
   164    83    84    1
   165   135   136    1
   166    89    88    1
   167    89    90    2
   168    85    84    2
   169    10     9    1
   170    54    53    1
   171    88    87    1
   172    88    91    1
   173    93    92   ar
   174    84    86   am
   175     8     9    2
   176     9    11    1
   177   137   136    2
   178    92    91    1
   179    92    94   ar
