@<TRIPOS>MOLECULE
tmp/4axdA01.pdb
 114 108 0 0 0
SMALL
GASTEIGER

@<TRIPOS>ATOM
      1  N        -19.2710    6.7320   -3.8560 N.3    36  GLY36      -0.1225
      2  CA       -19.9960    7.4020   -4.9220 C.3    36  GLY36       0.1811
      3  C        -19.3010    7.4070   -6.2710 C.2    36  GLY36       0.2280
      4  O        -19.6450    8.2160   -7.1270 O.2    36  GLY36      -0.2866
      5  N        -19.4520   20.5780  -18.1370 N.3   100  LYS100     -0.1245
      6  CA       -20.4670   20.4690  -17.0840 C.3   100  LYS100      0.1561
      7  C        -21.2010   19.1190  -17.1130 C.2   100  LYS100      0.2260
      8  O        -21.5190   18.5590  -16.0620 O.2   100  LYS100     -0.2867
      9  CB       -21.4760   21.6090  -17.2170 C.3   100  LYS100      0.0271
     10  CG       -22.5920   21.6080  -16.1820 C.3   100  LYS100      0.0035
     11  CD       -23.6120   22.7150  -16.4570 C.3   100  LYS100      0.0206
     12  CE       -24.7810   22.6270  -15.4860 C.3   100  LYS100      0.1093
     13  NZ       -25.7600   23.7230  -15.7400 N.3   100  LYS100     -0.1314
     14  N        -18.0430   13.8160  -17.7900 N.3   103  ASP103     -0.1239
     15  CA       -16.9570   13.4360  -16.8830 C.3   103  ASP103      0.1674
     16  C        -16.0570   12.4570  -17.6320 C.2   103  ASP103      0.2266
     17  O        -16.4830   11.3510  -17.9670 O.2   103  ASP103     -0.2867
     18  CB       -17.5450   12.8170  -15.5930 C.3   103  ASP103      0.1410
     19  CG       -16.4800   12.1960  -14.6550 C.2   103  ASP103      0.3668
     20  OD1      -15.2840   12.5650  -14.7120 O.co2 103  ASP103     -0.2456
     21  OD2      -16.8580   11.3310  -13.8340 O.co2 103  ASP103     -0.2456
     22  N        -17.3850    9.3440  -11.5100 N.3   147  ASN147     -0.1225
     23  CA       -18.4750    9.5580  -10.5770 C.3   147  ASN147      0.1785
     24  C        -19.6810    8.7250  -10.9720 C.2   147  ASN147      0.2597
     25  O        -19.9570    8.5560  -12.1520 O.2   147  ASN147     -0.2718
     26  CB       -18.8790   11.0190  -10.5420 C.3   147  ASN147      0.1169
     27  CG       -17.8600   11.8830   -9.8400 C.2   147  ASN147      0.2627
     28  OD1      -17.4430   12.9130  -10.3660 O.2   147  ASN147     -0.2716
     29  ND2      -17.4580   11.4770   -8.6530 N.am  147  ASN147     -0.0877
     30  N        -20.3890    8.2210   -9.9660 N.am  148  ASP148     -0.1960
     31  CA       -21.5830    7.4250  -10.1590 C.3   148  ASP148      0.1840
     32  C        -22.7490    8.3790  -10.4480 C.2   148  ASP148      0.2622
     33  O        -23.2670    9.0470   -9.5460 O.2   148  ASP148     -0.2715
     34  CB       -21.8340    6.5980   -8.8930 C.3   148  ASP148      0.1450
     35  CG       -23.0160    5.6700   -9.0100 C.2   148  ASP148      0.3671
     36  OD1      -23.7930    5.7640   -9.9870 O.co2 148  ASP148     -0.2456
     37  OD2      -23.1690    4.8410   -8.0870 O.co2 148  ASP148     -0.2456
     38  N        -23.1560    8.4440  -11.7100 N.am  149  HIS149     -0.1973
     39  CA       -24.2300    9.3600  -12.1040 C.3   149  HIS149      0.1656
     40  C        -25.6130    8.8360  -11.8150 C.2   149  HIS149      0.2291
     41  O        -26.6130    9.4740  -12.1700 O.2   149  HIS149     -0.2864
     42  CB       -24.0740    9.7850  -13.5540 C.3   149  HIS149      0.0771
     43  CG       -22.7220   10.3650  -13.8610 C.ar  149  HIS149      0.0820
     44  ND1      -22.1740   11.3560  -13.1280 N.ar  149  HIS149     -0.2267
     45  CD2      -21.7980   10.0520  -14.8530 C.ar  149  HIS149      0.1154
     46  CE1      -20.9620   11.6540  -13.6200 C.ar  149  HIS149      0.1986
     47  NE2      -20.7330   10.8560  -14.6780 N.ar  149  HIS149     -0.2212
     48  N        -26.1810    8.6070   -8.7900 N.3   151  LEU151     -0.1231
     49  CA       -26.2390    9.3600   -7.5350 C.3   151  LEU151      0.1693
     50  C        -26.0620   10.8490   -7.8110 C.2   151  LEU151      0.2592
     51  O        -25.2570   11.2200   -8.6610 O.2   151  LEU151     -0.2718
     52  CB       -25.1210    8.9050   -6.6010 C.3   151  LEU151      0.0284
     53  CG       -25.2720    7.7560   -5.5910 C.3   151  LEU151      0.0019
     54  CD1      -26.3850    6.7650   -5.9280 C.3   151  LEU151      0.0001
     55  CD2      -23.9250    7.0570   -5.3840 C.3   151  LEU151      0.0001
     56  N        -26.8100   11.6900   -7.0930 N.am  152  PHE152     -0.1962
     57  CA       -26.6430   13.1380   -7.1630 C.3   152  PHE152      0.1771
     58  C        -25.4040   13.5380   -6.3590 C.2   152  PHE152      0.2620
     59  O        -24.5850   14.3300   -6.8060 O.2   152  PHE152     -0.2715
     60  CB       -27.8900   13.8640   -6.6360 C.3   152  PHE152      0.0574
     61  CG       -27.8570   15.3500   -6.8420 C.ar  152  PHE152     -0.0200
     62  CD1      -27.2160   16.1830   -5.9220 C.ar  152  PHE152     -0.0042
     63  CD2      -28.4610   15.9190   -7.9500 C.ar  152  PHE152     -0.0042
     64  CE1      -27.1720   17.5590   -6.1120 C.ar  152  PHE152     -0.0003
     65  CE2      -28.4220   17.2890   -8.1500 C.ar  152  PHE152     -0.0003
     66  CZ       -27.7770   18.1120   -7.2290 C.ar  152  PHE152     -0.0000
     67  N        -25.2810   12.9780   -5.1630 N.am  153  SER153     -0.1936
     68  CA       -24.1370   13.2330   -4.3010 C.3   153  SER153      0.2055
     69  C        -23.6040   11.8880   -3.8110 C.2   153  SER153      0.2642
     70  O        -24.2930   10.8710   -3.9310 O.2   153  SER153     -0.2714
     71  CB       -24.5530   14.1290   -3.1300 C.3   153  SER153      0.2130
     72  OG       -25.2290   13.3910   -2.1220 O.3   153  SER153     -0.2179
     73  N        -22.3910   11.8740   -3.2550 N.am  154  GLN154     -0.1976
     74  CA       -21.7610   10.6170   -2.8110 C.3   154  GLN154      0.1601
     75  C        -22.6120    9.8230   -1.8210 C.2   154  GLN154      0.2287
     76  O        -22.6690    8.5930   -1.8880 O.2   154  GLN154     -0.2864
     77  CB       -20.4030   10.8730   -2.1640 C.3   154  GLN154      0.0394
     78  CG       -19.5070   11.8720   -2.8660 C.3   154  GLN154      0.0908
     79  CD       -18.2500   12.1320   -2.0640 C.2   154  GLN154      0.2608
     80  OE1      -18.0610   13.2180   -1.5260 O.2   154  GLN154     -0.2717
     81  NE2      -17.3980   11.1190   -1.9540 N.am  154  GLN154     -0.0878
     82  N        -27.6900   10.3590  -18.2350 N.3   372  MET372     -0.1245
     83  CA       -28.1280    9.9860  -16.8900 C.3   372  MET372      0.1570
     84  C        -28.5230   11.2810  -16.2200 C.2   372  MET372      0.2261
     85  O        -27.7140   12.2110  -16.1410 O.2   372  MET372     -0.2867
     86  CB       -27.0260    9.2540  -16.1130 C.3   372  MET372      0.0387
     87  CG       -26.6520    7.8860  -16.6950 C.3   372  MET372      0.0595
     88  SD       -25.5980    6.8850  -15.6050 S.3   372  MET372     -0.1393
     89  CE       -26.8300    6.3320  -14.4440 C.3   372  MET372      0.0692
     90  N        -29.8050   12.6480  -12.6740 N.3   374  SER374     -0.1217
     91  CA       -29.9680   12.2780  -11.2880 C.3   374  SER374      0.1889
     92  C        -30.7300   13.3730  -10.5440 C.2   374  SER374      0.2288
     93  O        -30.5620   14.5610  -10.8290 O.2   374  SER374     -0.2866
     94  CB       -28.6120   11.9640  -10.6430 C.3   374  SER374      0.2089
     95  OG       -27.7050   13.0390  -10.8160 O.3   374  SER374     -0.2183
     96  N        -28.9620   16.8460  -11.9970 N.3   401  LYS401     -0.1245
     97  CA       -27.7440   16.8980  -12.7940 C.3   401  LYS401      0.1561
     98  C        -27.9180   15.9930  -13.9970 C.2   401  LYS401      0.2260
     99  O        -28.5600   14.9520  -13.9030 O.2   401  LYS401     -0.2867
    100  CB       -26.5540   16.3930  -11.9830 C.3   401  LYS401      0.0271
    101  CG       -26.0570   17.3630  -10.9270 C.3   401  LYS401      0.0035
    102  CD       -25.2070   16.5800   -9.9470 C.3   401  LYS401      0.0206
    103  CE       -24.5100   17.4620   -8.9300 C.3   401  LYS401      0.1093
    104  NZ       -23.6290   16.5770   -8.1200 N.3   401  LYS401     -0.1314
    105  N        -25.6720   13.9940  -16.9750 N.3   403  HIS403     -0.1241
    106  CA       -24.3710   13.5960  -17.5480 C.3   403  HIS403      0.1621
    107  C        -24.5230   12.7030  -18.7380 C.2   403  HIS403      0.2264
    108  O        -25.3520   11.7980  -18.7270 O.2   403  HIS403     -0.2867
    109  CB       -23.5070   12.8860  -16.5130 C.3   403  HIS403      0.0745
    110  CG       -23.0190   13.7950  -15.4230 C.ar  403  HIS403      0.0817
    111  ND1      -23.7220   14.0130  -14.2960 N.ar  403  HIS403     -0.2268
    112  CD2      -21.8670   14.5790  -15.3340 C.ar  403  HIS403      0.1154
    113  CE1      -23.0460   14.8800  -13.5080 C.ar  403  HIS403      0.1986
    114  NE2      -21.9110   15.2250  -14.1460 N.ar  403  HIS403     -0.2212
@<TRIPOS>BOND
     1   107   108    2
     2   107   106    1
     3    82    83    1
     4     5     6    1
     5    17    16    2
     6    14    15    1
     7    16    15    1
     8   106   105    1
     9   106   109    1
    10     9     6    1
    11     9    10    1
    12     7     6    1
    13     7     8    2
    14    83    84    1
    15    83    86    1
    16    15    18    1
    17    87    86    1
    18    87    88    1
    19   109   110    1
    20    11    10    1
    21    11    12    1
    22    84    85    2
    23    13    12    1
    24    88    89    1
    25    18    19    1
    26   110   112   ar
    27   110   111   ar
    28   112   114   ar
    29    45    47   ar
    30    45    43   ar
    31    20    19   ar
    32    47    46   ar
    33    19    21   ar
    34   111   113   ar
    35   114   113   ar
    36    98    99    2
    37    98    97    1
    38    43    42    1
    39    43    44   ar
    40    46    44   ar
    41    42    39    1
    42    97    96    1
    43    97   100    1
    44    90    91    1
    45    41    40    2
    46    25    24    2
    47    39    40    1
    48    39    38    1
    49   100   101    1
    50    38    32   am
    51    22    23    1
    52    91    94    1
    53    91    92    1
    54    24    23    1
    55    24    30   am
    56   101   102    1
    57    93    92    2
    58    95    94    1
    59    23    26    1
    60    26    27    1
    61    32    31    1
    62    32    33    2
    63    28    27    2
    64    31    30    1
    65    31    34    1
    66    36    35   ar
    67   102   103    1
    68    27    29   am
    69    35    34    1
    70    35    37   ar
    71   103   104    1
    72    48    49    1
    73    51    50    2
    74    65    63   ar
    75    65    66   ar
    76    63    61   ar
    77    50    49    1
    78    50    56   am
    79    49    52    1
    80    66    64   ar
    81    57    56    1
    82    57    60    1
    83    57    58    1
    84     4     3    2
    85    61    60    1
    86    61    62   ar
    87    59    58    2
    88    52    53    1
    89    58    67   am
    90     3     2    1
    91    64    62   ar
    92    54    53    1
    93    53    55    1
    94    67    68    1
    95     2     1    1
    96    68    69    1
    97    68    71    1
    98    70    69    2
    99    69    73   am
   100    73    74    1
   101    71    72    1
   102    78    77    1
   103    78    79    1
   104    74    77    1
   105    74    75    1
   106    79    81   am
   107    79    80    2
   108    76    75    2
