@<TRIPOS>MOLECULE
tmp/4axfA01.pdb
 191 179 0 0 0
SMALL
GASTEIGER

@<TRIPOS>ATOM
      1  N        -22.6920   -9.4650  -17.7420 N.3    18  GLY18      -0.1210
      2  CA       -22.3890  -10.0000  -16.4260 C.3    18  GLY18       0.1956
      3  C        -23.4190   -9.4670  -15.4540 C.2    18  GLY18       0.2612
      4  O        -24.6070   -9.3970  -15.7760 O.2    18  GLY18      -0.2717
      5  N        -22.9690   -9.0690  -14.2700 N.am   19  GLY19      -0.1942
      6  CA       -23.8760   -8.5550  -13.2530 C.3    19  GLY19       0.2014
      7  C        -23.8710   -7.0450  -13.1240 C.2    19  GLY19       0.2638
      8  O        -24.6110   -6.4910  -12.3120 O.2    19  GLY19      -0.2714
      9  N        -23.0400   -6.3780  -13.9190 N.am   20  ALA20      -0.1977
     10  CA       -22.8920   -4.9280  -13.8310 C.3    20  ALA20       0.1597
     11  C        -23.1280   -4.2320  -15.1680 C.2    20  ALA20       0.2287
     12  O        -23.6650   -3.1230  -15.2170 O.2    20  ALA20      -0.2864
     13  CB       -21.5170   -4.5750  -13.2860 C.3    20  ALA20       0.0319
     14  N        -29.5390   -2.3540  -10.6380 N.3    44  ARG44      -0.1245
     15  CA       -30.0730   -3.5450   -9.9860 C.3    44  ARG44       0.1563
     16  C        -31.4720   -3.2660   -9.4360 C.2    44  ARG44       0.2260
     17  O        -31.9290   -2.1220   -9.4350 O.2    44  ARG44      -0.2867
     18  CB       -29.1210   -4.0270   -8.8820 C.3    44  ARG44       0.0307
     19  CG       -27.7440   -4.4260   -9.4030 C.3    44  ARG44       0.0489
     20  CD       -26.8440   -4.9950   -8.3130 C.3    44  ARG44       0.2205
     21  NE       -25.6360   -5.5910   -8.8920 N.pl3  44  ARG44      -0.0865
     22  CZ       -24.7640   -6.3520   -8.2320 C.cat  44  ARG44       0.5346
     23  NH1      -24.9400   -6.6310   -6.9430 N.pl3  44  ARG44       0.1354
     24  NH2      -23.7070   -6.8410   -8.8710 N.pl3  44  ARG44       0.1354
     25  N        -33.3580  -15.1860  -15.5770 N.3   116  TRP116     -0.1227
     26  CA       -32.9710  -14.6950  -14.2540 C.3   116  TRP116      0.1737
     27  C        -32.2010  -13.4050  -14.3060 C.2   116  TRP116      0.2595
     28  O        -32.2290  -12.6230  -13.3520 O.2   116  TRP116     -0.2718
     29  CB       -32.1620  -15.7520  -13.5200 C.3   116  TRP116      0.0564
     30  CG       -30.8430  -16.0790  -14.1850 C.ar  116  TRP116      0.0003
     31  CD1      -30.6210  -16.9320  -15.2630 C.ar  116  TRP116      0.0946
     32  CD2      -29.5150  -15.5540  -13.8380 C.ar  116  TRP116      0.0152
     33  NE1      -29.2900  -16.9690  -15.5910 N.ar  116  TRP116     -0.2442
     34  CE2      -28.5730  -16.1690  -14.7790 C.ar  116  TRP116      0.0810
     35  CE3      -29.0310  -14.6730  -12.8780 C.ar  116  TRP116      0.0012
     36  CZ2      -27.2140  -15.9010  -14.7380 C.ar  116  TRP116      0.0191
     37  CZ3      -27.6550  -14.4080  -12.8480 C.ar  116  TRP116      0.0001
     38  CH2      -26.7710  -15.0130  -13.7530 C.ar  116  TRP116      0.0015
     39  N        -31.4910  -13.1780  -15.4100 N.am  117  ARG117     -0.1980
     40  CA       -30.7730  -11.9250  -15.6250 C.3   117  ARG117      0.1597
     41  C        -31.7570  -10.7690  -15.7670 C.2   117  ARG117      0.2287
     42  O        -31.5420   -9.6920  -15.2080 O.2   117  ARG117     -0.2864
     43  CB       -29.8720  -12.0120  -16.8580 C.3   117  ARG117      0.0334
     44  CG       -28.5760  -12.7750  -16.6450 C.3   117  ARG117      0.0492
     45  CD       -27.6260  -12.0410  -15.7100 C.3   117  ARG117      0.2205
     46  NE       -26.2640  -12.5660  -15.8070 N.pl3 117  ARG117     -0.0865
     47  CZ       -25.2890  -12.3160  -14.9370 C.cat 117  ARG117      0.5346
     48  NH1      -25.5060  -11.5460  -13.8790 N.pl3 117  ARG117      0.1354
     49  NH2      -24.0910  -12.8430  -15.1280 N.pl3 117  ARG117      0.1354
     50  N        -12.7200  -16.5730  -18.2200 N.3   151  LYS151     -0.1245
     51  CA       -12.8720  -15.9520  -16.9040 C.3   151  LYS151      0.1561
     52  C        -12.1500  -16.8470  -15.8840 C.2   151  LYS151      0.2260
     53  O        -12.7410  -17.7900  -15.3500 O.2   151  LYS151     -0.2867
     54  CB       -14.3550  -15.7960  -16.5680 C.3   151  LYS151      0.0271
     55  CG       -14.6830  -14.8910  -15.3890 C.3   151  LYS151      0.0035
     56  CD       -16.1710  -14.5670  -15.4080 C.3   151  LYS151      0.0206
     57  CE       -16.7640  -14.4040  -14.0170 C.3   151  LYS151      0.1093
     58  NZ       -16.8010  -12.9870  -13.5640 N.3   151  LYS151     -0.1314
     59  N        -10.8810  -16.5870  -12.8240 N.3   153  LYS153     -0.1245
     60  CA       -11.1190  -16.4770  -11.3730 C.3   153  LYS153      0.1561
     61  C         -9.8210  -16.4900  -10.5590 C.2   153  LYS153      0.2260
     62  O         -8.7500  -16.2030  -11.0950 O.2   153  LYS153     -0.2867
     63  CB       -12.1280  -17.5260  -10.8760 C.3   153  LYS153      0.0271
     64  CG       -13.5090  -17.4090  -11.5060 C.3   153  LYS153      0.0035
     65  CD       -14.1580  -16.0470  -11.2690 C.3   153  LYS153      0.0206
     66  CE       -14.6890  -15.8900   -9.8500 C.3   153  LYS153      0.1093
     67  NZ       -15.5960  -14.7160   -9.7240 N.3   153  LYS153     -0.1314
     68  N        -11.1180  -21.4680   -3.7560 N.3   175  ARG175     -0.1231
     69  CA       -12.4110  -20.8160   -3.6120 C.3   175  ARG175      0.1694
     70  C        -13.3650  -21.2470   -4.7290 C.2   175  ARG175      0.2592
     71  O        -14.5510  -21.4720   -4.4870 O.2   175  ARG175     -0.2718
     72  CB       -12.2230  -19.2930   -3.5820 C.3   175  ARG175      0.0321
     73  CG       -13.4740  -18.4590   -3.8230 C.3   175  ARG175      0.0489
     74  CD       -14.4300  -18.4810   -2.6420 C.3   175  ARG175      0.2205
     75  NE       -15.3320  -17.3350   -2.6880 N.pl3 175  ARG175     -0.0865
     76  CZ       -15.3220  -16.3290   -1.8180 C.cat 175  ARG175      0.5346
     77  NH1      -14.4660  -16.3220   -0.8040 N.pl3 175  ARG175      0.1354
     78  NH2      -16.1860  -15.3280   -1.9530 N.pl3 175  ARG175      0.1354
     79  N        -12.8360  -21.3750   -5.9440 N.am  176  PHE176     -0.1976
     80  CA       -13.6330  -21.7780   -7.0990 C.3   176  PHE176      0.1639
     81  C        -14.2660  -23.1530   -6.8880 C.2   176  PHE176      0.2290
     82  O        -15.4740  -23.3100   -7.0700 O.2   176  PHE176     -0.2864
     83  CB       -12.7850  -21.7540   -8.3780 C.3   176  PHE176      0.0560
     84  CG       -13.5690  -22.0020   -9.6420 C.ar  176  PHE176     -0.0200
     85  CD1      -14.2150  -20.9560  -10.2960 C.ar  176  PHE176     -0.0042
     86  CD2      -13.6540  -23.2790  -10.1880 C.ar  176  PHE176     -0.0042
     87  CE1      -14.9320  -21.1820  -11.4610 C.ar  176  PHE176     -0.0003
     88  CE2      -14.3730  -23.5080  -11.3530 C.ar  176  PHE176     -0.0003
     89  CZ       -15.0120  -22.4580  -11.9890 C.ar  176  PHE176     -0.0000
     90  N        -16.9560  -23.0030   -4.1990 N.3   179  HIS179     -0.1241
     91  CA       -18.1250  -22.2380   -4.6300 C.3   179  HIS179      0.1621
     92  C        -19.0520  -23.0660   -5.4750 C.2   179  HIS179      0.2264
     93  O        -20.2690  -22.8820   -5.4220 O.2   179  HIS179     -0.2867
     94  CB       -17.7010  -20.9860   -5.3920 C.3   179  HIS179      0.0745
     95  CG       -18.7010  -19.8520   -5.3150 C.ar  179  HIS179      0.0817
     96  ND1      -18.3370  -18.5610   -5.4200 N.ar  179  HIS179     -0.2268
     97  CD2      -20.0860  -19.8560   -5.1210 C.ar  179  HIS179      0.1154
     98  CE1      -19.4290  -17.7780   -5.3100 C.ar  179  HIS179      0.1986
     99  NE2      -20.4970  -18.5730   -5.1270 N.ar  179  HIS179     -0.2212
    100  N        -23.0580  -23.2260   -5.4720 N.3   183  LYS183     -0.1245
    101  CA       -23.7430  -22.8450   -6.7030 C.3   183  LYS183      0.1561
    102  C        -24.7490  -23.9160   -7.1060 C.2   183  LYS183      0.2260
    103  O        -25.9040  -23.6060   -7.4070 O.2   183  LYS183     -0.2867
    104  CB       -22.7350  -22.6110   -7.8300 C.3   183  LYS183      0.0271
    105  CG       -21.9350  -21.3270   -7.7150 C.3   183  LYS183      0.0035
    106  CD       -20.7860  -21.3400   -8.7050 C.3   183  LYS183      0.0206
    107  CE       -20.0280  -20.0220   -8.7010 C.3   183  LYS183      0.1093
    108  NZ       -20.7860  -18.9420   -9.3910 N.3   183  LYS183     -0.1314
    109  N        -19.5910  -20.2640  -16.9950 N.3   221  ASN221     -0.1225
    110  CA       -19.4060  -18.8430  -17.2910 C.3   221  ASN221      0.1785
    111  C        -17.9260  -18.4370  -17.3960 C.2   221  ASN221      0.2597
    112  O        -17.5860  -17.2520  -17.3200 O.2   221  ASN221     -0.2718
    113  CB       -20.1910  -17.9700  -16.2900 C.3   221  ASN221      0.1169
    114  CG       -19.5650  -17.9320  -14.8970 C.2   221  ASN221      0.2627
    115  OD1      -19.7610  -16.9660  -14.1580 O.2   221  ASN221     -0.2716
    116  ND2      -18.8190  -18.9760  -14.5280 N.am  221  ASN221     -0.0877
    117  N        -17.0670  -19.4360  -17.6050 N.am  222  ASN222     -0.1974
    118  CA       -15.6090  -19.2690  -17.5560 C.3   222  ASN222      0.1688
    119  C        -14.9010  -19.4700  -18.8960 C.2   222  ASN222      0.2292
    120  O        -13.7290  -19.1210  -19.0410 O.2   222  ASN222     -0.2864
    121  CB       -15.0010  -20.2210  -16.5130 C.3   222  ASN222      0.1181
    122  CG       -15.6460  -20.0830  -15.1420 C.2   222  ASN222      0.2629
    123  OD1      -16.4130  -20.9530  -14.7160 O.2   222  ASN222     -0.2716
    124  ND2      -15.3490  -18.9860  -14.4470 N.am  222  ASN222     -0.0877
    125  N         -9.9540   -7.8890   -6.1050 N.3   347  ALA347     -0.1245
    126  CA       -11.2850   -8.3570   -6.4870 C.3   347  ALA347      0.1562
    127  C        -11.5830   -8.0850   -7.9610 C.2   347  ALA347      0.2260
    128  O        -12.2110   -8.9010   -8.6300 O.2   347  ALA347     -0.2867
    129  CB       -12.3440   -7.7260   -5.5990 C.3   347  ALA347      0.0290
    130  N        -12.0380  -11.0930  -10.9130 N.3   351  ASP351     -0.1239
    131  CA       -13.3030  -11.1310  -11.6480 C.3   351  ASP351      0.1674
    132  C        -13.2380  -10.6950  -13.1170 C.2   351  ASP351      0.2266
    133  O        -14.2580  -10.7030  -13.8130 O.2   351  ASP351     -0.2867
    134  CB       -14.3800  -10.3330  -10.9140 C.3   351  ASP351      0.1410
    135  CG       -15.7840  -10.7670  -11.3010 C.2   351  ASP351      0.3668
    136  OD1      -16.0670  -11.9850  -11.2420 O.co2 351  ASP351     -0.2456
    137  OD2      -16.6040   -9.8940  -11.6580 O.co2 351  ASP351     -0.2456
    138  N        -13.4730   -6.4390  -18.6790 N.3   381  ASP381     -0.1239
    139  CA       -14.2490   -6.5230  -17.4360 C.3   381  ASP381      0.1674
    140  C        -13.4100   -6.1230  -16.2110 C.2   381  ASP381      0.2266
    141  O        -13.3210   -6.8600  -15.2220 O.2   381  ASP381     -0.2867
    142  CB       -14.8510   -7.9320  -17.2900 C.3   381  ASP381      0.1410
    143  CG       -15.7990   -8.0620  -16.1080 C.2   381  ASP381      0.3668
    144  OD1      -16.3000   -7.0370  -15.5910 O.co2 381  ASP381     -0.2456
    145  OD2      -16.0430   -9.2160  -15.6980 O.co2 381  ASP381     -0.2456
    146  N        -13.8070   -3.7900  -13.7340 N.3   383  SER383     -0.1217
    147  CA       -14.7070   -2.8960  -13.0000 C.3   383  SER383      0.1889
    148  C        -14.1680   -2.5190  -11.6190 C.2   383  SER383      0.2288
    149  O        -13.3630   -3.2430  -11.0380 O.2   383  SER383     -0.2866
    150  CB       -16.0890   -3.5450  -12.8370 C.3   383  SER383      0.2089
    151  OG       -16.5140   -4.2090  -14.0150 O.3   383  SER383     -0.2183
    152  N        -14.9660   -2.3200   -7.7980 N.3   385  LYS385     -0.1245
    153  CA       -15.8620   -2.9180   -6.8110 C.3   385  LYS385      0.1561
    154  C        -16.1580   -1.9130   -5.6930 C.2   385  LYS385      0.2260
    155  O        -15.2330   -1.3040   -5.1550 O.2   385  LYS385     -0.2867
    156  CB       -15.2590   -4.2100   -6.2420 C.3   385  LYS385      0.0271
    157  CG       -14.7850   -5.2180   -7.2870 C.3   385  LYS385      0.0035
    158  CD       -15.9300   -5.7490   -8.1430 C.3   385  LYS385      0.0206
    159  CE       -15.4180   -6.5360   -9.3440 C.3   385  LYS385      0.1093
    160  NZ       -16.5180   -7.0680  -10.2020 N.3   385  LYS385     -0.1314
    161  N        -19.2570   -3.3640   -0.4110 N.3   389  ARG389     -0.1245
    162  CA       -19.3410   -4.7840   -0.7670 C.3   389  ARG389      0.1563
    163  C        -18.4230   -5.7000    0.0610 C.2   389  ARG389      0.2260
    164  O        -18.4760   -6.9230   -0.0800 O.2   389  ARG389     -0.2867
    165  CB       -19.0900   -4.9650   -2.2700 C.3   389  ARG389      0.0307
    166  CG       -19.5600   -6.2920   -2.8470 C.3   389  ARG389      0.0489
    167  CD       -19.2290   -6.4090   -4.3260 C.3   389  ARG389      0.2205
    168  NE       -20.2520   -5.7930   -5.1700 N.pl3 389  ARG389     -0.0865
    169  CZ       -20.2200   -5.7700   -6.5010 C.cat 389  ARG389      0.5346
    170  NH1      -19.2070   -6.3200   -7.1620 N.pl3 389  ARG389      0.1354
    171  NH2      -21.2040   -5.1890   -7.1760 N.pl3 389  ARG389      0.1354
    172  N        -18.9740   -9.5610    0.9480 N.3   393  TYR393     -0.1241
    173  CA       -17.8450  -10.4640    0.6880 C.3   393  TYR393      0.1605
    174  C        -17.6030  -11.4270    1.8470 C.2   393  TYR393      0.2264
    175  O        -17.3500  -12.6100    1.6260 O.2   393  TYR393     -0.2867
    176  CB       -16.5530   -9.6950    0.3850 C.3   393  TYR393      0.0534
    177  CG       -16.4350   -9.1640   -1.0300 C.ar  393  TYR393     -0.0201
    178  CD1      -17.0150   -9.8370   -2.1070 C.ar  393  TYR393     -0.0009
    179  CD2      -15.7400   -7.9790   -1.2940 C.ar  393  TYR393     -0.0009
    180  CE1      -16.9090   -9.3470   -3.3990 C.ar  393  TYR393      0.0417
    181  CE2      -15.6270   -7.4820   -2.5860 C.ar  393  TYR393      0.0417
    182  CZ       -16.2150   -8.1720   -3.6350 C.ar  393  TYR393      0.1957
    183  OH       -16.1080   -7.6890   -4.9200 O.3   393  TYR393     -0.2866
    184  N        -20.6310  -13.9570    2.0900 N.3   396  LEU396     -0.1245
    185  CA       -20.5450  -14.9520    1.0270 C.3   396  LEU396      0.1561
    186  C        -19.4460  -15.9710    1.3150 C.2   396  LEU396      0.2260
    187  O        -19.6380  -17.1700    1.1160 O.2   396  LEU396     -0.2867
    188  CB       -20.3360  -14.2920   -0.3420 C.3   396  LEU396      0.0270
    189  CG       -20.2890  -15.2220   -1.5650 C.3   396  LEU396      0.0019
    190  CD1      -21.6240  -15.9130   -1.8090 C.3   396  LEU396      0.0001
    191  CD2      -19.8360  -14.4760   -2.8100 C.3   396  LEU396      0.0001
@<TRIPOS>BOND
     1   120   119    2
     2   119   118    1
     3   138   139    1
     4    50    51    1
     5     1     2    1
     6   117   118    1
     7   117   111   am
     8   118   121    1
     9   139   142    1
    10   139   140    1
    11   111   112    2
    12   111   110    1
    13   110   109    1
    14   110   113    1
    15   142   143    1
    16    51    54    1
    17    51    52    1
    18    43    44    1
    19    43    40    1
    20    44    45    1
    21    54    55    1
    22   121   122    1
    23     2     3    1
    24   113   114    1
    25   140   141    2
    26   143   145   ar
    27   143   144   ar
    28    52    53    2
    29    46    45    1
    30    46    47    2
    31     4     3    2
    32    41    40    1
    33    41    42    2
    34    40    39    1
    35    33    31   ar
    36    33    34   ar
    37    25    26    1
    38     3     5   am
    39    39    27   am
    40    56    55    1
    41    56    57    1
    42    31    30   ar
    43    12    11    2
    44    11    10    1
    45   122   123    2
    46   122   124   am
    47    49    47    1
    48    47    48    1
    49   114   116   am
    50   114   115    2
    51    34    36   ar
    52    34    32   ar
    53    36    38   ar
    54    27    26    1
    55    27    28    2
    56     5     6    1
    57    26    29    1
    58    30    32   ar
    59    30    29    1
    60    57    58    1
    61   151   150    1
    62     9    10    1
    63     9     7   am
    64    32    35   ar
    65    10    13    1
    66   133   132    2
    67    38    37   ar
    68   146   147    1
    69     6     7    1
    70     7     8    2
    71   132   131    1
    72   147   150    1
    73   147   148    1
    74    35    37   ar
    75    59    60    1
    76    89    87   ar
    77    89    88   ar
    78   137   135   ar
    79   131   134    1
    80   131   130    1
    81   148   149    2
    82    64    65    1
    83    64    63    1
    84    87    85   ar
    85    60    63    1
    86    60    61    1
    87    88    86   ar
    88   135   136   ar
    89   135   134    1
    90    65    66    1
    91    62    61    2
    92    14    15    1
    93    85    84   ar
    94   160   159    1
    95    86    84   ar
    96    15    16    1
    97    15    18    1
    98    66    67    1
    99    84    83    1
   100    16    17    2
   101    19    18    1
   102    19    20    1
   103   108   107    1
   104   159   158    1
   105    21    20    1
   106    21    22    2
   107    24    22    1
   108   106   107    1
   109   106   105    1
   110   128   127    2
   111    83    80    1
   112    22    23    1
   113   158   157    1
   114   127   126    1
   115   104   105    1
   116   104   101    1
   117   152   153    1
   118   103   102    2
   119   157   156    1
   120   171   169    1
   121   170   169    1
   122   102   101    1
   123    80    81    1
   124    80    79    1
   125    82    81    2
   126   153   156    1
   127   153   154    1
   128   101   100    1
   129   169   168    2
   130   126   125    1
   131   126   129    1
   132    79    70   am
   133   154   155    2
   134    92    93    2
   135    92    91    1
   136    96    95   ar
   137    96    98   ar
   138    94    95    1
   139    94    91    1
   140    95    97   ar
   141    98    99   ar
   142   168   167    1
   143    99    97   ar
   144   183   182    1
   145    70    71    2
   146    70    69    1
   147    91    90    1
   148   167   166    1
   149    73    72    1
   150    73    74    1
   151    68    69    1
   152   182   180   ar
   153   182   181   ar
   154    69    72    1
   155   180   178   ar
   156   166   165    1
   157   191   189    1
   158    75    74    1
   159    75    76    2
   160   181   179   ar
   161   165   162    1
   162   178   177   ar
   163    78    76    1
   164    76    77    1
   165   190   189    1
   166   189   188    1
   167   179   177   ar
   168   177   176    1
   169   162   161    1
   170   162   163    1
   171   188   185    1
   172   164   163    2
   173   176   173    1
   174   173   172    1
   175   173   174    1
   176   185   186    1
   177   185   184    1
   178   187   186    2
   179   175   174    2
