@<TRIPOS>MOLECULE
tmp/4axmB00.pdb
 136 130 0 0 0
SMALL
GASTEIGER

@<TRIPOS>ATOM
      1  N        -26.8350   59.8370  -66.5090 N.3    19  GLN19      -0.1245
      2  CA       -26.0310   60.8830  -67.1290 C.3    19  GLN19       0.1566
      3  C        -26.7550   62.2230  -67.2430 C.2    19  GLN19       0.2260
      4  O        -26.1130   63.2500  -67.4560 O.2    19  GLN19      -0.2867
      5  CB       -25.5450   60.4590  -68.5040 C.3    19  GLN19       0.0367
      6  CG       -26.6370   59.8960  -69.3670 C.3    19  GLN19       0.0905
      7  CD       -26.0730   59.1590  -70.5370 C.2    19  GLN19       0.2608
      8  OE1      -26.2760   57.9580  -70.6720 O.2    19  GLN19      -0.2717
      9  NE2      -25.3140   59.8550  -71.3670 N.am   19  GLN19      -0.0878
     10  N        -24.1280   64.0350  -73.2380 N.3    23  GLY23      -0.1225
     11  CA       -23.8050   62.8970  -74.0840 C.3    23  GLY23       0.1811
     12  C        -22.5400   62.2100  -73.6130 C.2    23  GLY23       0.2280
     13  O        -21.4940   62.2690  -74.2710 O.2    23  GLY23      -0.2866
     14  N        -22.4190   58.8430  -72.3510 N.3    25  CYS25      -0.1221
     15  CA       -22.6650   57.4460  -72.1750 C.3    25  CYS25       0.1808
     16  C        -21.3240   56.7340  -72.2320 C.2    25  CYS25       0.2601
     17  O        -21.0260   55.8190  -71.4380 O.2    25  CYS25      -0.2717
     18  CB       -23.5940   56.9490  -73.2810 C.3    25  CYS25       0.0970
     19  SG       -23.0290   57.2840  -74.9690 S.3    25  CYS25      -0.0800
     20  N        -20.5040   57.1750  -73.1770 N.am   26  TRP26      -0.1976
     21  CA       -19.1940   56.5870  -73.3540 C.3    26  TRP26       0.1640
     22  C        -18.4140   56.5450  -72.0240 C.2    26  TRP26       0.2290
     23  O        -17.8560   55.4910  -71.6830 O.2    26  TRP26      -0.2864
     24  CB       -18.4310   57.3420  -74.4090 C.3    26  TRP26       0.0576
     25  CG       -18.2620   58.7750  -74.0750 C.ar   26  TRP26       0.0006
     26  CD1      -19.1150   59.7990  -74.3850 C.ar   26  TRP26       0.0946
     27  CD2      -17.1750   59.3540  -73.3770 C.ar   26  TRP26       0.0152
     28  NE1      -18.6130   60.9970  -73.9280 N.ar   26  TRP26      -0.2442
     29  CE2      -17.4230   60.7510  -73.2980 C.ar   26  TRP26       0.0810
     30  CE3      -16.0120   58.8430  -72.8210 C.ar   26  TRP26       0.0012
     31  CZ2      -16.5560   61.6310  -72.6650 C.ar   26  TRP26       0.0191
     32  CZ3      -15.1280   59.7260  -72.1930 C.ar   26  TRP26       0.0001
     33  CH2      -15.4100   61.1010  -72.1150 C.ar   26  TRP26       0.0015
     34  N         -9.2640   62.4930  -77.8050 N.3    61  GLY61      -0.1225
     35  CA       -10.2420   62.3980  -78.8750 C.3    61  GLY61       0.1811
     36  C        -11.6600   62.3560  -78.3400 C.2    61  GLY61       0.2280
     37  O        -12.6300   62.2170  -79.1030 O.2    61  GLY61      -0.2866
     38  N        -14.9700   64.1210  -76.6530 N.3    63  GLU63      -0.1245
     39  CA       -15.5820   65.4290  -76.8440 C.3    63  GLU63       0.1567
     40  C        -16.5810   65.8370  -75.7450 C.2    63  GLU63       0.2260
     41  O        -17.5960   66.4420  -76.0430 O.2    63  GLU63      -0.2867
     42  CB       -16.2410   65.4840  -78.2270 C.3    63  GLU63       0.0388
     43  CG       -15.9450   66.7610  -78.9990 C.3    63  GLU63       0.1160
     44  CD       -14.5640   66.7390  -79.6420 C.2    63  GLU63       0.3649
     45  OE1      -14.0280   65.6180  -79.8390 O.co2  63  GLU63      -0.2457
     46  OE2      -14.0160   67.8320  -79.9440 O.co2  63  GLU63      -0.2457
     47  N        -19.5780   66.3450  -73.3690 N.3    65  CYS65      -0.1221
     48  CA       -20.9740   65.9480  -73.5510 C.3    65  CYS65       0.1808
     49  C        -21.3490   65.8820  -75.0110 C.2    65  CYS65       0.2601
     50  O        -22.4920   65.6450  -75.3350 O.2    65  CYS65      -0.2717
     51  CB       -21.9260   66.8540  -72.7820 C.3    65  CYS65       0.0970
     52  SG       -21.6740   66.8030  -70.9800 S.3    65  CYS65      -0.0800
     53  N        -20.3650   66.0790  -75.8820 N.am   66  ASN66      -0.1960
     54  CA       -20.5370   65.9910  -77.3270 C.3    66  ASN66       0.1819
     55  C        -20.1900   64.6220  -77.8970 C.2    66  ASN66       0.2622
     56  O        -20.0180   64.4540  -79.1130 O.2    66  ASN66      -0.2715
     57  CB       -19.6820   67.0520  -78.0210 C.3    66  ASN66       0.1195
     58  CG       -20.3710   68.3860  -78.1010 C.2    66  ASN66       0.2630
     59  OD1      -19.7320   69.4240  -78.2980 O.2    66  ASN66      -0.2716
     60  ND2      -21.6910   68.3680  -77.9560 N.am   66  ASN66      -0.0877
     61  N        -20.0960   63.6390  -77.0220 N.am   67  GLY67      -0.1940
     62  CA       -19.7910   62.2850  -77.4480 C.3    67  GLY67       0.2014
     63  C        -18.3700   61.9840  -77.0660 C.2    67  GLY67       0.2639
     64  O        -17.6630   62.8830  -76.6220 O.2    67  GLY67      -0.2714
     65  N        -17.9780   60.7200  -77.2130 N.am   68  GLY68      -0.1939
     66  CA       -16.6310   60.2560  -76.9020 C.3    68  GLY68       0.2014
     67  C        -16.6650   58.7660  -77.1230 C.2    68  GLY68       0.2639
     68  O        -17.7040   58.2530  -77.5360 O.2    68  GLY68      -0.2714
     69  N        -15.5510   58.0760  -76.8600 N.am   69  LEU69      -0.1963
     70  CA       -15.4700   56.6160  -76.9970 C.3    69  LEU69       0.1728
     71  C        -14.7670   56.0200  -75.7970 C.2    69  LEU69       0.2616
     72  O        -13.8080   56.5950  -75.2750 O.2    69  LEU69      -0.2715
     73  CB       -14.6630   56.1880  -78.2230 C.3    69  LEU69       0.0311
     74  CG       -14.9080   56.5930  -79.6760 C.3    69  LEU69       0.0022
     75  CD1      -13.9750   55.8060  -80.6050 C.3    69  LEU69       0.0001
     76  CD2      -16.3700   56.3850  -80.0620 C.3    69  LEU69       0.0001
     77  N        -15.2000   54.8340  -75.3970 N.am   70  MET70      -0.1977
     78  CA       -14.5980   54.1250  -74.2970 C.3    70  MET70       0.1605
     79  C        -13.0980   53.9250  -74.4840 C.2    70  MET70       0.2287
     80  O        -12.3180   54.0580  -73.5450 O.2    70  MET70      -0.2864
     81  CB       -15.2890   52.7830  -74.1490 C.3    70  MET70       0.0413
     82  CG       -16.7280   52.9200  -73.6800 C.3    70  MET70       0.0598
     83  SD       -17.8380   53.3810  -75.0260 S.3    70  MET70      -0.1393
     84  CE       -18.3940   51.7670  -75.5410 C.3    70  MET70       0.0692
     85  N        -11.0060   55.6830  -76.1310 N.3    72  TYR72      -0.1241
     86  CA       -10.2660   56.9170  -75.9110 C.3    72  TYR72       0.1605
     87  C        -10.1190   57.1690  -74.4260 C.2    72  TYR72       0.2264
     88  O         -9.0740   57.6400  -73.9780 O.2    72  TYR72      -0.2867
     89  CB       -10.9280   58.1080  -76.6030 C.3    72  TYR72       0.0534
     90  CG       -10.8380   58.0490  -78.1030 C.ar   72  TYR72      -0.0201
     91  CD1       -9.9220   57.1970  -78.7360 C.ar   72  TYR72      -0.0009
     92  CD2      -11.6500   58.8550  -78.8880 C.ar   72  TYR72      -0.0009
     93  CE1       -9.8490   57.1240  -80.1100 C.ar   72  TYR72       0.0417
     94  CE2      -11.5850   58.8060  -80.2700 C.ar   72  TYR72       0.0417
     95  CZ       -10.6820   57.9420  -80.8800 C.ar   72  TYR72       0.1957
     96  OH       -10.6040   57.9010  -82.2620 O.3    72  TYR72      -0.2866
     97  N        -20.9470   49.3900  -77.8610 N.3   135  ALA135     -0.1245
     98  CA       -21.8420   50.3760  -78.4400 C.3   135  ALA135      0.1562
     99  C        -23.1080   49.6820  -78.9210 C.2   135  ALA135      0.2260
    100  O        -23.0350   48.5810  -79.4300 O.2   135  ALA135     -0.2867
    101  CB       -21.1750   51.0800  -79.5860 C.3   135  ALA135      0.0290
    102  N        -23.9870   52.2230  -84.5580 N.3   161  MET161     -0.1230
    103  CA       -24.1480   52.3670  -83.1060 C.3   161  MET161      0.1702
    104  C        -24.0350   53.8270  -82.6990 C.2   161  MET161      0.2592
    105  O        -23.2590   54.5880  -83.2700 O.2   161  MET161     -0.2718
    106  CB       -23.1050   51.5370  -82.3450 C.3   161  MET161      0.0401
    107  CG       -23.2260   50.0260  -82.5010 C.3   161  MET161      0.0596
    108  SD       -22.1740   49.4270  -83.8410 S.3   161  MET161     -0.1393
    109  CE       -20.5050   49.7220  -83.2440 C.3   161  MET161      0.0692
    110  N        -24.8190   54.2100  -81.7070 N.am  162  ASP162     -0.1960
    111  CA       -24.9150   55.6030  -81.3290 C.3   162  ASP162      0.1840
    112  C        -25.1000   55.7640  -79.8220 C.2   162  ASP162      0.2622
    113  O        -25.5390   56.8240  -79.3600 O.2   162  ASP162     -0.2715
    114  CB       -26.0500   56.2910  -82.1060 C.3   162  ASP162      0.1450
    115  CG       -27.4450   55.7850  -81.7030 C.2   162  ASP162      0.3671
    116  OD1      -27.5270   54.7660  -80.9900 O.co2 162  ASP162     -0.2456
    117  OD2      -28.4640   56.4160  -82.0950 O.co2 162  ASP162     -0.2456
    118  N        -24.7470   54.7330  -79.0540 N.am  163  HIS163     -0.1959
    119  CA       -24.9390   54.7520  -77.6050 C.3   163  HIS163      0.1787
    120  C        -24.0200   53.7610  -76.8880 C.2   163  HIS163      0.2620
    121  O        -23.8810   52.6100  -77.3120 O.2   163  HIS163     -0.2715
    122  CB       -26.4010   54.4520  -77.2820 C.3   163  HIS163      0.0785
    123  CG       -26.7610   54.6520  -75.8480 C.ar  163  HIS163      0.0821
    124  ND1      -26.3130   55.7270  -75.1080 N.ar  163  HIS163     -0.2267
    125  CD2      -27.5530   53.9300  -75.0210 C.ar  163  HIS163      0.1154
    126  CE1      -26.7910   55.6420  -73.8780 C.ar  163  HIS163      0.1986
    127  NE2      -27.5470   54.5610  -73.7990 N.ar  163  HIS163     -0.2212
    128  N        -23.4030   54.1970  -75.7990 N.am  164  GLY164     -0.1954
    129  CA       -22.4510   53.3520  -75.0910 C.3   164  GLY164      0.1869
    130  C        -23.0970   52.7180  -73.8710 C.2   164  GLY164      0.2309
    131  O        -23.6750   53.4250  -73.0190 O.2   164  GLY164     -0.2863
    132  N        -18.2880   46.8570  -81.5220 N.3   213  ALA213     -0.1245
    133  CA       -17.3700   47.7840  -80.8590 C.3   213  ALA213      0.1562
    134  C        -17.2640   47.4660  -79.3830 C.2   213  ALA213      0.2260
    135  O        -17.2570   48.3520  -78.5480 O.2   213  ALA213     -0.2867
    136  CB       -17.7910   49.2300  -81.0660 C.3   213  ALA213      0.0290
@<TRIPOS>BOND
     1   102   103    1
     2   108   109    1
     3   108   107    1
     4   105   104    2
     5   103   104    1
     6   103   106    1
     7   104   110   am
     8   107   106    1
     9    96    95    1
    10   114   115    1
    11   114   111    1
    12   117   115   ar
    13   110   111    1
    14   115   116   ar
    15   132   133    1
    16   111   112    1
    17   136   133    1
    18    95    94   ar
    19    95    93   ar
    20   133   134    1
    21    75    74    1
    22    94    92   ar
    23    93    91   ar
    24    76    74    1
    25    46    44   ar
    26    45    44   ar
    27   112   113    2
    28   112   118   am
    29    74    73    1
    30    44    43    1
    31   101    98    1
    32   100    99    2
    33   134   135    2
    34    56    55    2
    35    37    36    2
    36   118   119    1
    37    43    42    1
    38    99    98    1
    39    92    90   ar
    40    35    36    1
    41    35    34    1
    42    91    90   ar
    43    98    97    1
    44    59    58    2
    45    42    39    1
    46    73    70    1
    47    90    89    1
    48    58    57    1
    49    58    60   am
    50    57    54    1
    51    55    54    1
    52    55    61   am
    53   119   122    1
    54   119   120    1
    55    68    67    2
    56    62    63    1
    57    62    61    1
    58    54    53    1
    59   121   120    2
    60   122   123    1
    61    65    63   am
    62    65    66    1
    63    67    66    1
    64    67    69   am
    65    63    64    2
    66    70    69    1
    67    70    71    1
    68   120   128   am
    69    39    38    1
    70    39    40    1
    71    89    86    1
    72    85    86    1
    73    41    40    2
    74    86    87    1
    75    53    49   am
    76   123   124   ar
    77   123   125   ar
    78   128   129    1
    79    71    77   am
    80    71    72    2
    81    84    83    1
    82    77    78    1
    83    50    49    2
    84   124   126   ar
    85   129   130    1
    86    83    82    1
    87   125   127   ar
    88    49    48    1
    89    19    18    1
    90    79    78    1
    91    79    80    2
    92    87    88    2
    93    24    25    1
    94    24    21    1
    95    26    25   ar
    96    26    28   ar
    97    78    81    1
    98    13    12    2
    99    81    82    1
   100    11    12    1
   101    11    10    1
   102    25    27   ar
   103    28    29   ar
   104   126   127   ar
   105   130   131    2
   106    48    47    1
   107    48    51    1
   108    27    29   ar
   109    27    30   ar
   110    21    20    1
   111    21    22    1
   112    29    31   ar
   113    18    15    1
   114    20    16   am
   115    30    32   ar
   116    51    52    1
   117    31    33   ar
   118    14    15    1
   119    16    15    1
   120    16    17    2
   121    32    33   ar
   122    22    23    2
   123     9     7   am
   124     8     7    2
   125     7     6    1
   126     6     5    1
   127     5     2    1
   128     4     3    2
   129     3     2    1
   130     2     1    1
