@<TRIPOS>MOLECULE
tmp/4axmE00.pdb
 136 130 0 0 0
SMALL
GASTEIGER

@<TRIPOS>ATOM
      1  N        -13.0740   30.9570    3.1130 N.3    19  GLN19      -0.1245
      2  CA       -13.8950   29.9680    2.4040 C.3    19  GLN19       0.1566
      3  C        -13.2770   28.5650    2.3960 C.2    19  GLN19       0.2260
      4  O        -14.0040   27.5780    2.3580 O.2    19  GLN19      -0.2867
      5  CB       -14.2140   30.4230    0.9660 C.3    19  GLN19       0.0367
      6  CG       -13.0160   30.7300    0.0750 C.3    19  GLN19       0.0905
      7  CD       -13.4170   31.3910   -1.2300 C.2    19  GLN19       0.2608
      8  OE1      -13.3100   32.6110   -1.3770 O.2    19  GLN19      -0.2717
      9  NE2      -13.9120   30.5930   -2.1800 N.am   19  GLN19      -0.0878
     10  N        -15.5110   26.4430   -3.7620 N.3    23  GLY23      -0.1225
     11  CA       -15.9140   27.5840   -4.5840 C.3    23  GLY23       0.1811
     12  C        -17.2110   28.1950   -4.0830 C.2    23  GLY23       0.2280
     13  O        -18.2960   27.9640   -4.6420 O.2    23  GLY23      -0.2866
     14  N        -17.1610   31.6280   -2.8900 N.3    25  CYS25      -0.1221
     15  CA       -16.9310   33.0600   -2.8460 C.3    25  CYS25       0.1808
     16  C        -18.2420   33.8260   -3.0420 C.2    25  CYS25       0.2601
     17  O        -18.5580   34.7860   -2.3150 O.2    25  CYS25      -0.2717
     18  CB       -15.8910   33.4620   -3.9010 C.3    25  CYS25       0.0970
     19  SG       -16.1650   32.8630   -5.5910 S.3    25  CYS25      -0.0800
     20  N        -19.0180   33.3770   -4.0170 N.am   26  TRP26      -0.1976
     21  CA       -20.2960   33.9830   -4.2980 C.3    26  TRP26       0.1640
     22  C        -21.1730   34.0770   -3.0360 C.2    26  TRP26       0.2290
     23  O        -21.8790   35.0610   -2.8400 O.2    26  TRP26      -0.2864
     24  CB       -20.9720   33.1920   -5.3950 C.3    26  TRP26       0.0576
     25  CG       -21.1810   31.7690   -5.0380 C.ar   26  TRP26       0.0006
     26  CD1      -20.3310   30.7140   -5.2600 C.ar   26  TRP26       0.0946
     27  CD2      -22.3210   31.2340   -4.3830 C.ar   26  TRP26       0.0152
     28  NE1      -20.8850   29.5480   -4.7930 N.ar   26  TRP26      -0.2442
     29  CE2      -22.1110   29.8370   -4.2520 C.ar   26  TRP26       0.0810
     30  CE3      -23.5110   31.7990   -3.8960 C.ar   26  TRP26       0.0012
     31  CZ2      -23.0400   29.0000   -3.6450 C.ar   26  TRP26       0.0191
     32  CZ3      -24.4330   30.9780   -3.3030 C.ar   26  TRP26       0.0001
     33  CH2      -24.1970   29.5840   -3.1780 C.ar   26  TRP26       0.0015
     34  N        -30.3110   28.8130   -8.8470 N.3    61  GLY61      -0.1225
     35  CA       -29.2920   28.7080   -9.8850 C.3    61  GLY61       0.1811
     36  C        -27.9180   28.2780   -9.4130 C.2    61  GLY61       0.2280
     37  O        -27.1220   27.7560  -10.1950 O.2    61  GLY61      -0.2866
     38  N        -24.6680   26.4490   -7.3300 N.3    63  GLU63      -0.1245
     39  CA       -24.1850   25.0710   -7.4270 C.3    63  GLU63       0.1567
     40  C        -23.1900   24.7090   -6.3390 C.2    63  GLU63       0.2260
     41  O        -22.0960   24.2320   -6.6390 O.2    63  GLU63      -0.2867
     42  CB       -23.5370   24.8280   -8.7930 C.3    63  GLU63       0.0388
     43  CG       -24.5040   24.6400   -9.9560 C.3    63  GLU63       0.1160
     44  CD       -23.8180   24.7220  -11.3160 C.2    63  GLU63       0.3649
     45  OE1      -22.5810   24.9180  -11.3720 O.co2  63  GLU63      -0.2457
     46  OE2      -24.5200   24.5930  -12.3430 O.co2  63  GLU63      -0.2457
     47  N        -20.3800   24.1330   -3.7540 N.3    65  CYS65      -0.1221
     48  CA       -18.9540   24.4650   -3.8150 C.3    65  CYS65       0.1808
     49  C        -18.4680   24.5310   -5.2730 C.2    65  CYS65       0.2601
     50  O        -17.2640   24.5910   -5.5390 O.2    65  CYS65      -0.2717
     51  CB       -18.0990   23.5020   -2.9560 C.3    65  CYS65       0.0970
     52  SG       -18.1690   23.7080   -1.1330 S.3    65  CYS65      -0.0800
     53  N        -19.4220   24.5340   -6.2050 N.am   66  ASN66      -0.1960
     54  CA       -19.1390   24.5710   -7.6340 C.3    66  ASN66       0.1819
     55  C        -19.5300   25.9150   -8.2470 C.2    66  ASN66       0.2622
     56  O        -19.8580   26.0040   -9.4300 O.2    66  ASN66      -0.2715
     57  CB       -19.8980   23.4440   -8.3420 C.3    66  ASN66       0.1195
     58  CG       -19.5220   22.0670   -7.8300 C.2    66  ASN66       0.2630
     59  OD1      -20.3730   21.3050   -7.3510 O.2    66  ASN66      -0.2716
     60  ND2      -18.2390   21.7400   -7.9270 N.am   66  ASN66      -0.0877
     61  N        -19.5120   26.9650   -7.4370 N.am   67  GLY67      -0.1940
     62  CA       -19.8510   28.3060   -7.9150 C.3    67  GLY67       0.2014
     63  C        -21.3290   28.6540   -7.8500 C.2    67  GLY67       0.2639
     64  O        -22.1870   27.7820   -7.7950 O.2    67  GLY67      -0.2714
     65  N        -21.6110   29.9470   -7.8540 N.am   68  GLY68      -0.1939
     66  CA       -22.9670   30.4480   -7.8020 C.3    68  GLY68       0.2014
     67  C        -22.8790   31.9110   -8.1570 C.2    68  GLY68       0.2639
     68  O        -21.8370   32.3730   -8.6050 O.2    68  GLY68      -0.2714
     69  N        -23.9590   32.6460   -7.9400 N.am   69  LEU69      -0.1963
     70  CA       -23.9570   34.0780   -8.1900 C.3    69  LEU69       0.1728
     71  C        -24.6810   34.8540   -7.0800 C.2    69  LEU69       0.2616
     72  O        -25.8390   34.5710   -6.7830 O.2    69  LEU69      -0.2715
     73  CB       -24.5990   34.3860   -9.5570 C.3    69  LEU69       0.0311
     74  CG       -23.9680   33.9890  -10.9110 C.3    69  LEU69       0.0022
     75  CD1      -24.8520   34.4400  -12.0690 C.3    69  LEU69       0.0001
     76  CD2      -22.5850   34.5960  -11.0700 C.3    69  LEU69       0.0001
     77  N        -23.9960   35.8330   -6.4850 N.am   70  MET70      -0.1977
     78  CA       -24.6030   36.7840   -5.5430 C.3    70  MET70       0.1605
     79  C        -26.0300   37.1730   -5.9200 C.2    70  MET70       0.2287
     80  O        -26.8840   37.3420   -5.0440 O.2    70  MET70      -0.2864
     81  CB       -23.7730   38.0580   -5.4510 C.3    70  MET70       0.0413
     82  CG       -22.3410   37.8380   -5.0170 C.3    70  MET70       0.0598
     83  SD       -21.3400   37.1660   -6.3590 S.3    70  MET70      -0.1393
     84  CE       -20.7930   38.6540   -7.1970 C.3    70  MET70       0.0692
     85  N        -28.2610   35.2390   -7.6290 N.3    72  TYR72      -0.1241
     86  CA       -29.1090   34.0960   -7.3040 C.3    72  TYR72       0.1605
     87  C        -29.2770   33.9700   -5.7970 C.2    72  TYR72       0.2264
     88  O        -30.3740   33.6910   -5.2830 O.2    72  TYR72      -0.2867
     89  CB       -28.4960   32.8150   -7.8480 C.3    72  TYR72       0.0534
     90  CG       -28.3180   32.7780   -9.3510 C.ar   72  TYR72      -0.0201
     91  CD1      -29.1250   33.5500  -10.2000 C.ar   72  TYR72      -0.0009
     92  CD2      -27.3680   31.9280   -9.9310 C.ar   72  TYR72      -0.0009
     93  CE1      -28.9590   33.5000  -11.5750 C.ar   72  TYR72       0.0417
     94  CE2      -27.2050   31.8620  -11.3030 C.ar   72  TYR72       0.0417
     95  CZ       -27.9960   32.6490  -12.1200 C.ar   72  TYR72       0.1957
     96  OH       -27.8220   32.5840  -13.4850 O.3    72  TYR72      -0.2866
     97  N        -17.9780   40.8790   -9.0150 N.3   135  ALA135     -0.1245
     98  CA       -17.1000   39.8150   -9.5180 C.3   135  ALA135      0.1562
     99  C        -15.8000   40.4140  -10.0420 C.2   135  ALA135      0.2260
    100  O        -15.8030   41.5240  -10.5740 O.2   135  ALA135     -0.2867
    101  CB       -17.7920   39.0590  -10.6250 C.3   135  ALA135      0.0290
    102  N        -14.6230   37.2680  -15.4870 N.3   161  MET161     -0.1230
    103  CA       -14.3620   37.2630  -14.0520 C.3   161  MET161      0.1702
    104  C        -14.7170   35.8910  -13.4780 C.2   161  MET161      0.2592
    105  O        -15.6380   35.2260  -13.9650 O.2   161  MET161     -0.2718
    106  CB       -15.1420   38.3510  -13.3190 C.3   161  MET161      0.0401
    107  CG       -15.0560   39.7570  -13.8860 C.3   161  MET161      0.0596
    108  SD       -16.3750   40.1830  -15.0650 S.3   161  MET161     -0.1393
    109  CE       -17.6880   39.0040  -14.7160 C.3   161  MET161      0.0692
    110  N        -14.0090   35.4850  -12.4240 N.am  162  ASP162     -0.1960
    111  CA       -14.1060   34.1190  -11.9160 C.3   162  ASP162      0.1840
    112  C        -14.1070   34.0060  -10.3870 C.2   162  ASP162      0.2622
    113  O        -13.8420   32.9280   -9.8290 O.2   162  ASP162     -0.2715
    114  CB       -12.9340   33.3240  -12.4650 C.3   162  ASP162      0.1450
    115  CG       -11.6070   34.0110  -12.2120 C.2   162  ASP162      0.3671
    116  OD1      -11.5430   34.8960  -11.3170 O.co2 162  ASP162     -0.2456
    117  OD2      -10.6320   33.6660  -12.9200 O.co2 162  ASP162     -0.2456
    118  N        -14.4180   35.1090   -9.7130 N.am  163  HIS163     -0.1959
    119  CA       -14.3500   35.1690   -8.2620 C.3   163  HIS163      0.1787
    120  C        -15.2170   36.3250   -7.7430 C.2   163  HIS163      0.2620
    121  O        -15.1610   37.4460   -8.2610 O.2   163  HIS163     -0.2715
    122  CB       -12.8770   35.3180   -7.8500 C.3   163  HIS163      0.0785
    123  CG       -12.6520   35.3860   -6.3730 C.ar  163  HIS163      0.0821
    124  ND1      -13.0700   34.3980   -5.5070 N.ar  163  HIS163     -0.2267
    125  CD2      -12.0280   36.3150   -5.6100 C.ar  163  HIS163      0.1154
    126  CE1      -12.7330   34.7260   -4.2720 C.ar  163  HIS163      0.1986
    127  NE2      -12.1020   35.8860   -4.3070 N.ar  163  HIS163     -0.2212
    128  N        -16.0300   36.0520   -6.7290 N.am  164  GLY164     -0.1954
    129  CA       -16.9350   37.0650   -6.1760 C.3   164  GLY164      0.1869
    130  C        -16.3980   37.6320   -4.8800 C.2   164  GLY164      0.2309
    131  O        -15.9210   36.8970   -4.0280 O.2   164  GLY164     -0.2863
    132  N        -20.1560   43.1230  -12.9810 N.3   210  ALA210     -0.1245
    133  CA       -21.2660   42.3330  -12.4360 C.3   210  ALA210      0.1562
    134  C        -21.5880   42.7400  -10.9880 C.2   210  ALA210      0.2260
    135  O        -21.9170   41.9140  -10.1340 O.2   210  ALA210     -0.2867
    136  CB       -20.9670   40.8420  -12.5550 C.3   210  ALA210      0.0290
@<TRIPOS>BOND
     1   102   103    1
     2   108   109    1
     3   108   107    1
     4   103   104    1
     5   103   106    1
     6   105   104    2
     7   107   106    1
     8    96    95    1
     9   104   110   am
    10   132   133    1
    11   117   115   ar
    12   136   133    1
    13   114   115    1
    14   114   111    1
    15   133   134    1
    16   110   111    1
    17    46    44   ar
    18   115   116   ar
    19    95    93   ar
    20    95    94   ar
    21    75    74    1
    22   111   112    1
    23    93    91   ar
    24    45    44   ar
    25    44    43    1
    26    94    92   ar
    27    76    74    1
    28   134   135    2
    29    74    73    1
    30   101    98    1
    31   100    99    2
    32   112   113    2
    33   112   118   am
    34    91    90   ar
    35    37    36    2
    36    99    98    1
    37    43    42    1
    38    92    90   ar
    39    35    36    1
    40    35    34    1
    41   118   119    1
    42    73    70    1
    43    98    97    1
    44    56    55    2
    45    90    89    1
    46    42    39    1
    47    68    67    2
    48    57    58    1
    49    57    54    1
    50   119   122    1
    51   119   120    1
    52   121   120    2
    53    55    54    1
    54    55    61   am
    55    70    69    1
    56    70    71    1
    57    67    69   am
    58    67    66    1
    59    60    58   am
    60    62    63    1
    61    62    61    1
    62    65    63   am
    63    65    66    1
    64   122   123    1
    65    63    64    2
    66    89    86    1
    67    58    59    2
    68   120   128   am
    69    54    53    1
    70    85    86    1
    71    39    38    1
    72    39    40    1
    73    86    87    1
    74    84    83    1
    75    71    72    2
    76    71    77   am
    77   128   129    1
    78    41    40    2
    79    77    78    1
    80   123   125   ar
    81   123   124   ar
    82    83    82    1
    83    53    49   am
    84   129   130    1
    85    79    78    1
    86    79    80    2
    87    87    88    2
    88   125   127   ar
    89    19    18    1
    90    78    81    1
    91    50    49    2
    92   124   126   ar
    93    81    82    1
    94    24    25    1
    95    24    21    1
    96    49    48    1
    97    26    25   ar
    98    26    28   ar
    99    25    27   ar
   100   130   131    2
   101    28    29   ar
   102    13    12    2
   103    11    12    1
   104    11    10    1
   105    27    29   ar
   106    27    30   ar
   107   127   126   ar
   108    21    20    1
   109    21    22    1
   110    29    31   ar
   111    20    16   am
   112    18    15    1
   113    30    32   ar
   114    48    47    1
   115    48    51    1
   116    31    33   ar
   117    32    33   ar
   118    16    15    1
   119    16    17    2
   120    22    23    2
   121    51    52    1
   122    14    15    1
   123     9     7   am
   124     8     7    2
   125     7     6    1
   126     6     5    1
   127     5     2    1
   128     4     3    2
   129     3     2    1
   130     2     1    1
