@<TRIPOS>MOLECULE
tmp/4ay1L00.pdb
 261 260 0 0 0
SMALL
GASTEIGER

@<TRIPOS>ATOM
      1  N         -4.1890  146.5970   46.9360 N.3     7  TYR7       -0.1241
      2  CA        -5.6110  146.2980   46.8670 C.3     7  TYR7        0.1605
      3  C         -5.8450  144.7970   46.9960 C.2     7  TYR7        0.2264
      4  O         -5.0620  143.9930   46.4700 O.2     7  TYR7       -0.2867
      5  CB        -6.1850  146.7420   45.5280 C.3     7  TYR7        0.0534
      6  CG        -6.4180  148.2340   45.3580 C.ar    7  TYR7       -0.0201
      7  CD1       -7.6260  148.8250   45.7600 C.ar    7  TYR7       -0.0009
      8  CD2       -5.4690  149.0370   44.7050 C.ar    7  TYR7       -0.0009
      9  CE1       -7.8610  150.2150   45.5430 C.ar    7  TYR7        0.0417
     10  CE2       -5.6890  150.4120   44.5020 C.ar    7  TYR7        0.0417
     11  CZ        -6.8760  150.9900   44.9160 C.ar    7  TYR7        0.1957
     12  OH        -7.0600  152.3550   44.7110 O.3     7  TYR7       -0.2866
     13  N        -14.3170  139.4890   45.7910 N.3    11  TRP11      -0.1241
     14  CA       -14.7410  138.3510   44.9650 C.3    11  TRP11       0.1605
     15  C        -13.7380  137.1800   44.8050 C.2    11  TRP11       0.2264
     16  O        -14.1210  136.0990   44.3480 O.2    11  TRP11      -0.2867
     17  CB       -15.2100  138.8200   43.5880 C.3    11  TRP11       0.0550
     18  CG       -14.1800  139.6290   42.8440 C.ar   11  TRP11       0.0003
     19  CD1      -13.2640  139.1620   41.9390 C.ar   11  TRP11       0.0946
     20  CD2      -13.9630  141.0540   42.9380 C.ar   11  TRP11       0.0152
     21  NE1      -12.4810  140.2140   41.4690 N.ar   11  TRP11      -0.2442
     22  CE2      -12.8860  141.3750   42.0710 C.ar   11  TRP11       0.0810
     23  CE3      -14.5800  142.0880   43.6610 C.ar   11  TRP11       0.0012
     24  CZ2      -12.4210  142.6920   41.9000 C.ar   11  TRP11       0.0191
     25  CZ3      -14.1040  143.3940   43.5020 C.ar   11  TRP11       0.0001
     26  CH2      -13.0410  143.6840   42.6270 C.ar   11  TRP11       0.0015
     27  N        -13.0830  131.9050   44.3150 N.3    15  ARG15      -0.1245
     28  CA       -12.3090  131.1600   43.3390 C.3    15  ARG15       0.1563
     29  C        -11.8110  129.8280   43.8940 C.2    15  ARG15       0.2260
     30  O        -11.7930  129.6320   45.1040 O.2    15  ARG15      -0.2867
     31  CB       -11.1320  132.0030   42.8530 C.3    15  ARG15       0.0307
     32  CG       -11.5740  133.2260   42.0450 C.3    15  ARG15       0.0489
     33  CD       -10.4350  134.1470   41.6610 C.3    15  ARG15       0.2205
     34  NE       -10.9050  135.2090   40.7570 N.pl3  15  ARG15      -0.0865
     35  CZ       -10.4390  136.4530   40.7680 C.cat  15  ARG15       0.5346
     36  NH1       -9.4720  136.7790   41.6280 N.pl3  15  ARG15       0.1354
     37  NH2      -10.9110  137.3640   39.9080 N.pl3  15  ARG15       0.1354
     38  N        -14.8370  146.1340   46.8620 N.3    38  PHE38      -0.1241
     39  CA       -15.1890  147.5490   47.0110 C.3    38  PHE38       0.1605
     40  C        -16.4330  147.6530   47.9110 C.2    38  PHE38       0.2264
     41  O        -17.2610  146.7570   47.9070 O.2    38  PHE38      -0.2867
     42  CB       -15.5840  148.1410   45.6550 C.3    38  PHE38       0.0534
     43  CG       -14.4550  148.2400   44.6800 C.ar   38  PHE38      -0.0203
     44  CD1      -13.5100  149.2470   44.7980 C.ar   38  PHE38      -0.0042
     45  CD2      -14.3430  147.3170   43.6400 C.ar   38  PHE38      -0.0042
     46  CE1      -12.4700  149.3510   43.8840 C.ar   38  PHE38      -0.0003
     47  CE2      -13.2960  147.3950   42.7280 C.ar   38  PHE38      -0.0003
     48  CZ       -12.3590  148.4070   42.8520 C.ar   38  PHE38      -0.0000
     49  N        -16.0300  152.2070   44.5310 N.3    77  GLY77      -0.1210
     50  CA       -15.9820  152.5180   43.1150 C.3    77  GLY77       0.1956
     51  C        -15.5730  151.2830   42.3370 C.2    77  GLY77       0.2612
     52  O        -16.1110  150.1840   42.5620 O.2    77  GLY77      -0.2717
     53  N        -14.6110  151.4660   41.4420 N.am   78  GLY78      -0.1942
     54  CA       -14.2100  150.4100   40.5320 C.3    78  GLY78       0.2014
     55  C        -15.0380  150.4320   39.2570 C.2    78  GLY78       0.2639
     56  O        -16.0410  151.1570   39.1460 O.2    78  GLY78      -0.2714
     57  N        -14.6160  149.6170   38.3000 N.am   79  TYR79      -0.1959
     58  CA       -15.1560  149.6590   36.9470 C.3    79  TYR79       0.1771
     59  C        -16.6480  149.3450   36.8570 C.2    79  TYR79       0.2619
     60  O        -17.4120  150.1130   36.2730 O.2    79  TYR79      -0.2715
     61  CB       -14.3550  148.7150   36.0540 C.3    79  TYR79       0.0574
     62  CG       -14.7980  148.7400   34.6220 C.ar   79  TYR79      -0.0198
     63  CD1      -14.5270  149.8300   33.8200 C.ar   79  TYR79      -0.0009
     64  CD2      -15.4730  147.6700   34.0770 C.ar   79  TYR79      -0.0009
     65  CE1      -14.9270  149.8600   32.5000 C.ar   79  TYR79       0.0417
     66  CE2      -15.8920  147.6840   32.7640 C.ar   79  TYR79       0.0417
     67  CZ       -15.6130  148.7800   31.9870 C.ar   79  TYR79       0.1957
     68  OH       -16.0030  148.7920   30.6860 O.3    79  TYR79      -0.2866
     69  N        -17.0650  148.2270   37.4380 N.am   80  LEU80      -0.1963
     70  CA       -18.4830  147.8320   37.4180 C.3    80  LEU80       0.1728
     71  C        -19.4330  148.8330   38.1380 C.2    80  LEU80       0.2616
     72  O        -20.5670  149.0610   37.7080 O.2    80  LEU80      -0.2715
     73  CB       -18.6310  146.4330   38.0090 C.3    80  LEU80       0.0311
     74  CG       -18.0380  145.2770   37.1850 C.3    80  LEU80       0.0022
     75  CD1      -18.3950  143.9680   37.8580 C.3    80  LEU80       0.0001
     76  CD2      -18.5420  145.3100   35.7340 C.3    80  LEU80       0.0001
     77  N        -18.9640  149.4180   39.2380 N.am   81  PHE81      -0.1974
     78  CA       -19.7420  150.4310   39.9510 C.3    81  PHE81       0.1639
     79  C        -19.9990  151.6390   39.0380 C.2    81  PHE81       0.2290
     80  O        -21.0870  152.2260   39.0420 O.2    81  PHE81      -0.2864
     81  CB       -18.9580  150.8720   41.1980 C.3    81  PHE81       0.0560
     82  CG       -19.7730  151.6500   42.2170 C.ar   81  PHE81      -0.0200
     83  CD1      -20.7430  151.0170   42.9860 C.ar   81  PHE81      -0.0042
     84  CD2      -19.5380  153.0040   42.4320 C.ar   81  PHE81      -0.0042
     85  CE1      -21.4800  151.7360   43.9500 C.ar   81  PHE81      -0.0003
     86  CE2      -20.2590  153.7240   43.3990 C.ar   81  PHE81      -0.0003
     87  CZ       -21.2280  153.0860   44.1560 C.ar   81  PHE81      -0.0000
     88  N        -12.3770  155.4140   44.1530 N.3   118  SER118     -0.1217
     89  CA       -11.9270  155.0150   42.8060 C.3   118  SER118      0.1889
     90  C        -13.1060  155.0730   41.8430 C.2   118  SER118      0.2288
     91  O        -13.6800  154.0600   41.4770 O.2   118  SER118     -0.2866
     92  CB       -11.2740  153.6190   42.8240 C.3   118  SER118      0.2089
     93  OG       -10.0070  153.6840   43.4960 O.3   118  SER118     -0.2183
     94  N        -14.7250  155.3440   38.4990 N.3   120  ILE120     -0.1231
     95  CA       -14.2700  154.9650   37.1690 C.3   120  ILE120      0.1692
     96  C        -15.3890  155.2230   36.1640 C.2   120  ILE120      0.2592
     97  O        -16.2580  154.3670   36.0230 O.2   120  ILE120     -0.2718
     98  CB       -13.9330  153.4320   37.1260 C.3   120  ILE120      0.0266
     99  CG1      -12.9820  153.0320   38.2630 C.3   120  ILE120      0.0019
    100  CG2      -13.3950  153.0130   35.7420 C.3   120  ILE120      0.0020
    101  CD1      -11.5710  153.7130   38.2200 C.3   120  ILE120      0.0001
    102  N        -15.4310  156.3890   35.4940 N.am  121  TYR121     -0.1976
    103  CA       -14.6240  157.5880   35.7530 C.3   121  TYR121      0.1639
    104  C        -15.5710  158.7990   35.8160 C.2   121  TYR121      0.2290
    105  O        -16.6860  158.7480   35.3010 O.2   121  TYR121     -0.2864
    106  CB       -13.6570  157.8980   34.6020 C.3   121  TYR121      0.0560
    107  CG       -12.8040  156.7430   34.1310 C.ar  121  TYR121     -0.0198
    108  CD1      -11.6230  156.4290   34.7830 C.ar  121  TYR121     -0.0009
    109  CD2      -13.1830  155.9820   33.0270 C.ar  121  TYR121     -0.0009
    110  CE1      -10.8330  155.3710   34.3620 C.ar  121  TYR121      0.0417
    111  CE2      -12.4020  154.9210   32.5810 C.ar  121  TYR121      0.0417
    112  CZ       -11.2240  154.6220   33.2570 C.ar  121  TYR121      0.1957
    113  OH       -10.4210  153.5810   32.8480 O.3   121  TYR121     -0.2866
    114  N         -7.4790  157.4130   36.6910 N.3   160  SER160     -0.1202
    115  CA        -7.0980  157.0030   35.3360 C.3   160  SER160      0.2020
    116  C         -5.6530  157.3730   34.9790 C.2   160  SER160      0.2619
    117  O         -5.1580  158.4190   35.3940 O.2   160  SER160     -0.2717
    118  CB        -8.0200  157.7120   34.3490 C.3   160  SER160      0.2103
    119  OG        -7.6790  157.3850   33.0110 O.3   160  SER160     -0.2182
    120  N         -4.9840  156.5140   34.2030 N.am  161  ALA161     -0.1965
    121  CA        -3.6450  156.8050   33.6920 C.3   161  ALA161      0.1728
    122  C         -3.6760  157.1740   32.2070 C.2   161  ALA161      0.2616
    123  O         -2.6250  157.2610   31.5790 O.2   161  ALA161     -0.2715
    124  CB        -2.7110  155.5890   33.9010 C.3   161  ALA161      0.0334
    125  N         -4.8730  157.3570   31.6440 N.am  162  GLY162     -0.1955
    126  CA        -5.0090  157.6940   30.2250 C.3   162  GLY162      0.1869
    127  C         -5.2240  159.1920   30.0530 C.2   162  GLY162      0.2309
    128  O         -6.1460  159.7720   30.6260 O.2   162  GLY162     -0.2863
    129  N         -8.7710  160.8370   29.4370 N.3   165  MET165     -0.1245
    130  CA        -9.6620  160.6970   30.5740 C.3   165  MET165      0.1570
    131  C         -9.1810  161.5510   31.7570 C.2   165  MET165      0.2261
    132  O         -9.9870  162.1320   32.4720 O.2   165  MET165     -0.2867
    133  CB        -9.8220  159.2230   30.9550 C.3   165  MET165      0.0387
    134  CG       -10.9350  158.9550   31.9650 C.3   165  MET165      0.0595
    135  SD       -12.5750  159.5730   31.5070 S.3   165  MET165     -0.1393
    136  CE       -12.9950  158.5970   30.0470 C.3   165  MET165      0.0692
    137  N         -3.7980  154.2410   38.3190 N.3   185  LEU185     -0.1245
    138  CA        -4.2340  152.9950   37.6790 C.3   185  LEU185      0.1561
    139  C         -3.4660  152.7670   36.3760 C.2   185  LEU185      0.2260
    140  O         -4.0530  152.6890   35.2890 O.2   185  LEU185     -0.2867
    141  CB        -5.7580  153.0230   37.4240 C.3   185  LEU185      0.0270
    142  CG        -6.5370  153.2780   38.7170 C.3   185  LEU185      0.0019
    143  CD1       -8.0420  153.4610   38.4200 C.3   185  LEU185      0.0001
    144  CD2       -6.2900  152.1250   39.7080 C.3   185  LEU185      0.0001
    145  N         -2.3340  150.6770   34.2810 N.3   187  PHE187     -0.1227
    146  CA        -2.4580  149.4080   33.5860 C.3   187  PHE187      0.1736
    147  C         -3.7460  149.5250   32.7700 C.2   187  PHE187      0.2595
    148  O         -4.3490  150.5930   32.7570 O.2   187  PHE187     -0.2718
    149  CB        -2.4820  148.2270   34.5830 C.3   187  PHE187      0.0547
    150  CG        -3.0840  148.5710   35.9250 C.ar  187  PHE187     -0.0202
    151  CD1       -4.4530  148.7400   36.0600 C.ar  187  PHE187     -0.0042
    152  CD2       -2.2770  148.7220   37.0560 C.ar  187  PHE187     -0.0042
    153  CE1       -5.0180  149.0560   37.2970 C.ar  187  PHE187     -0.0003
    154  CE2       -2.8340  149.0660   38.2990 C.ar  187  PHE187     -0.0003
    155  CZ        -4.2060  149.2220   38.4190 C.ar  187  PHE187     -0.0000
    156  N         -4.1670  148.4600   32.0920 N.am  188  ASP188     -0.1960
    157  CA        -5.2530  148.5610   31.1380 C.3   188  ASP188      0.1840
    158  C         -4.9750  149.6070   30.0560 C.2   188  ASP188      0.2622
    159  O         -5.8950  150.2530   29.5540 O.2   188  ASP188     -0.2715
    160  CB        -6.5880  148.8410   31.8450 C.3   188  ASP188      0.1450
    161  CG        -6.9550  147.7410   32.8560 C.2   188  ASP188      0.3671
    162  OD1       -6.7500  146.5390   32.5380 O.co2 188  ASP188     -0.2456
    163  OD2       -7.4320  148.0830   33.9640 O.co2 188  ASP188     -0.2456
    164  N         -3.7000  149.7630   29.6950 N.am  189  PHE189     -0.1974
    165  CA        -3.3240  150.6190   28.5770 C.3   189  PHE189      0.1639
    166  C         -3.7180  150.0250   27.2200 C.2   189  PHE189      0.2290
    167  O         -3.9710  150.7700   26.2740 O.2   189  PHE189     -0.2864
    168  CB        -1.8290  150.8860   28.5840 C.3   189  PHE189      0.0560
    169  CG        -1.3900  151.8280   29.6580 C.ar  189  PHE189     -0.0200
    170  CD1       -1.7670  153.1630   29.6140 C.ar  189  PHE189     -0.0042
    171  CD2       -0.5720  151.3940   30.6860 C.ar  189  PHE189     -0.0042
    172  CE1       -1.3450  154.0510   30.5880 C.ar  189  PHE189     -0.0003
    173  CE2       -0.1310  152.2690   31.6650 C.ar  189  PHE189     -0.0003
    174  CZ        -0.5190  153.6110   31.6160 C.ar  189  PHE189     -0.0000
    175  N        -10.8590  145.7360   24.1940 N.3   193  TRP193     -0.1241
    176  CA       -11.9230  146.6990   23.9410 C.3   193  TRP193      0.1605
    177  C        -11.4820  147.5780   22.7690 C.2   193  TRP193      0.2264
    178  O        -12.2820  148.3040   22.1760 O.2   193  TRP193     -0.2867
    179  CB       -12.1400  147.5670   25.1890 C.3   193  TRP193      0.0550
    180  CG       -10.8540  148.1390   25.7010 C.ar  193  TRP193      0.0003
    181  CD1      -10.1940  149.2430   25.2290 C.ar  193  TRP193      0.0946
    182  CD2      -10.0550  147.6210   26.7730 C.ar  193  TRP193      0.0152
    183  NE1       -9.0230  149.4280   25.9300 N.ar  193  TRP193     -0.2442
    184  CE2       -8.9210  148.4490   26.8870 C.ar  193  TRP193      0.0810
    185  CE3      -10.1790  146.5210   27.6340 C.ar  193  TRP193      0.0012
    186  CZ2       -7.9370  148.2360   27.8500 C.ar  193  TRP193      0.0191
    187  CZ3       -9.1880  146.3050   28.5880 C.ar  193  TRP193      0.0001
    188  CH2       -8.0850  147.1560   28.6820 C.ar  193  TRP193      0.0015
    189  N          0.0510  155.8560   25.8840 N.3   218  TYR218     -0.1241
    190  CA        -0.4580  154.6510   26.5460 C.3   218  TYR218      0.1605
    191  C          0.6600  153.8420   27.2260 C.2   218  TYR218      0.2264
    192  O          0.9120  152.6920   26.8910 O.2   218  TYR218     -0.2867
    193  CB        -1.2030  153.7610   25.5520 C.3   218  TYR218      0.0534
    194  CG        -2.4370  154.3710   24.8870 C.ar  218  TYR218     -0.0201
    195  CD1       -2.3370  155.4710   24.0540 C.ar  218  TYR218     -0.0009
    196  CD2       -3.7010  153.8080   25.0660 C.ar  218  TYR218     -0.0009
    197  CE1       -3.4710  156.0240   23.4300 C.ar  218  TYR218      0.0417
    198  CE2       -4.8410  154.3550   24.4410 C.ar  218  TYR218      0.0417
    199  CZ        -4.7040  155.4660   23.6300 C.ar  218  TYR218      0.1957
    200  OH        -5.7970  156.0300   23.0140 O.3   218  TYR218     -0.2866
    201  N         -1.8850  140.9220   36.9550 N.3   244  TYR244     -0.1241
    202  CA        -2.5900  140.1890   35.9040 C.3   244  TYR244      0.1605
    203  C         -2.0730  140.7050   34.5570 C.2   244  TYR244      0.2264
    204  O         -1.3380  141.7090   34.5040 O.2   244  TYR244     -0.2867
    205  CB        -4.1180  140.4140   35.9990 C.3   244  TYR244      0.0534
    206  CG        -4.4910  141.8620   35.6870 C.ar  244  TYR244     -0.0201
    207  CD1       -4.3350  142.8590   36.6450 C.ar  244  TYR244     -0.0009
    208  CD2       -4.9470  142.2300   34.4230 C.ar  244  TYR244     -0.0009
    209  CE1       -4.6440  144.1780   36.3600 C.ar  244  TYR244      0.0417
    210  CE2       -5.2690  143.5560   34.1310 C.ar  244  TYR244      0.0417
    211  CZ        -5.1150  144.5170   35.0880 C.ar  244  TYR244      0.1957
    212  OH        -5.4120  145.8390   34.7820 O.3   244  TYR244     -0.2866
    213  N         -3.2650  140.9870   30.0920 N.3   246  HIS246     -0.1241
    214  CA        -4.3820  140.8950   29.1680 C.3   246  HIS246      0.1621
    215  C         -4.0530  139.9840   28.0020 C.2   246  HIS246      0.2264
    216  O         -2.9620  140.0650   27.4190 O.2   246  HIS246     -0.2867
    217  CB        -4.7780  142.2750   28.6340 C.3   246  HIS246      0.0745
    218  CG        -5.6470  143.0630   29.5700 C.ar  246  HIS246      0.0817
    219  ND1       -6.8760  142.6060   30.0050 N.ar  246  HIS246     -0.2268
    220  CD2       -5.4780  144.2830   30.1330 C.ar  246  HIS246      0.1154
    221  CE1       -7.4270  143.5160   30.7910 C.ar  246  HIS246      0.1986
    222  NE2       -6.5910  144.5340   30.9010 N.ar  246  HIS246     -0.2212
    223  N         -8.4190  138.4240   30.4910 N.3   276  PHE276     -0.1241
    224  CA        -7.3350  138.5460   31.4790 C.3   276  PHE276      0.1605
    225  C         -6.9350  137.2070   32.1270 C.2   276  PHE276      0.2264
    226  O         -7.6750  136.2170   32.0510 O.2   276  PHE276     -0.2867
    227  CB        -7.6000  139.6800   32.5120 C.3   276  PHE276      0.0534
    228  CG        -8.4370  139.2780   33.7300 C.ar  276  PHE276     -0.0203
    229  CD1       -7.8450  138.6840   34.8360 C.ar  276  PHE276     -0.0042
    230  CD2       -9.7960  139.5820   33.7950 C.ar  276  PHE276     -0.0042
    231  CE1       -8.6120  138.3390   35.9750 C.ar  276  PHE276     -0.0003
    232  CE2      -10.5630  139.2560   34.9280 C.ar  276  PHE276     -0.0003
    233  CZ        -9.9780  138.6300   36.0110 C.ar  276  PHE276     -0.0000
    234  N         -2.4540  146.1090   41.8850 N.3   335  TRP335     -0.1227
    235  CA        -3.8000  145.6190   41.5980 C.3   335  TRP335      0.1737
    236  C         -3.6630  144.2260   40.9810 C.2   335  TRP335      0.2596
    237  O         -3.2350  144.1120   39.8270 O.2   335  TRP335     -0.2718
    238  CB        -4.6190  146.5470   40.6470 C.3   335  TRP335      0.0564
    239  CG        -5.9770  145.9520   40.4690 C.ar  335  TRP335      0.0003
    240  CD1       -6.3280  144.9290   39.6110 C.ar  335  TRP335      0.0946
    241  CD2       -7.1360  146.2170   41.2720 C.ar  335  TRP335      0.0152
    242  NE1       -7.6460  144.5790   39.8170 N.ar  335  TRP335     -0.2442
    243  CE2       -8.1610  145.3560   40.8270 C.ar  335  TRP335      0.0810
    244  CE3       -7.4140  147.1290   42.3040 C.ar  335  TRP335      0.0012
    245  CZ2       -9.4440  145.3600   41.3950 C.ar  335  TRP335      0.0191
    246  CZ3       -8.6960  147.1380   42.8660 C.ar  335  TRP335      0.0001
    247  CH2       -9.6870  146.2550   42.4110 C.ar  335  TRP335      0.0015
    248  N         -3.9920  143.1650   41.7270 N.am  336  SER336     -0.1952
    249  CA        -4.3090  143.2030   43.1540 C.3   336  SER336      0.1924
    250  C         -3.5860  142.0110   43.8060 C.2   336  SER336      0.2314
    251  O         -3.1590  141.0910   43.1080 O.2   336  SER336     -0.2863
    252  CB        -5.8170  143.0980   43.3850 C.3   336  SER336      0.2116
    253  OG        -6.3600  141.9750   42.7010 O.3   336  SER336     -0.2180
    254  N         -4.3060  138.2880   43.0860 N.3   339  MET339     -0.1245
    255  CA        -4.0460  137.6770   41.7740 C.3   339  MET339      0.1570
    256  C         -2.5500  137.3830   41.5540 C.2   339  MET339      0.2261
    257  O         -2.1500  136.8420   40.5110 O.2   339  MET339     -0.2867
    258  CB        -4.6230  138.5330   40.6240 C.3   339  MET339      0.0387
    259  CG        -6.1540  138.5370   40.5640 C.3   339  MET339      0.0595
    260  SD        -6.7790  139.4070   39.1050 S.3   339  MET339     -0.1393
    261  CE        -5.9590  140.9950   39.2530 C.3   339  MET339      0.0692
@<TRIPOS>BOND
     1   178   177    2
     2   177   176    1
     3   200   199    1
     4   197   199   ar
     5   197   195   ar
     6   199   198   ar
     7   176   175    1
     8   176   179    1
     9   195   194   ar
    10   198   196   ar
    11   194   196   ar
    12   194   193    1
    13   179   180    1
    14   181   180   ar
    15   181   183   ar
    16   193   190    1
    17   180   182   ar
    18   189   190    1
    19   183   184   ar
    20   167   166    2
    21   190   191    1
    22   182   184   ar
    23   182   185   ar
    24   184   186   ar
    25   192   191    2
    26   166   165    1
    27   216   215    2
    28   185   187   ar
    29   186   188   ar
    30   215   214    1
    31   165   168    1
    32   165   164    1
    33   168   169    1
    34   187   188   ar
    35   217   214    1
    36   217   218    1
    37   214   213    1
    38   129   130    1
    39   159   158    2
    40   218   219   ar
    41   218   220   ar
    42   170   169   ar
    43   170   172   ar
    44   169   171   ar
    45   164   158   am
    46   219   221   ar
    47   136   135    1
    48   127   126    1
    49   127   128    2
    50   158   157    1
    51   220   222   ar
    52   126   125    1
    53   223   224    1
    54   130   133    1
    55   130   131    1
    56   172   174   ar
    57    68    67    1
    58   171   173   ar
    59   221   222   ar
    60   133   134    1
    61   157   160    1
    62   157   156    1
    63   224   225    1
    64   224   227    1
    65   135   134    1
    66   123   122    2
    67   174   173   ar
    68   125   122   am
    69   131   132    2
    70   160   161    1
    71    67    65   ar
    72    67    66   ar
    73   226   225    2
    74   156   147   am
    75   122   121    1
    76    65    63   ar
    77   227   228    1
    78   162   161   ar
    79   111   109   ar
    80   111   112   ar
    81   148   147    2
    82    66    64   ar
    83   147   146    1
    84   113   112    1
    85   161   163   ar
    86   119   118    1
    87   109   107   ar
    88   112   110   ar
    89   146   145    1
    90   146   149    1
    91   121   124    1
    92   121   120    1
    93   228   230   ar
    94   228   229   ar
    95   230   232   ar
    96    63    62   ar
    97    64    62   ar
    98   210   208   ar
    99   210   211   ar
   100   107   106    1
   101   107   108   ar
   102   120   116   am
   103   118   115    1
   104   110   108   ar
   105   208   206   ar
   106   204   203    2
   107   203   202    1
   108   149   150    1
   109   106   103    1
   110    62    61    1
   111   212   211    1
   112   229   231   ar
   113   232   233   ar
   114   116   115    1
   115   116   117    2
   116   211   209   ar
   117   140   139    2
   118   105   104    2
   119   115   114    1
   120   102   103    1
   121   102    96   am
   122   206   205    1
   123   206   207   ar
   124    76    74    1
   125   100    98    1
   126   103   104    1
   127   202   205    1
   128   202   201    1
   129   150   151   ar
   130   150   152   ar
   131   231   233   ar
   132    97    96    2
   133    61    58    1
   134   151   153   ar
   135    96    95    1
   136    60    59    2
   137   209   207   ar
   138   139   138    1
   139    59    58    1
   140    59    69   am
   141    58    57    1
   142   152   154   ar
   143    98    95    1
   144    98    99    1
   145    95    94    1
   146    74    75    1
   147    74    73    1
   148   153   155   ar
   149    70    69    1
   150    70    73    1
   151    70    71    1
   152   141   138    1
   153   141   142    1
   154   138   137    1
   155    72    71    2
   156    71    77   am
   157   101    99    1
   158   154   155   ar
   159    57    55   am
   160   143   142    1
   161   142   144    1
   162    79    80    2
   163    79    78    1
   164   260   261    1
   165   260   259    1
   166    56    55    2
   167    77    78    1
   168    55    54    1
   169   240   242   ar
   170   240   239   ar
   171   242   243   ar
   172   237   236    2
   173    37    35    1
   174    78    81    1
   175   239   238    1
   176   239   241   ar
   177   257   256    2
   178    54    53    1
   179   259   258    1
   180   258   255    1
   181   238   235    1
   182    34    35    2
   183    34    33    1
   184    35    36    1
   185   243   241   ar
   186   243   245   ar
   187   236   235    1
   188   236   248   am
   189    81    82    1
   190   241   244   ar
   191   245   247   ar
   192    53    51   am
   193    21    19   ar
   194    21    22   ar
   195    91    90    2
   196   256   255    1
   197   235   234    1
   198    33    32    1
   199   248   249    1
   200   255   254    1
   201    90    89    1
   202    24    22   ar
   203    24    26   ar
   204    19    18   ar
   205    32    31    1
   206    22    20   ar
   207    82    84   ar
   208    82    83   ar
   209   244   246   ar
   210    51    52    2
   211    51    50    1
   212   247   246   ar
   213    84    86   ar
   214    26    25   ar
   215   253   252    1
   216    47    48   ar
   217    47    45   ar
   218    89    92    1
   219    89    88    1
   220    92    93    1
   221    18    20   ar
   222    18    17    1
   223    48    46   ar
   224    31    28    1
   225    20    23   ar
   226    83    85   ar
   227   251   250    2
   228    50    49    1
   229   249   252    1
   230   249   250    1
   231    28    29    1
   232    28    27    1
   233    86    87   ar
   234    25    23   ar
   235    17    14    1
   236    45    43   ar
   237    46    44   ar
   238    29    30    2
   239    85    87   ar
   240    16    15    2
   241    10     8   ar
   242    10    11   ar
   243    43    44   ar
   244    43    42    1
   245     8     6   ar
   246    12    11    1
   247    15    14    1
   248    11     9   ar
   249    14    13    1
   250     6     5    1
   251     6     7   ar
   252     5     2    1
   253     9     7   ar
   254    42    39    1
   255     4     3    2
   256    38    39    1
   257     2     1    1
   258     2     3    1
   259    39    40    1
   260    41    40    2
