@<TRIPOS>MOLECULE
tmp/4ay2A00.pdb
 126 126 0 0 0
SMALL
GASTEIGER

@<TRIPOS>ATOM
      1  N        -22.8890    3.4700  -12.7390 N.3     1  PRO1       -0.2102
      2  CA       -24.2040    2.8330  -12.7480 C.3     1  PRO1        0.1504
      3  C        -24.6930    2.4460  -11.3490 C.2     1  PRO1        0.2576
      4  O        -25.8280    2.7670  -10.9960 O.2     1  PRO1       -0.2718
      5  CB       -23.9810    1.5890  -13.6140 C.3     1  PRO1        0.0282
      6  CG       -22.9070    1.9960  -14.5650 C.3     1  PRO1        0.0208
      7  CD       -22.0280    2.9800  -13.8330 C.3     1  PRO1        0.0893
      8  N        -23.8460    1.7820  -10.5620 N.am    2  PHE2       -0.1963
      9  CA       -24.2140    1.3750   -9.1980 C.3     2  PHE2        0.1771
     10  C        -23.8160    2.4050   -8.1350 C.2     2  PHE2        0.2619
     11  O        -23.0510    3.3320   -8.4130 O.2     2  PHE2       -0.2715
     12  CB       -23.6040    0.0110   -8.8500 C.3     2  PHE2        0.0574
     13  CG       -23.7800   -1.0400   -9.9180 C.ar    2  PHE2       -0.0200
     14  CD1      -25.0370   -1.5660  -10.2070 C.ar    2  PHE2       -0.0042
     15  CD2      -22.6760   -1.5280  -10.6160 C.ar    2  PHE2       -0.0042
     16  CE1      -25.1900   -2.5480  -11.1810 C.ar    2  PHE2       -0.0003
     17  CE2      -22.8240   -2.5110  -11.5890 C.ar    2  PHE2       -0.0003
     18  CZ       -24.0830   -3.0210  -11.8730 C.ar    2  PHE2       -0.0000
     19  N        -24.3410    2.2240   -6.9220 N.am    3  LYS3       -0.1964
     20  CA       -24.1120    3.1300   -5.7890 C.3     3  LYS3        0.1713
     21  C        -22.6320    3.2270   -5.4030 C.2     3  LYS3        0.2458
     22  O        -21.9660    2.2020   -5.2470 O.2     3  LYS3       -0.2730
     23  CB       -24.9420    2.6840   -4.5750 C.3     3  LYS3        0.0311
     24  CG       -24.6770    3.4710   -3.2930 C.3     3  LYS3        0.0038
     25  CD       -24.7960    2.6070   -2.0440 C.3     3  LYS3        0.0206
     26  CE       -23.6620    1.5920   -1.9370 C.3     3  LYS3        0.1093
     27  NZ       -22.3070    2.2020   -1.7730 N.3     3  LYS3       -0.1314
     28  N        -22.1190    4.4610   -5.2540 N.am    4  PRO4       -0.2716
     29  CA       -20.7370    4.7620   -4.8450 C.3     4  PRO4        0.1536
     30  C        -20.2880    4.0610   -3.5650 C.2     4  PRO4        0.2598
     31  O        -21.0200    4.0660   -2.5740 O.2     4  PRO4       -0.2715
     32  CB       -20.7650    6.2750   -4.6110 C.3     4  PRO4        0.0310
     33  CG       -21.8320    6.7710   -5.5300 C.3     4  PRO4        0.0237
     34  CD       -22.8620    5.6790   -5.6270 C.3     4  PRO4        0.0939
     35  N        -19.1000    3.4570   -3.6100 N.am    5  ARG5       -0.1978
     36  CA       -18.4170    2.9500   -2.4220 C.3     5  ARG5        0.1597
     37  C        -17.8800    4.1410   -1.6610 C.2     5  ARG5        0.2287
     38  O        -17.6180    5.1870   -2.2590 O.2     5  ARG5       -0.2864
     39  CB       -17.2500    2.0370   -2.8140 C.3     5  ARG5        0.0334
     40  CG       -17.6510    0.5860   -3.0010 C.3     5  ARG5        0.0492
     41  CD       -16.6940   -0.1480   -3.9190 C.3     5  ARG5        0.2205
     42  NE       -17.2330   -1.4250   -4.3870 N.pl3   5  ARG5       -0.0865
     43  CZ       -16.8310   -2.0410   -5.4950 C.cat   5  ARG5        0.5346
     44  NH1      -15.8870   -1.4940   -6.2650 N.pl3   5  ARG5        0.1354
     45  NH2      -17.3830   -3.1980   -5.8370 N.pl3   5  ARG5        0.1354
     46  N        -14.7210    5.7320   -2.9230 N.3     8  GLN8       -0.1245
     47  CA       -14.9120    6.5040   -4.1600 C.3     8  GLN8        0.1566
     48  C        -15.3330    7.9200   -3.8160 C.2     8  GLN8        0.2260
     49  O        -14.8620    8.8830   -4.4260 O.2     8  GLN8       -0.2867
     50  CB       -15.9410    5.8540   -5.0710 C.3     8  GLN8        0.0367
     51  CG       -15.4590    4.5670   -5.7140 C.3     8  GLN8        0.0905
     52  CD       -16.5850    3.7770   -6.3500 C.2     8  GLN8        0.2608
     53  OE1      -17.5320    3.3900   -5.6850 O.2     8  GLN8       -0.2717
     54  NE2      -16.4820    3.5410   -7.6410 N.am    8  GLN8       -0.0878
     55  N         -5.6770    1.3620   -6.8880 N.3    26  PRO26      -0.2102
     56  CA        -5.4420    0.0710   -7.5460 C.3    26  PRO26       0.1504
     57  C         -6.3630   -0.1980   -8.7310 C.2    26  PRO26       0.2576
     58  O         -7.4890    0.2640   -8.7380 O.2    26  PRO26      -0.2718
     59  CB        -5.7130   -0.9550   -6.4370 C.3    26  PRO26       0.0282
     60  CG        -6.3660   -0.1960   -5.3330 C.3    26  PRO26       0.0208
     61  CD        -5.8640    1.2030   -5.4380 C.3    26  PRO26       0.0893
     62  N         -5.8720   -0.9490   -9.7120 N.am   27  THR27      -0.1939
     63  CA        -6.6250   -1.3290  -10.8980 C.3    27  THR27       0.2028
     64  C         -7.9340   -2.0390  -10.5570 C.2    27  THR27       0.2643
     65  O         -7.9560   -2.9670   -9.7400 O.2    27  THR27      -0.2714
     66  CB        -5.7610   -2.2470  -11.7800 C.3    27  THR27       0.1808
     67  OG1       -4.6190   -1.5090  -12.2330 O.3    27  THR27      -0.2208
     68  CG2       -6.5450   -2.7810  -12.9860 C.3    27  THR27       0.0379
     69  N         -9.0200   -1.5840  -11.1810 N.am   28  GLY28      -0.1939
     70  CA       -10.3310   -2.2110  -11.0340 C.3    28  GLY28       0.2014
     71  C        -11.0670   -1.8330   -9.7650 C.2    28  GLY28       0.2639
     72  O        -12.0450   -2.4650   -9.4060 O.2    28  GLY28      -0.2714
     73  N        -10.6050   -0.7920   -9.0870 N.am   29  CYS29      -0.1953
     74  CA       -11.2430   -0.3630   -7.8570 C.3    29  CYS29       0.1843
     75  C        -12.2910    0.7160   -8.1510 C.2    29  CYS29       0.2626
     76  O        -13.0560    1.1010   -7.2600 O.2    29  CYS29      -0.2714
     77  CB       -10.2010    0.1290   -6.8370 C.3    29  CYS29       0.0997
     78  SG        -9.6250    1.8290   -7.0830 S.3    29  CYS29      -0.0797
     79  N        -12.2920    1.2160   -9.3870 N.am   30  GLY30      -0.1940
     80  CA       -13.3580    2.0840   -9.8680 C.3    30  GLY30       0.2014
     81  C        -13.0320    3.5600   -9.9990 C.2    30  GLY30       0.2639
     82  O        -13.8460    4.4100   -9.6190 O.2    30  GLY30      -0.2714
     83  N        -11.8610    3.8830  -10.5400 N.am   31  LYS31      -0.1963
     84  CA       -11.4620    5.2850  -10.6700 C.3    31  LYS31       0.1728
     85  C        -12.2670    5.9780  -11.7510 C.2    31  LYS31       0.2617
     86  O        -12.4680    7.1900  -11.6980 O.2    31  LYS31      -0.2715
     87  CB        -9.9720    5.4230  -10.9740 C.3    31  LYS31       0.0311
     88  CG        -9.0860    5.1610   -9.7830 C.3    31  LYS31       0.0038
     89  CD        -8.1370    4.0170  -10.0900 C.3    31  LYS31       0.0206
     90  CE        -7.3050    4.2530  -11.3360 C.3    31  LYS31       0.1093
     91  NZ        -6.7100    2.9540  -11.7470 N.3    31  LYS31      -0.1314
     92  N        -12.7220    5.2170  -12.7380 N.am   32  THR32      -0.1937
     93  CA       -13.4820    5.8100  -13.8290 C.3    32  THR32       0.2028
     94  C        -14.8090    6.3150  -13.3030 C.2    32  THR32       0.2642
     95  O        -15.2670    7.3760  -13.7080 O.2    32  THR32      -0.2714
     96  CB       -13.6860    4.8360  -14.9940 C.3    32  THR32       0.1808
     97  OG1      -14.1790    3.5880  -14.4930 O.3    32  THR32      -0.2208
     98  CG2      -12.3570    4.6180  -15.7250 C.3    32  THR32       0.0379
     99  N        -15.4090    5.5710  -12.3750 N.am   33  PHE33      -0.1973
    100  CA       -16.6060    6.0510  -11.7030 C.3    33  PHE33       0.1639
    101  C        -16.3510    7.3500  -10.9180 C.2    33  PHE33       0.2290
    102  O        -17.1920    8.2540  -10.8910 O.2    33  PHE33      -0.2864
    103  CB       -17.1950    4.9850  -10.7870 C.3    33  PHE33       0.0560
    104  CG       -18.4870    5.4090  -10.1510 C.ar   33  PHE33      -0.0200
    105  CD1      -19.6590    5.4310  -10.8930 C.ar   33  PHE33      -0.0042
    106  CD2      -18.5240    5.8300   -8.8300 C.ar   33  PHE33      -0.0042
    107  CE1      -20.8530    5.8410  -10.3260 C.ar   33  PHE33      -0.0003
    108  CE2      -19.7130    6.2490   -8.2610 C.ar   33  PHE33      -0.0003
    109  CZ       -20.8770    6.2500   -9.0080 C.ar   33  PHE33      -0.0000
    110  N        -14.5930    2.4190  -24.7210 N.3    66  GLN66      -0.1245
    111  CA       -15.2790    2.0690  -23.4810 C.3    66  GLN66       0.1566
    112  C        -15.7730    3.3190  -22.7500 C.2    66  GLN66       0.2260
    113  O        -16.9230    3.3760  -22.3190 O.2    66  GLN66      -0.2867
    114  CB       -14.4080    1.1740  -22.5770 C.3    66  GLN66       0.0367
    115  CG       -14.2430    1.6640  -21.1380 C.3    66  GLN66       0.0905
    116  CD       -14.6270    0.6390  -20.0780 C.2    66  GLN66       0.2608
    117  OE1      -15.2190   -0.3970  -20.3780 O.2    66  GLN66      -0.2717
    118  NE2      -14.3040    0.9430  -18.8140 N.am   66  GLN66      -0.0878
    119  N         -6.4310    9.8120  -18.1710 N.3   133  ASP133     -0.1239
    120  CA        -6.3690    8.3890  -17.8140 C.3   133  ASP133      0.1674
    121  C         -4.9510    7.8330  -18.0140 C.2   133  ASP133      0.2266
    122  O         -4.2640    8.2370  -18.9510 O.2   133  ASP133     -0.2867
    123  CB        -7.3600    7.5700  -18.6470 C.3   133  ASP133      0.1410
    124  CG        -7.5620    6.1730  -18.0910 C.2   133  ASP133      0.3668
    125  OD1       -7.4120    6.0110  -16.8590 O.co2 133  ASP133     -0.2456
    126  OD2       -7.8650    5.2360  -18.8680 O.co2 133  ASP133     -0.2456
@<TRIPOS>BOND
     1   110   111    1
     2   111   112    1
     3   111   114    1
     4   112   113    2
     5   114   115    1
     6   115   116    1
     7   117   116    2
     8   116   118   am
     9   122   121    2
    10   126   124   ar
    11   123   124    1
    12   123   120    1
    13   119   120    1
    14   124   125   ar
    15   121   120    1
    16    98    96    1
    17    96    97    1
    18    96    93    1
    19     6     7    1
    20     6     5    1
    21     7     1    1
    22    93    94    1
    23    93    92    1
    24    95    94    2
    25     5     2    1
    26    94    99   am
    27    68    66    1
    28     2     1    1
    29     2     3    1
    30    92    85   am
    31    99   100    1
    32    67    66    1
    33    18    17   ar
    34    18    16   ar
    35    66    63    1
    36    85    86    2
    37    85    84    1
    38    91    90    1
    39   100   101    1
    40   100   103    1
    41    17    15   ar
    42     3     4    2
    43     3     8   am
    44    90    89    1
    45    16    14   ar
    46    69    70    1
    47    69    64   am
    48    70    71    1
    49    87    84    1
    50    87    88    1
    51   101   102    2
    52    63    64    1
    53    63    62    1
    54   105   107   ar
    55   105   104   ar
    56   103   104    1
    57    84    83    1
    58    15    13   ar
    59     8     9    1
    60    64    65    2
    61    83    81   am
    62   107   109   ar
    63    14    13   ar
    64   104   106   ar
    65    89    88    1
    66    81    80    1
    67    81    82    2
    68    13    12    1
    69    80    79    1
    70    71    72    2
    71    71    73   am
    72    62    57   am
    73    79    75   am
    74     9    12    1
    75     9    10    1
    76    73    74    1
    77   109   108   ar
    78   106   108   ar
    79    58    57    2
    80    57    56    1
    81    11    10    2
    82    75    74    1
    83    75    76    2
    84    10    19   am
    85    74    77    1
    86    54    52   am
    87    56    55    1
    88    56    59    1
    89    78    77    1
    90    19    20    1
    91    55    61    1
    92    59    60    1
    93    52    51    1
    94    52    53    2
    95    44    43    1
    96    45    43    1
    97    20    21    1
    98    20    23    1
    99    51    50    1
   100    34    33    1
   101    34    28    1
   102    33    32    1
   103    43    42    2
   104    61    60    1
   105    21    28   am
   106    21    22    2
   107    28    29    1
   108    50    47    1
   109    29    32    1
   110    29    30    1
   111    23    24    1
   112    49    48    2
   113    42    41    1
   114    47    48    1
   115    47    46    1
   116    41    40    1
   117    35    30   am
   118    35    36    1
   119    30    31    2
   120    24    25    1
   121    40    39    1
   122    39    36    1
   123    36    37    1
   124    38    37    2
   125    25    26    1
   126    26    27    1
