@<TRIPOS>MOLECULE
tmp/4ay8A00.pdb
 94 87 0 0 0
SMALL
GASTEIGER

@<TRIPOS>ATOM
      1  N        -36.7550   77.5900    2.9560 N.3    28  THR28      -0.1203
      2  CA       -35.7680   76.6960    3.5430 C.3    28  THR28       0.1994
      3  C        -36.3880   75.3090    3.7050 C.2    28  THR28       0.2617
      4  O        -37.5850   75.1170    3.4390 O.2    28  THR28      -0.2717
      5  CB       -35.2750   77.2450    4.8960 C.3    28  THR28       0.1784
      6  OG1      -36.4010   77.5580    5.7220 O.3    28  THR28      -0.2211
      7  CG2      -34.4260   78.5200    4.6910 C.3    28  THR28       0.0376
      8  N        -35.5800   74.3420    4.1310 N.am   29  GLN29      -0.1979
      9  CA       -36.0020   72.9450    4.1100 C.3    29  GLN29       0.1601
     10  C        -37.2840   72.7220    4.9010 C.2    29  GLN29       0.2287
     11  O        -37.4730   73.2950    5.9830 O.2    29  GLN29      -0.2864
     12  CB       -34.8610   72.0200    4.5710 C.3    29  GLN29       0.0394
     13  CG       -34.8660   71.6120    6.0350 C.3    29  GLN29       0.0908
     14  CD       -35.8040   70.4560    6.2940 C.2    29  GLN29       0.2608
     15  OE1      -36.0850   69.6670    5.3920 O.2    29  GLN29      -0.2717
     16  NE2      -36.3120   70.3580    7.5190 N.am   29  GLN29      -0.0878
     17  N        -41.1330   73.1730   -1.3940 N.3    68  ARG68      -0.1245
     18  CA       -39.6970   73.3850   -1.3580 C.3    68  ARG68       0.1563
     19  C        -38.9680   72.0410   -1.2810 C.2    68  ARG68       0.2260
     20  O        -39.3380   71.1840   -0.4810 O.2    68  ARG68      -0.2867
     21  CB       -39.3480   74.2330   -0.1380 C.3    68  ARG68       0.0307
     22  CG       -38.0450   75.0040   -0.2120 C.3    68  ARG68       0.0489
     23  CD       -36.8350   74.1420    0.1060 C.3    68  ARG68       0.2205
     24  NE       -35.6230   74.9100    0.4110 N.pl3  68  ARG68      -0.0865
     25  CZ       -34.4740   74.3330    0.7690 C.cat  68  ARG68       0.5346
     26  NH1      -34.4180   73.0160    0.8780 N.pl3  68  ARG68       0.1354
     27  NH2      -33.3880   75.0450    1.0330 N.pl3  68  ARG68       0.1354
     28  N        -33.8440   68.5850    0.8320 N.3    71  TYR71      -0.1241
     29  CA       -33.8610   68.6750    2.3120 C.3    71  TYR71       0.1605
     30  C        -32.4930   68.9320    2.9600 C.2    71  TYR71       0.2264
     31  O        -32.3420   68.7980    4.1680 O.2    71  TYR71      -0.2867
     32  CB       -34.4780   67.3930    2.9000 C.3    71  TYR71       0.0534
     33  CG       -35.8120   67.0970    2.2710 C.ar   71  TYR71      -0.0201
     34  CD1      -36.8950   67.9050    2.5420 C.ar   71  TYR71      -0.0009
     35  CD2      -35.9720   66.0620    1.3580 C.ar   71  TYR71      -0.0009
     36  CE1      -38.0900   67.6950    1.9640 C.ar   71  TYR71       0.0417
     37  CE2      -37.1950   65.8440    0.7490 C.ar   71  TYR71       0.0417
     38  CZ       -38.2540   66.6800    1.0630 C.ar   71  TYR71       0.1957
     39  OH       -39.4930   66.5260    0.5000 O.3    71  TYR71      -0.2866
     40  N        -28.0570   70.5470    2.2450 N.3    72  LEU72      -0.1245
     41  CA       -27.1160   71.4220    1.5350 C.3    72  LEU72       0.1561
     42  C        -25.9490   70.6440    0.9340 C.2    72  LEU72       0.2260
     43  O        -24.8070   71.1210    0.9570 O.2    72  LEU72      -0.2867
     44  CB       -26.5770   72.4940    2.4950 C.3    72  LEU72       0.0270
     45  CG       -27.6420   73.4840    2.9840 C.3    72  LEU72       0.0019
     46  CD1      -27.0500   74.5990    3.8390 C.3    72  LEU72       0.0001
     47  CD2      -28.4120   74.0550    1.7770 C.3    72  LEU72       0.0001
     48  N        -30.1240   65.8560    9.1610 N.3    89  GLN89      -0.1245
     49  CA       -29.8310   66.1360    7.7690 C.3    89  GLN89       0.1566
     50  C        -28.4880   65.5610    7.3580 C.2    89  GLN89       0.2260
     51  O        -27.5620   65.4730    8.1590 O.2    89  GLN89      -0.2867
     52  CB       -29.7440   67.6450    7.5100 C.3    89  GLN89       0.0367
     53  CG       -31.0280   68.4170    7.3320 C.3    89  GLN89       0.0905
     54  CD       -30.7180   69.8920    7.0400 C.2    89  GLN89       0.2608
     55  OE1      -29.8910   70.4980    7.7190 O.2    89  GLN89      -0.2717
     56  NE2      -31.3330   70.4460    6.0020 N.am   89  GLN89      -0.0878
     57  N        -29.0110   78.7750    0.0230 N.3   193  ALA193     -0.1245
     58  CA       -28.6540   78.9100    1.4200 C.3   193  ALA193      0.1562
     59  C        -27.1340   78.9110    1.5000 C.2   193  ALA193      0.2260
     60  O        -26.4720   77.9250    1.1460 O.2   193  ALA193     -0.2867
     61  CB       -29.2390   77.7670    2.2350 C.3   193  ALA193      0.0290
     62  N        -24.7390   79.5450    4.3470 N.3   195  PRO195     -0.2116
     63  CA       -24.3950   79.8310    5.7460 C.3   195  PRO195      0.1372
     64  C        -22.9450   80.2720    5.9590 C.2   195  PRO195      0.2244
     65  O        -22.6520   81.0140    6.8990 O.2   195  PRO195     -0.2868
     66  CB       -24.6580   78.5030    6.4620 C.3   195  PRO195      0.0268
     67  CG       -24.6700   77.4610    5.3820 C.3   195  PRO195      0.0207
     68  CD       -25.1490   78.1450    4.1440 C.3   195  PRO195      0.0892
     69  N        -30.5480   83.2200    1.1540 N.3   228  HIS228     -0.1241
     70  CA       -30.6560   82.9520    2.5790 C.3   228  HIS228      0.1621
     71  C        -29.2840   82.9090    3.2260 C.2   228  HIS228      0.2264
     72  O        -28.4310   82.1290    2.8220 O.2   228  HIS228     -0.2867
     73  CB       -31.3390   81.5970    2.8180 C.3   228  HIS228      0.0745
     74  CG       -31.3160   81.1680    4.2460 C.ar  228  HIS228      0.0817
     75  ND1      -32.1540   81.7080    5.1980 N.ar  228  HIS228     -0.2268
     76  CD2      -30.5180   80.2900    4.8990 C.ar  228  HIS228      0.1154
     77  CE1      -31.8790   81.1680    6.3730 C.ar  228  HIS228      0.1986
     78  NE2      -30.8920   80.3080    6.2170 N.ar  228  HIS228     -0.2212
     79  N        -27.9220   82.7580    7.2940 N.3   230  CYS230     -0.1235
     80  CA       -28.3220   82.7560    8.6810 C.3   230  CYS230      0.1677
     81  C        -27.3130   83.5010    9.5620 C.2   230  CYS230      0.2270
     82  O        -26.2980   84.0100    9.0790 O.2   230  CYS230     -0.2867
     83  CB       -28.6270   81.3150    9.1810 C.3   230  CYS230      0.0956
     84  SG       -27.8210   79.9390    8.3180 S.3   230  CYS230     -0.0801
     85  N        -34.7760   79.8900    9.3350 N.3   306  CYS306     -0.1221
     86  CA       -33.8160   78.9370    8.7640 C.3   306  CYS306      0.1808
     87  C        -34.6040   77.6790    8.3850 C.2   306  CYS306      0.2601
     88  O        -35.8400   77.7180    8.2820 O.2   306  CYS306     -0.2717
     89  CB       -32.6970   78.6270    9.7800 C.3   306  CYS306      0.0970
     90  SG       -31.2120   77.8080    9.1180 S.3   306  CYS306     -0.0800
     91  N        -33.9020   76.5810    8.1440 N.am  307  GLY307     -0.1957
     92  CA       -34.5430   75.2910    7.9190 C.3   307  GLY307      0.1869
     93  C        -35.5110   74.9700    9.0460 C.2   307  GLY307      0.2309
     94  O        -35.2420   75.2630   10.1990 O.2   307  GLY307     -0.2863
@<TRIPOS>BOND
     1    17    18    1
     2    18    19    1
     3    18    21    1
     4    19    20    2
     5    22    21    1
     6    22    23    1
     7    57    58    1
     8    23    24    1
     9    24    25    2
    10    39    38    1
    11    37    38   ar
    12    37    35   ar
    13    25    26    1
    14    25    27    1
    15    28    29    1
    16    42    43    2
    17    42    41    1
    18    38    36   ar
    19    60    59    2
    20    69    70    1
    21    35    33   ar
    22    58    59    1
    23    58    61    1
    24    41    40    1
    25    41    44    1
    26    47    45    1
    27    36    34   ar
    28    33    34   ar
    29    33    32    1
    30    29    32    1
    31    29    30    1
    32    44    45    1
    33    70    73    1
    34    70    71    1
    35    73    74    1
    36    72    71    2
    37     1     2    1
    38    30    31    2
    39    45    46    1
    40     4     3    2
    41     2     3    1
    42     2     5    1
    43     3     8   am
    44     9     8    1
    45     9    12    1
    46     9    10    1
    47    68    62    1
    48    68    67    1
    49    74    76   ar
    50    74    75   ar
    51    62    63    1
    52    12    13    1
    53     7     5    1
    54     5     6    1
    55    76    78   ar
    56    10    11    2
    57    75    77   ar
    58    67    66    1
    59    15    14    2
    60    63    64    1
    61    63    66    1
    62    64    65    2
    63    56    54   am
    64    13    14    1
    65    78    77   ar
    66    14    16   am
    67    54    53    1
    68    54    55    2
    69    79    80    1
    70    53    52    1
    71    50    49    1
    72    50    51    2
    73    52    49    1
    74    49    48    1
    75    92    91    1
    76    92    93    1
    77    91    87   am
    78    88    87    2
    79    84    83    1
    80    87    86    1
    81    80    83    1
    82    80    81    1
    83    86    85    1
    84    86    89    1
    85    93    94    2
    86    82    81    2
    87    90    89    1
