@<TRIPOS>MOLECULE
tmp/4aycA00.pdb
 126 121 0 0 0
SMALL
GASTEIGER

@<TRIPOS>ATOM
      1  N         13.3400   16.7200   31.8650 N.3    58  ILE58      -0.1231
      2  CA        14.7090   16.3750   31.4720 C.3    58  ILE58       0.1692
      3  C         15.4760   17.6090   30.9820 C.2    58  ILE58       0.2592
      4  O         16.6070   17.8580   31.3980 O.2    58  ILE58      -0.2718
      5  CB        14.7220   15.2560   30.4130 C.3    58  ILE58       0.0266
      6  CG1       14.2960   13.9100   31.0510 C.3    58  ILE58       0.0019
      7  CG2       16.1120   15.0890   29.8050 C.3    58  ILE58       0.0020
      8  CD1       13.7930   12.9130   30.0360 C.3    58  ILE58       0.0001
      9  N         14.8550   18.4020   30.1110 N.am   59  CYS59      -0.1970
     10  CA        15.5540   19.5240   29.4800 C.3    59  CYS59       0.1712
     11  C         15.1130   20.8820   30.0080 C.2    59  CYS59       0.2296
     12  O         15.7560   21.8940   29.7170 O.2    59  CYS59      -0.2864
     13  CB        15.3400   19.4650   27.9630 C.3    59  CYS59       0.0983
     14  SG        13.6290   19.7270   27.4300 S.3    59  CYS59      -0.0798
     15  N         12.4620   13.7730   21.8820 N.3    78  TYR78      -0.1227
     16  CA        13.9080   13.6730   21.8130 C.3    78  TYR78       0.1736
     17  C         14.5030   13.2190   23.1300 C.2    78  TYR78       0.2595
     18  O         15.3450   12.3290   23.1690 O.2    78  TYR78      -0.2718
     19  CB        14.5030   15.0080   21.4040 C.3    78  TYR78       0.0548
     20  CG        16.0040   15.0170   21.3090 C.ar   78  TYR78      -0.0200
     21  CD1       16.6410   14.6990   20.1170 C.ar   78  TYR78      -0.0009
     22  CD2       16.7840   15.3470   22.4060 C.ar   78  TYR78      -0.0009
     23  CE1       18.0210   14.7240   20.0150 C.ar   78  TYR78       0.0417
     24  CE2       18.1680   15.3650   22.3150 C.ar   78  TYR78       0.0417
     25  CZ        18.7770   15.0470   21.1170 C.ar   78  TYR78       0.1957
     26  OH        20.1500   15.0810   21.0190 O.3    78  TYR78      -0.2866
     27  N         14.0450   13.8190   24.2080 N.am   79  CYS79      -0.1970
     28  CA        14.5880   13.5570   25.5350 C.3    79  CYS79       0.1712
     29  C         14.3370   12.1350   26.0060 C.2    79  CYS79       0.2296
     30  O         15.2520   11.4470   26.4820 O.2    79  CYS79      -0.2864
     31  CB        13.9930   14.5540   26.5300 C.3    79  CYS79       0.0983
     32  SG        14.4330   16.2720   26.1420 S.3    79  CYS79      -0.0798
     33  N         16.4390    9.6570   23.9140 N.3    82  GLU82      -0.1231
     34  CA        17.8280    9.6170   24.4020 C.3    82  GLU82       0.1699
     35  C         17.9310    8.8340   25.7190 C.2    82  GLU82       0.2592
     36  O         18.8140    7.9860   25.8830 O.2    82  GLU82      -0.2718
     37  CB        18.3860   11.0440   24.5780 C.3    82  GLU82       0.0402
     38  CG        19.8710   11.1150   24.9160 C.3    82  GLU82       0.1161
     39  CD        20.3970   12.5440   24.9720 C.2    82  GLU82       0.3649
     40  OE1       19.9740   13.3240   25.8590 O.co2  82  GLU82      -0.2457
     41  OE2       21.2250   12.8920   24.1130 O.co2  82  GLU82      -0.2457
     42  N         17.0340    9.1250   26.6600 N.am   83  TRP83      -0.1976
     43  CA        16.9830    8.4040   27.9380 C.3    83  TRP83       0.1640
     44  C         16.9100    6.8710   27.7290 C.2    83  TRP83       0.2290
     45  O         17.6010    6.0950   28.4040 O.2    83  TRP83      -0.2864
     46  CB        15.7450    8.8690   28.7290 C.3    83  TRP83       0.0576
     47  CG        15.6100    8.2610   30.0930 C.ar   83  TRP83       0.0006
     48  CD1       14.9280    7.1130   30.4130 C.ar   83  TRP83       0.0946
     49  CD2       16.1480    8.7590   31.3290 C.ar   83  TRP83       0.0152
     50  NE1       15.0000    6.8870   31.7560 N.ar   83  TRP83      -0.2442
     51  CE2       15.7480    7.8630   32.3460 C.ar   83  TRP83       0.0810
     52  CE3       16.9040    9.8830   31.6800 C.ar   83  TRP83       0.0012
     53  CZ2       16.0900    8.0460   33.6840 C.ar   83  TRP83       0.0191
     54  CZ3       17.2450   10.0630   33.0150 C.ar   83  TRP83       0.0001
     55  CH2       16.8330    9.1470   33.9970 C.ar   83  TRP83       0.0015
     56  N         17.9490    5.0310   25.4350 N.3    85  LYS85      -0.1231
     57  CA        19.2070    4.4090   24.9910 C.3    85  LYS85       0.1693
     58  C         19.9970    3.8470   26.1830 C.2    85  LYS85       0.2592
     59  O         20.8620    3.0160   26.0070 O.2    85  LYS85      -0.2718
     60  CB        20.0110    5.4080   24.1430 C.3    85  LYS85       0.0285
     61  CG        19.3160    5.6740   22.8130 C.3    85  LYS85       0.0035
     62  CD        19.9840    6.7280   21.9580 C.3    85  LYS85       0.0206
     63  CE        19.1220    7.0640   20.7500 C.3    85  LYS85       0.1093
     64  NZ        19.7800    8.0640   19.8670 N.3    85  LYS85      -0.1314
     65  N         19.6530    4.2680   27.3960 N.am   86  ARG86      -0.1966
     66  CA        20.2960    3.7770   28.6100 C.3    86  ARG86       0.1729
     67  C         19.3790    3.0510   29.5790 C.2    86  ARG86       0.2616
     68  O         19.8210    2.1050   30.2380 O.2    86  ARG86      -0.2715
     69  CB        20.9680    4.9410   29.3610 C.3    86  ARG86       0.0348
     70  CG        22.3960    5.2330   28.9090 C.3    86  ARG86       0.0492
     71  CD        23.0660    6.3270   29.7430 C.3    86  ARG86       0.2205
     72  NE        22.2180    7.5130   29.8620 N.pl3  86  ARG86      -0.0865
     73  CZ        21.5810    7.9170   30.9650 C.cat  86  ARG86       0.5346
     74  NH1       21.6810    7.2560   32.1170 N.pl3  86  ARG86       0.1354
     75  NH2       20.8380    9.0180   30.9160 N.pl3  86  ARG86       0.1354
     76  N         18.1360    3.5110   29.7160 N.am   87  LYS87      -0.1977
     77  CA        17.1970    2.8950   30.6570 C.3    87  LYS87       0.1596
     78  C         15.7880    2.8140   30.0540 C.2    87  LYS87       0.2287
     79  O         15.2980    3.7870   29.4950 O.2    87  LYS87      -0.2864
     80  CB        17.1650    3.6900   31.9690 C.3    87  LYS87       0.0298
     81  CG        18.5390    4.0190   32.5290 C.3    87  LYS87       0.0038
     82  CD        18.4910    4.5560   33.9530 C.3    87  LYS87       0.0206
     83  CE        19.8550    4.4190   34.6210 C.3    87  LYS87       0.1093
     84  NZ        19.8390    4.8320   36.0480 N.3    87  LYS87      -0.1314
     85  N         12.9180    2.8390   31.4820 N.3    89  GLU89      -0.1245
     86  CA        12.0920    3.1640   32.6340 C.3    89  GLU89       0.1567
     87  C         11.8170    4.6520   32.6890 C.2    89  GLU89       0.2260
     88  O         12.6320    5.4790   32.2230 O.2    89  GLU89      -0.2867
     89  CB        12.7360    2.6940   33.9450 C.3    89  GLU89       0.0388
     90  CG        14.0000    3.4140   34.3470 C.3    89  GLU89       0.1160
     91  CD        14.6030    2.8730   35.6390 C.2    89  GLU89       0.3649
     92  OE1       14.5420    1.6490   35.8840 O.co2  89  GLU89      -0.2457
     93  OE2       15.1420    3.6820   36.4150 O.co2  89  GLU89      -0.2457
     94  N         10.0860    5.6680   37.4210 N.3    94  ARG94      -0.1245
     95  CA        10.9220    4.4810   37.2640 C.3    94  ARG94       0.1563
     96  C         10.1600    3.1950   36.9490 C.2    94  ARG94       0.2260
     97  O         10.7240    2.1030   36.9910 O.2    94  ARG94      -0.2867
     98  CB        11.8310    4.2970   38.4810 C.3    94  ARG94       0.0307
     99  CG        12.7460    5.4850   38.6990 C.3    94  ARG94       0.0489
    100  CD        13.8710    5.1930   39.6750 C.3    94  ARG94       0.2205
    101  NE        13.4480    4.3090   40.7550 N.pl3  94  ARG94      -0.0865
    102  CZ        12.6340    4.6470   41.7560 C.cat  94  ARG94       0.5346
    103  NH1       12.1200    5.8730   41.8440 N.pl3  94  ARG94       0.1354
    104  NH2       12.3280    3.7400   42.6810 N.pl3  94  ARG94       0.1354
    105  N         17.3690   19.6220   17.3450 N.3   132  ARG132     -0.1245
    106  CA        16.9650   18.2410   17.6310 C.3   132  ARG132      0.1563
    107  C         16.7090   17.4110   16.3870 C.2   132  ARG132      0.2260
    108  O         16.9700   16.2150   16.3870 O.2   132  ARG132     -0.2867
    109  CB        15.7520   18.2570   18.5470 C.3   132  ARG132      0.0307
    110  CG        16.1570   18.6790   19.9450 C.3   132  ARG132      0.0489
    111  CD        14.9670   18.7240   20.8470 C.3   132  ARG132      0.2205
    112  NE        15.3160   19.1910   22.1850 N.pl3 132  ARG132     -0.0865
    113  CZ        14.4900   19.1310   23.2230 C.cat 132  ARG132      0.5346
    114  NH1       13.2810   18.5720   23.0750 N.pl3 132  ARG132      0.1354
    115  NH2       14.8760   19.5810   24.4140 N.pl3 132  ARG132      0.1354
    116  N         23.1410   13.7100   13.1280 N.3   136  ARG136     -0.1245
    117  CA        24.3310   13.5180   13.9600 C.3   136  ARG136      0.1563
    118  C         24.7560   12.0500   13.9930 C.2   136  ARG136      0.2260
    119  O         24.4440   11.3140   14.9310 O.2   136  ARG136     -0.2867
    120  CB        24.0690   14.0380   15.3770 C.3   136  ARG136      0.0307
    121  CG        25.3130   14.1240   16.2460 C.3   136  ARG136      0.0489
    122  CD        25.1020   15.0520   17.4360 C.3   136  ARG136      0.2205
    123  NE        26.3480   15.6830   17.8750 N.pl3 136  ARG136     -0.0865
    124  CZ        26.9760   16.6770   17.2430 C.cat 136  ARG136      0.5346
    125  NH1       26.5010   17.1840   16.1070 N.pl3 136  ARG136      0.1354
    126  NH2       28.1040   17.1650   17.7450 N.pl3 136  ARG136      0.1354
@<TRIPOS>BOND
     1   116   117    1
     2   117   118    1
     3   117   120    1
     4   118   119    2
     5   120   121    1
     6   125   124    1
     7   121   122    1
     8   107   108    2
     9   107   106    1
    10   124   126    1
    11   124   123    2
    12   105   106    1
    13   122   123    1
    14   106   109    1
    15   109   110    1
    16    64    63    1
    17   110   111    1
    18    23    21   ar
    19    23    25   ar
    20    21    20   ar
    21    63    62    1
    22   111   112    1
    23    26    25    1
    24    25    24   ar
    25    20    19    1
    26    20    22   ar
    27    19    16    1
    28    16    15    1
    29    16    17    1
    30    62    61    1
    31   112   113    2
    32    24    22   ar
    33    61    60    1
    34   114   113    1
    35    17    18    2
    36    17    27   am
    37   113   115    1
    38    33    34    1
    39    41    39   ar
    40    60    57    1
    41    27    28    1
    42    34    37    1
    43    34    35    1
    44    37    38    1
    45    38    39    1
    46    39    40   ar
    47    57    56    1
    48    57    58    1
    49    28    29    1
    50    28    31    1
    51    35    36    2
    52    35    42   am
    53    29    30    2
    54    59    58    2
    55    32    31    1
    56    58    65   am
    57    42    43    1
    58    65    66    1
    59    14    13    1
    60    44    43    1
    61    44    45    2
    62    43    46    1
    63    13    10    1
    64    66    69    1
    65    66    67    1
    66    46    47    1
    67    70    69    1
    68    70    71    1
    69    10    11    1
    70    10     9    1
    71    79    78    2
    72    67    76   am
    73    67    68    2
    74    76    77    1
    75    12    11    2
    76    71    72    1
    77     7     5    1
    78    72    73    2
    79     8     6    1
    80    78    77    1
    81    47    48   ar
    82    47    49   ar
    83     9     3   am
    84    48    50   ar
    85     5     6    1
    86     5     2    1
    87    77    80    1
    88    75    73    1
    89    73    74    1
    90     3     4    2
    91     3     2    1
    92    49    52   ar
    93    49    51   ar
    94     2     1    1
    95    85    86    1
    96    52    54   ar
    97    50    51   ar
    98    80    81    1
    99    88    87    2
   100    51    53   ar
   101    81    82    1
   102    86    87    1
   103    86    89    1
   104    54    55   ar
   105    53    55   ar
   106    89    90    1
   107    82    83    1
   108    90    91    1
   109    83    84    1
   110    91    92   ar
   111    91    93   ar
   112    96    97    2
   113    96    95    1
   114    95    94    1
   115    95    98    1
   116    98    99    1
   117    99   100    1
   118   100   101    1
   119   101   102    2
   120   102   103    1
   121   102   104    1
