@<TRIPOS>MOLECULE
tmp/4ayjB01.pdb
 129 128 0 0 0
SMALL
GASTEIGER

@<TRIPOS>ATOM
      1  N         39.1470   38.2400   17.4130 N.3   122  HIS122     -0.1227
      2  CA        38.7050   37.1360   16.5890 C.3   122  HIS122      0.1737
      3  C         37.2070   37.2760   16.3880 C.2   122  HIS122      0.2438
      4  O         36.4780   37.4180   17.3700 O.2   122  HIS122     -0.2733
      5  CB        39.0120   35.8180   17.2790 C.3   122  HIS122      0.0758
      6  CG        39.1350   34.6700   16.3320 C.ar  122  HIS122      0.0818
      7  ND1       38.1090   34.2820   15.5020 N.ar  122  HIS122     -0.2268
      8  CD2       40.1740   33.8430   16.0660 C.ar  122  HIS122      0.1154
      9  CE1       38.5090   33.2590   14.7630 C.ar  122  HIS122      0.1986
     10  NE2       39.7540   32.9710   15.0880 N.ar  122  HIS122     -0.2212
     11  N         36.7340   37.2320   15.1240 N.am  123  PRO123     -0.2718
     12  CA        35.3140   37.4450   14.8430 C.3   123  PRO123      0.1535
     13  C         34.4290   36.3680   15.4740 C.2   123  PRO123      0.2599
     14  O         33.2330   36.5950   15.6770 O.2   123  PRO123     -0.2715
     15  CB        35.2500   37.3670   13.3130 C.3   123  PRO123      0.0310
     16  CG        36.3560   36.5090   12.9440 C.3   123  PRO123      0.0237
     17  CD        37.4600   36.8580   13.9010 C.3   123  PRO123      0.0939
     18  N         35.0130   35.2130   15.7830 N.am  124  GLY124     -0.1941
     19  CA        34.2700   34.1340   16.4150 C.3   124  GLY124      0.2014
     20  C         33.8750   34.3350   17.8800 C.2   124  GLY124      0.2638
     21  O         32.7490   34.0010   18.2770 O.2   124  GLY124     -0.2714
     22  N         34.8250   34.8390   18.6720 N.am  125  PHE125     -0.1973
     23  CA        34.7050   34.9810   20.1250 C.3   125  PHE125      0.1639
     24  C         34.3800   36.3680   20.7040 C.2   125  PHE125      0.2290
     25  O         34.3600   36.5380   21.9210 O.2   125  PHE125     -0.2864
     26  CB        35.9530   34.4060   20.7820 C.3   125  PHE125      0.0560
     27  CG        36.3500   33.0860   20.2100 C.ar  125  PHE125     -0.0200
     28  CD1       35.7320   31.9350   20.6230 C.ar  125  PHE125     -0.0042
     29  CD2       37.3080   33.0060   19.2250 C.ar  125  PHE125     -0.0042
     30  CE1       36.0750   30.7330   20.0880 C.ar  125  PHE125     -0.0003
     31  CE2       37.6560   31.7980   18.6820 C.ar  125  PHE125     -0.0003
     32  CZ        37.0380   30.6600   19.1110 C.ar  125  PHE125     -0.0000
     33  N         31.2630   36.4290   23.1310 N.3   128  LYS128     -0.1245
     34  CA        31.3430   35.4230   24.1770 C.3   128  LYS128      0.1561
     35  C         32.1480   35.7820   25.4220 C.2   128  LYS128      0.2260
     36  O         33.0020   36.6710   25.4050 O.2   128  LYS128     -0.2867
     37  CB        31.8790   34.1230   23.5920 C.3   128  LYS128      0.0271
     38  CG        31.1350   33.6520   22.3700 C.3   128  LYS128      0.0035
     39  CD        31.6000   32.2760   22.0100 C.3   128  LYS128      0.0206
     40  CE        31.7390   32.1290   20.5250 C.3   128  LYS128      0.1093
     41  NZ        32.3110   30.7900   20.1960 N.3   128  LYS128     -0.1314
     42  N         39.4600   29.9720   23.2760 N.3   134  THR134     -0.1218
     43  CA        40.2500   28.8320   22.8230 C.3   134  THR134      0.1862
     44  C         41.7340   28.8800   23.2150 C.2   134  THR134      0.2287
     45  O         42.5640   28.1760   22.6390 O.2   134  THR134     -0.2866
     46  CB        40.0690   28.6030   21.3410 C.3   134  THR134      0.1770
     47  OG1       38.6880   28.7690   21.0280 O.3   134  THR134     -0.2211
     48  CG2       40.4390   27.1960   20.9980 C.3   134  THR134      0.0375
     49  N         39.4570   37.3000   22.8470 N.3   153  TYR153     -0.1241
     50  CA        40.1950   36.3910   21.9770 C.3   153  TYR153      0.1605
     51  C         40.6790   37.1810   20.7520 C.2   153  TYR153      0.2264
     52  O         39.8990   37.5390   19.8560 O.2   153  TYR153     -0.2867
     53  CB        39.3750   35.1590   21.5630 C.3   153  TYR153      0.0534
     54  CG        40.2390   33.9760   21.0980 C.ar  153  TYR153     -0.0201
     55  CD1       40.9840   33.2320   22.0090 C.ar  153  TYR153     -0.0009
     56  CD2       40.3240   33.6190   19.7550 C.ar  153  TYR153     -0.0009
     57  CE1       41.7750   32.1670   21.6090 C.ar  153  TYR153      0.0417
     58  CE2       41.1160   32.5500   19.3420 C.ar  153  TYR153      0.0417
     59  CZ        41.8430   31.8220   20.2730 C.ar  153  TYR153      0.1957
     60  OH        42.6420   30.7530   19.8780 O.3   153  TYR153     -0.2866
     61  N         46.2960   26.4440   18.9270 N.3   189  TRP189     -0.1241
     62  CA        46.1320   27.3760   17.8070 C.3   189  TRP189      0.1605
     63  C         47.3930   28.0640   17.2500 C.2   189  TRP189      0.2264
     64  O         47.3160   29.0800   16.5500 O.2   189  TRP189     -0.2867
     65  CB        44.9620   28.3270   18.0100 C.3   189  TRP189      0.0550
     66  CG        43.6470   27.6330   17.8360 C.ar  189  TRP189      0.0003
     67  CD1       42.7130   27.3840   18.8060 C.ar  189  TRP189      0.0946
     68  CD2       43.1140   27.1030   16.6250 C.ar  189  TRP189      0.0152
     69  NE1       41.6330   26.7360   18.2670 N.ar  189  TRP189     -0.2442
     70  CE2       41.8530   26.5540   16.9260 C.ar  189  TRP189      0.0810
     71  CE3       43.5740   27.0390   15.3160 C.ar  189  TRP189      0.0012
     72  CZ2       41.0510   25.9480   15.9570 C.ar  189  TRP189      0.0191
     73  CZ3       42.7740   26.4410   14.3590 C.ar  189  TRP189      0.0001
     74  CH2       41.5300   25.9020   14.6840 C.ar  189  TRP189      0.0015
     75  N         48.4400   32.0660   17.1480 N.3   192  GLU192     -0.1245
     76  CA        47.2580   32.7890   17.6050 C.3   192  GLU192      0.1567
     77  C         47.1270   32.5960   19.0840 C.2   192  GLU192      0.2260
     78  O         46.8960   33.5370   19.8270 O.2   192  GLU192     -0.2867
     79  CB        46.0090   32.2540   16.9380 C.3   192  GLU192      0.0388
     80  CG        44.9310   33.2740   16.8160 C.3   192  GLU192      0.1160
     81  CD        43.6100   32.6440   16.5240 C.2   192  GLU192      0.3649
     82  OE1       43.1730   31.8270   17.3470 O.co2 192  GLU192     -0.2457
     83  OE2       43.0080   32.9570   15.4810 O.co2 192  GLU192     -0.2457
     84  N         34.7680   37.6070    8.3830 N.3   215  PRO215     -0.2116
     85  CA        34.6380   36.4320    7.5240 C.3   215  PRO215      0.1372
     86  C         33.6260   36.6430    6.4190 C.2   215  PRO215      0.2244
     87  O         32.5060   37.0250    6.7120 O.2   215  PRO215     -0.2868
     88  CB        34.1470   35.3650    8.4960 C.3   215  PRO215      0.0268
     89  CG        34.7190   35.7700    9.8070 C.3   215  PRO215      0.0207
     90  CD        34.6090   37.2620    9.8060 C.3   215  PRO215      0.0892
     91  N         29.4510   36.0980    6.2840 N.3   218  TRP218     -0.1241
     92  CA        28.9890   36.1060    7.6640 C.3   218  TRP218      0.1605
     93  C         28.0950   37.2930    7.9010 C.2   218  TRP218      0.2264
     94  O         28.2110   38.3030    7.2230 O.2   218  TRP218     -0.2867
     95  CB        30.1520   36.1680    8.6510 C.3   218  TRP218      0.0550
     96  CG        30.8520   34.8810    8.8470 C.ar  218  TRP218      0.0003
     97  CD1       30.9830   33.8780    7.9410 C.ar  218  TRP218      0.0946
     98  CD2       31.5190   34.4420   10.0320 C.ar  218  TRP218      0.0152
     99  NE1       31.6970   32.8390    8.4850 N.ar  218  TRP218     -0.2442
    100  CE2       32.0400   33.1660    9.7730 C.ar  218  TRP218      0.0810
    101  CE3       31.7310   35.0080   11.2940 C.ar  218  TRP218      0.0012
    102  CZ2       32.7560   32.4470   10.7160 C.ar  218  TRP218      0.0191
    103  CZ3       32.4460   34.2900   12.2360 C.ar  218  TRP218      0.0001
    104  CH2       32.9420   33.0270   11.9450 C.ar  218  TRP218      0.0015
    105  N         37.7020   38.6960    5.1700 N.3   228  ILE228     -0.1245
    106  CA        38.5240   37.5190    4.9180 C.3   228  ILE228      0.1561
    107  C         37.8780   36.7400    3.7890 C.2   228  ILE228      0.2260
    108  O         36.8740   36.0780    3.9870 O.2   228  ILE228     -0.2867
    109  CB        38.6210   36.5930    6.1300 C.3   228  ILE228      0.0252
    110  CG1       39.1620   37.3250    7.3490 C.3   228  ILE228      0.0019
    111  CG2       39.5410   35.4630    5.8250 C.3   228  ILE228      0.0019
    112  CD1       38.8770   36.5960    8.6610 C.3   228  ILE228      0.0001
    113  N         36.9330   33.9270    1.5810 N.3   230  ASP230     -0.1225
    114  CA        36.9800   32.4870    1.7850 C.3   230  ASP230      0.1805
    115  C         37.5450   31.8100    0.5540 C.2   230  ASP230      0.2597
    116  O         37.4700   32.3580   -0.5410 O.2   230  ASP230     -0.2718
    117  CB        35.6100   31.9170    2.1660 C.3   230  ASP230      0.1424
    118  CG        34.7280   31.6560    0.9680 C.2   230  ASP230      0.3668
    119  OD1       34.5630   32.5750    0.1300 O.co2 230  ASP230     -0.2456
    120  OD2       34.2040   30.5230    0.8820 O.co2 230  ASP230     -0.2456
    121  N         38.0940   30.6180    0.7330 N.am  231  LYS231     -0.1979
    122  CA        38.7260   29.9010   -0.3550 C.3   231  LYS231      0.1596
    123  C         37.8050   28.8550   -1.0200 C.2   231  LYS231      0.2287
    124  O         37.3640   27.9010   -0.3720 O.2   231  LYS231     -0.2864
    125  CB        39.9820   29.2870    0.2260 C.3   231  LYS231      0.0298
    126  CG        40.3620   30.0200    1.5170 C.3   231  LYS231      0.0038
    127  CD        41.4450   29.3130    2.3200 C.3   231  LYS231      0.0206
    128  CE        41.5710   29.8920    3.7360 C.3   231  LYS231      0.1093
    129  NZ        40.2370   30.0640    4.4120 N.3   231  LYS231     -0.1314
@<TRIPOS>BOND
     1   123   124    2
     2   123   122    1
     3   116   115    2
     4   122   125    1
     5   122   121    1
     6   119   118   ar
     7   125   126    1
     8   115   121   am
     9   115   114    1
    10   120   118   ar
    11   118   117    1
    12   126   127    1
    13   113   114    1
    14   114   117    1
    15   127   128    1
    16   128   129    1
    17   107   108    2
    18   107   106    1
    19   106   105    1
    20   106   109    1
    21   111   109    1
    22   109   110    1
    23    91    92    1
    24    86    87    2
    25    86    85    1
    26    94    93    2
    27   110   112    1
    28    85    84    1
    29    85    88    1
    30    92    93    1
    31    92    95    1
    32    97    99   ar
    33    97    96   ar
    34    84    90    1
    35    99   100   ar
    36    88    89    1
    37    95    96    1
    38    96    98   ar
    39   100    98   ar
    40   100   102   ar
    41    90    89    1
    42    98   101   ar
    43   102   104   ar
    44   101   103   ar
    45   104   103   ar
    46    16    15    1
    47    16    17    1
    48    15    12    1
    49    17    11    1
    50    73    74   ar
    51    73    71   ar
    52    74    72   ar
    53     9    10   ar
    54     9     7   ar
    55    12    11    1
    56    12    13    1
    57    10     8   ar
    58    11     3   am
    59    71    68   ar
    60    13    14    2
    61    13    18   am
    62    83    81   ar
    63     7     6   ar
    64    18    19    1
    65    72    70   ar
    66     8     6   ar
    67     6     5    1
    68     3     2    1
    69     3     4    2
    70    19    20    1
    71    81    80    1
    72    81    82   ar
    73    64    63    2
    74     2     5    1
    75     2     1    1
    76    68    70   ar
    77    68    66   ar
    78    80    79    1
    79    70    69   ar
    80    79    76    1
    81    75    76    1
    82    63    62    1
    83    76    77    1
    84    62    65    1
    85    62    61    1
    86    66    65    1
    87    66    67   ar
    88    20    21    2
    89    20    22   am
    90    69    67   ar
    91    22    23    1
    92    31    32   ar
    93    31    29   ar
    94    77    78    2
    95    32    30   ar
    96    29    27   ar
    97    58    56   ar
    98    58    59   ar
    99    56    54   ar
   100    52    51    2
   101    60    59    1
   102    30    28   ar
   103    23    24    1
   104    23    26    1
   105    41    40    1
   106    27    28   ar
   107    27    26    1
   108    59    57   ar
   109    40    39    1
   110    24    25    2
   111    51    50    1
   112    48    46    1
   113    47    46    1
   114    54    53    1
   115    54    55   ar
   116    46    43    1
   117    53    50    1
   118    57    55   ar
   119    50    49    1
   120    39    38    1
   121    38    37    1
   122    45    44    2
   123    43    44    1
   124    43    42    1
   125    33    34    1
   126    37    34    1
   127    34    35    1
   128    36    35    2
