@<TRIPOS>MOLECULE
tmp/4aylA00.pdb
 104 100 0 0 0
SMALL
GASTEIGER

@<TRIPOS>ATOM
      1  N        -25.8560   26.4880   16.6480 N.3    15  ILE15      -0.1231
      2  CA       -27.2240   26.4610   17.1860 C.3    15  ILE15       0.1692
      3  C        -27.6400   25.0700   17.7100 C.2    15  ILE15       0.2592
      4  O        -28.5190   24.9440   18.5700 O.2    15  ILE15      -0.2718
      5  CB       -28.2480   26.9640   16.1380 C.3    15  ILE15       0.0266
      6  CG1      -29.5920   27.2760   16.7930 C.3    15  ILE15       0.0019
      7  CG2      -28.3980   25.9640   14.9820 C.3    15  ILE15       0.0020
      8  CD1      -29.5230   28.3710   17.8360 C.3    15  ILE15       0.0001
      9  N        -26.9890   24.0270   17.2000 N.am   16  PHE16      -0.1976
     10  CA       -27.2930   22.6570   17.6070 C.3    16  PHE16       0.1639
     11  C        -26.5830   22.2310   18.8910 C.2    16  PHE16       0.2290
     12  O        -26.8950   21.1850   19.4460 O.2    16  PHE16      -0.2864
     13  CB       -26.9040   21.6770   16.4940 C.3    16  PHE16       0.0560
     14  CG       -27.6860   21.8600   15.2330 C.ar   16  PHE16      -0.0200
     15  CD1      -29.0200   21.4710   15.1710 C.ar   16  PHE16      -0.0042
     16  CD2      -27.0900   22.4080   14.1080 C.ar   16  PHE16      -0.0042
     17  CE1      -29.7580   21.6340   13.9990 C.ar   16  PHE16      -0.0003
     18  CE2      -27.8150   22.5730   12.9320 C.ar   16  PHE16      -0.0003
     19  CZ       -29.1550   22.1910   12.8820 C.ar   16  PHE16      -0.0000
     20  N        -28.7660   21.7790   22.7980 N.3    19  ASP19      -0.1239
     21  CA       -29.6110   20.6030   23.0110 C.3    19  ASP19       0.1674
     22  C        -28.8950   19.2720   22.8200 C.2    19  ASP19       0.2266
     23  O        -29.2650   18.2860   23.4490 O.2    19  ASP19      -0.2867
     24  CB       -30.8910   20.7010   22.1890 C.3    19  ASP19       0.1410
     25  CG       -31.6530   21.9840   22.4890 C.2    19  ASP19       0.3668
     26  OD1      -32.1210   22.1270   23.6370 O.co2  19  ASP19      -0.2456
     27  OD2      -31.7550   22.8540   21.5990 O.co2  19  ASP19      -0.2456
     28  N        -29.1620   14.1000   18.5510 N.3    99  LEU99      -0.1245
     29  CA       -29.8010   14.3380   19.8410 C.3    99  LEU99       0.1561
     30  C        -30.0290   13.0020   20.5540 C.2    99  LEU99       0.2260
     31  O        -30.6730   12.1060   20.0080 O.2    99  LEU99      -0.2867
     32  CB       -31.1480   15.0480   19.6520 C.3    99  LEU99       0.0270
     33  CG       -31.8940   15.4260   20.9420 C.3    99  LEU99       0.0019
     34  CD1      -31.4340   16.7730   21.4760 C.3    99  LEU99       0.0001
     35  CD2      -33.4130   15.4090   20.7420 C.3    99  LEU99       0.0001
     36  N        -35.1030   11.9640   11.7630 N.3   192  GLU192     -0.1245
     37  CA       -36.4340   12.3270   12.2030 C.3   192  GLU192      0.1567
     38  C        -37.4190   12.3510   11.0280 C.2   192  GLU192      0.2260
     39  O        -37.1150   12.8910    9.9720 O.2   192  GLU192     -0.2867
     40  CB       -36.3980   13.6810   12.8590 C.3   192  GLU192      0.0388
     41  CG       -37.6650   13.9580   13.5340 C.3   192  GLU192      0.1160
     42  CD       -37.6850   15.3030   14.1370 C.2   192  GLU192      0.3649
     43  OE1      -36.6090   15.9470   14.2180 O.co2 192  GLU192     -0.2457
     44  OE2      -38.7910   15.7050   14.5390 O.co2 192  GLU192     -0.2457
     45  N        -31.4390   10.5790   17.6880 N.3   203  LEU203     -0.1245
     46  CA       -32.2010   11.1820   16.6060 C.3   203  LEU203      0.1561
     47  C        -31.3370   12.1600   15.7860 C.2   203  LEU203      0.2260
     48  O        -30.5370   12.9090   16.3470 O.2   203  LEU203     -0.2867
     49  CB       -33.4010   11.9140   17.2120 C.3   203  LEU203      0.0270
     50  CG       -34.4370   12.5300   16.2810 C.3   203  LEU203      0.0019
     51  CD1      -35.2750   11.4250   15.6470 C.3   203  LEU203      0.0001
     52  CD2      -35.3050   13.5090   17.0440 C.3   203  LEU203      0.0001
     53  N        -31.8670   15.3820   14.2710 N.3   205  ARG205     -0.1231
     54  CA       -32.9170   16.3860   14.3710 C.3   205  ARG205      0.1694
     55  C        -33.2360   17.0210   13.0230 C.2   205  ARG205      0.2592
     56  O        -32.3280   17.3840   12.2750 O.2   205  ARG205     -0.2718
     57  CB       -32.5030   17.4920   15.3380 C.3   205  ARG205      0.0321
     58  CG       -32.5470   17.1030   16.8010 C.3   205  ARG205      0.0489
     59  CD       -31.9500   18.2250   17.6320 C.3   205  ARG205      0.2205
     60  NE       -30.4940   18.1940   17.7340 N.pl3 205  ARG205     -0.0865
     61  CZ       -29.7620   19.1760   18.2460 C.cat 205  ARG205      0.5346
     62  NH1      -30.3480   20.2880   18.6740 N.pl3 205  ARG205      0.1354
     63  NH2      -28.4390   19.0490   18.3190 N.pl3 205  ARG205      0.1354
     64  N        -34.5200   17.1630   12.7160 N.am  206  ASP206     -0.1960
     65  CA       -34.9180   17.9910   11.5900 C.3   206  ASP206      0.1840
     66  C        -34.9910   19.4690   12.0070 C.2   206  ASP206      0.2622
     67  O        -34.6480   19.8150   13.1390 O.2   206  ASP206     -0.2715
     68  CB       -36.2050   17.4690   10.9100 C.3   206  ASP206      0.1450
     69  CG       -37.4810   17.7850   11.6820 C.2   206  ASP206      0.3671
     70  OD1      -37.4950   18.7110   12.5120 O.co2 206  ASP206     -0.2456
     71  OD2      -38.5060   17.1190   11.4210 O.co2 206  ASP206     -0.2456
     72  N        -35.4700   20.3250   11.1090 N.am  207  LYS207     -0.1963
     73  CA       -35.3680   21.7810   11.2780 C.3   207  LYS207      0.1728
     74  C        -36.3550   22.4130   12.2700 C.2   207  LYS207      0.2616
     75  O        -36.1960   23.5730   12.6520 O.2   207  LYS207     -0.2715
     76  CB       -35.5430   22.4750    9.9270 C.3   207  LYS207      0.0311
     77  CG       -36.9840   22.5150    9.4500 C.3   207  LYS207      0.0038
     78  CD       -37.1240   23.3260    8.1580 C.3   207  LYS207      0.0206
     79  CE       -38.5190   23.1700    7.5480 C.3   207  LYS207      0.1093
     80  NZ       -39.6050   23.4660    8.5350 N.3   207  LYS207     -0.1314
     81  N        -37.3730   21.6640   12.6730 N.am  208  ASN208     -0.1958
     82  CA       -38.4380   22.2170   13.5150 C.3   208  ASN208      0.1819
     83  C        -38.2290   21.9700   14.9980 C.2   208  ASN208      0.2621
     84  O        -38.1920   20.8440   15.4080 O.2   208  ASN208     -0.2715
     85  CB       -39.7630   21.5840   13.1160 C.3   208  ASN208      0.1195
     86  CG       -40.1120   21.8600   11.6860 C.2   208  ASN208      0.2630
     87  OD1      -40.0190   22.9970   11.2300 O.2   208  ASN208     -0.2716
     88  ND2      -40.4820   20.8180   10.9530 N.am  208  ASN208     -0.0877
     89  N        -38.1170   22.9990   15.8240 N.am  209  LYS209     -0.1964
     90  CA       -38.0200   22.7360   17.2580 C.3   209  LYS209      0.1713
     91  C        -39.4030   22.4640   17.8560 C.2   209  LYS209      0.2458
     92  O        -40.3890   23.0800   17.4480 O.2   209  LYS209     -0.2730
     93  CB       -37.3560   23.9030   17.9870 C.3   209  LYS209      0.0311
     94  CG       -35.9770   24.2480   17.4780 C.3   209  LYS209      0.0038
     95  CD       -35.1440   24.8740   18.5800 C.3   209  LYS209      0.0206
     96  CE       -35.0520   23.9540   19.7970 C.3   209  LYS209      0.1093
     97  NZ       -34.1460   24.4860   20.8650 N.3   209  LYS209     -0.1314
     98  N        -39.4810   21.5240   18.8150 N.am  210  PRO210     -0.2727
     99  CA       -40.7080   21.2230   19.5680 C.3   210  PRO210      0.1402
    100  C        -41.1560   22.4370   20.3640 C.2   210  PRO210      0.2269
    101  O        -40.2880   23.0200   21.0170 O.2   210  PRO210     -0.2865
    102  CB       -40.2680   20.1200   20.5380 C.3   210  PRO210      0.0296
    103  CG       -39.0690   19.5040   19.9020 C.3   210  PRO210      0.0237
    104  CD       -38.3840   20.6010   19.1440 C.3   210  PRO210      0.0939
@<TRIPOS>BOND
     1    79    78    1
     2    79    80    1
     3    78    77    1
     4    77    76    1
     5    76    73    1
     6    39    38    2
     7    68    65    1
     8    68    69    1
     9    88    86   am
    10    38    37    1
    11    72    73    1
    12    72    66   am
    13    87    86    2
    14    73    74    1
    15    71    69   ar
    16    65    66    1
    17    65    64    1
    18    69    70   ar
    19    86    85    1
    20    36    37    1
    21    66    67    2
    22    37    40    1
    23    74    75    2
    24    74    81   am
    25    56    55    2
    26    81    82    1
    27    64    55   am
    28    40    41    1
    29    19    18   ar
    30    19    17   ar
    31    18    16   ar
    32    55    54    1
    33    85    82    1
    34    82    83    1
    35    41    42    1
    36    17    15   ar
    37    16    14   ar
    38    42    43   ar
    39    42    44   ar
    40    53    54    1
    41    54    57    1
    42     7     5    1
    43    83    84    2
    44    83    89   am
    45    15    14   ar
    46    14    13    1
    47    57    58    1
    48    51    50    1
    49    47    48    2
    50    47    46    1
    51    89    90    1
    52     5     6    1
    53     5     2    1
    54    50    52    1
    55    50    49    1
    56    13    10    1
    57    46    49    1
    58    46    45    1
    59     1     2    1
    60     6     8    1
    61    58    59    1
    62     2     3    1
    63     9    10    1
    64     9     3   am
    65    90    91    1
    66    90    93    1
    67    92    91    2
    68    94    93    1
    69    94    95    1
    70    10    11    1
    71    59    60    1
    72     3     4    2
    73    60    61    2
    74    91    98   am
    75    61    63    1
    76    61    62    1
    77    28    29    1
    78    95    96    1
    79    98   104    1
    80    98    99    1
    81    11    12    2
    82   104   103    1
    83    99   100    1
    84    99   102    1
    85    32    29    1
    86    32    33    1
    87    96    97    1
    88    29    30    1
    89   103   102    1
    90    31    30    2
    91   100   101    2
    92    35    33    1
    93    33    34    1
    94    27    25   ar
    95    24    25    1
    96    24    21    1
    97    25    26   ar
    98    20    21    1
    99    22    21    1
   100    22    23    2
