@<TRIPOS>MOLECULE
tmp/4ayoA00.pdb
 133 127 0 0 0
SMALL
GASTEIGER

@<TRIPOS>ATOM
      1  N         21.0780   11.9390   38.5130 N.3    92  PHE92      -0.1227
      2  CA        21.9210   12.1590   39.6860 C.3    92  PHE92       0.1736
      3  C         21.1170   12.7530   40.8470 C.2    92  PHE92       0.2595
      4  O         21.1430   12.2420   41.9740 O.2    92  PHE92      -0.2718
      5  CB        23.0500   13.1000   39.2570 C.3    92  PHE92       0.0547
      6  CG        23.8470   13.7160   40.3880 C.ar   92  PHE92      -0.0202
      7  CD1       24.8310   12.9940   41.0510 C.ar   92  PHE92      -0.0042
      8  CD2       23.6470   15.0440   40.7290 C.ar   92  PHE92      -0.0042
      9  CE1       25.5860   13.5940   42.0540 C.ar   92  PHE92      -0.0003
     10  CE2       24.3920   15.6480   41.7260 C.ar   92  PHE92      -0.0003
     11  CZ        25.3690   14.9210   42.3910 C.ar   92  PHE92      -0.0000
     12  N         20.4370   13.8710   40.5790 N.am   93  GLU93      -0.1979
     13  CA        19.7100   14.5520   41.6520 C.3    93  GLU93       0.1602
     14  C         18.5640   13.6800   42.1610 C.2    93  GLU93       0.2287
     15  O         18.2510   13.6690   43.3510 O.2    93  GLU93      -0.2864
     16  CB        19.1590   15.9000   41.1810 C.3    93  GLU93       0.0415
     17  CG        20.1890   16.9120   40.6950 C.3    93  GLU93       0.1163
     18  CD        21.0840   17.5540   41.7480 C.2    93  GLU93       0.3649
     19  OE1       20.9550   17.2610   42.9560 O.co2  93  GLU93      -0.2457
     20  OE2       21.9340   18.3710   41.3160 O.co2  93  GLU93      -0.2457
     21  N         20.0380   10.8840   44.5320 N.3    96  ILE96      -0.1231
     22  CA        20.5780   11.2460   45.8380 C.3    96  ILE96       0.1692
     23  C         19.5180   11.9030   46.7260 C.2    96  ILE96       0.2591
     24  O         19.5890   11.7990   47.9520 O.2    96  ILE96      -0.2718
     25  CB        21.8580   12.0930   45.7420 C.3    96  ILE96       0.0266
     26  CG1       21.5880   13.4710   45.1110 C.3    96  ILE96       0.0019
     27  CG2       22.9280   11.2860   44.9990 C.3    96  ILE96       0.0020
     28  CD1       22.8270   14.2680   44.8680 C.3    96  ILE96       0.0001
     29  N         18.5540   12.5890   46.1120 N.am   97  ARG97      -0.1980
     30  CA        17.5420   13.2980   46.8930 C.3    97  ARG97       0.1597
     31  C         16.3140   12.4420   47.1890 C.2    97  ARG97       0.2287
     32  O         15.8570   12.3750   48.3380 O.2    97  ARG97      -0.2864
     33  CB        17.1030   14.5740   46.1690 C.3    97  ARG97       0.0334
     34  CG        18.2240   15.5820   46.0170 C.3    97  ARG97       0.0492
     35  CD        17.8500   16.6870   45.0760 C.3    97  ARG97       0.2205
     36  NE        18.9030   17.6540   44.8210 N.pl3  97  ARG97      -0.0865
     37  CZ        18.9150   18.8940   45.2990 C.cat  97  ARG97       0.5346
     38  NH1       18.0540   19.2890   46.2420 N.pl3  97  ARG97       0.1354
     39  NH2       19.8070   19.7580   44.8330 N.pl3  97  ARG97       0.1354
     40  N         33.3770   15.6990   42.7330 N.3   221  ASP221     -0.1225
     41  CA        33.2010   15.5640   44.1700 C.3   221  ASP221      0.1805
     42  C         32.7010   14.2110   44.7100 C.2   221  ASP221      0.2598
     43  O         33.4790   13.4370   45.2740 O.2   221  ASP221     -0.2718
     44  CB        32.3970   16.7700   44.7330 C.3   221  ASP221      0.1424
     45  CG        31.0920   17.1120   44.0050 C.2   221  ASP221      0.3668
     46  OD1       30.5300   16.2910   43.2510 O.co2 221  ASP221     -0.2456
     47  OD2       30.6340   18.2610   44.2530 O.co2 221  ASP221     -0.2456
     48  N         31.4020   13.9540   44.6060 N.am  222  SER222     -0.1952
     49  CA        30.8280   12.8240   45.3170 C.3   222  SER222      0.1924
     50  C         31.2270   11.4570   44.7760 C.2   222  SER222      0.2314
     51  O         31.0580   10.4650   45.4860 O.2   222  SER222     -0.2863
     52  CB        29.3100   12.9750   45.4140 C.3   222  SER222      0.2116
     53  OG        28.7280   13.2640   44.1550 O.3   222  SER222     -0.2180
     54  N         31.6770   24.2290   47.4150 N.3   282  LEU282     -0.1245
     55  CA        31.2100   22.8570   47.4510 C.3   282  LEU282      0.1561
     56  C         32.3600   21.8730   47.6500 C.2   282  LEU282      0.2260
     57  O         32.1200   20.7310   48.0440 O.2   282  LEU282     -0.2867
     58  CB        30.4220   22.4930   46.1770 C.3   282  LEU282      0.0270
     59  CG        29.0050   23.0530   46.0150 C.3   282  LEU282      0.0019
     60  CD1       28.9340   24.5730   46.0430 C.3   282  LEU282      0.0001
     61  CD2       28.4100   22.5520   44.7130 C.3   282  LEU282      0.0001
     62  N         24.7480   26.9380   51.3700 N.3   335  ARG335     -0.1231
     63  CA        25.4660   25.6970   51.1420 C.3   335  ARG335      0.1679
     64  C         25.8830   24.9960   52.4370 C.2   335  ARG335      0.2434
     65  O         26.2820   25.6490   53.4190 O.2   335  ARG335     -0.2733
     66  CB        26.7090   25.9370   50.2910 C.3   335  ARG335      0.0321
     67  CG        26.4150   26.3970   48.8760 C.3   335  ARG335      0.0489
     68  CD        25.8980   25.2690   47.9980 C.3   335  ARG335      0.2205
     69  NE        25.5500   25.7800   46.6750 N.pl3 335  ARG335     -0.0865
     70  CZ        25.0580   25.0340   45.6870 C.cat 335  ARG335      0.5346
     71  NH1       24.8850   23.7290   45.8510 N.pl3 335  ARG335      0.1354
     72  NH2       24.7270   25.6020   44.5370 N.pl3 335  ARG335      0.1354
     73  N         25.8690   23.6560   52.4320 N.am  336  PRO336     -0.2718
     74  CA        26.0870   22.8790   53.6540 C.3   336  PRO336      0.1535
     75  C         27.4780   22.2710   53.8420 C.2   336  PRO336      0.2598
     76  O         27.6730   21.5450   54.8240 O.2   336  PRO336     -0.2715
     77  CB        25.0900   21.7290   53.4680 C.3   336  PRO336      0.0310
     78  CG        25.1810   21.4440   51.9920 C.3   336  PRO336      0.0237
     79  CD        25.2380   22.8270   51.3740 C.3   336  PRO336      0.0939
     80  N         28.4200   22.4830   52.9130 N.am  337  GLU337     -0.1978
     81  CA        29.6150   21.6330   52.9260 C.3   337  GLU337      0.1602
     82  C         30.5650   21.8940   54.0980 C.2   337  GLU337      0.2287
     83  O         31.3190   20.9950   54.4610 O.2   337  GLU337     -0.2864
     84  CB        30.3820   21.6990   51.6070 C.3   337  GLU337      0.0415
     85  CG        29.6550   20.9950   50.4690 C.3   337  GLU337      0.1163
     86  CD        28.5020   21.7810   49.8530 C.2   337  GLU337      0.3649
     87  OE1       28.3330   22.9910   50.1160 O.co2 337  GLU337     -0.2457
     88  OE2       27.7760   21.1650   49.0460 O.co2 337  GLU337     -0.2457
     89  N         29.2220   19.8320   56.9070 N.3   340  ASP340     -0.1239
     90  CA        29.4520   18.4570   56.4110 C.3   340  ASP340      0.1674
     91  C         30.8550   18.0090   56.8470 C.2   340  ASP340      0.2266
     92  O         31.0370   16.9910   57.5310 O.2   340  ASP340     -0.2867
     93  CB        29.2910   18.5100   54.8830 C.3   340  ASP340      0.1410
     94  CG        29.5860   17.2210   54.1170 C.2   340  ASP340      0.3668
     95  OD1       30.2260   16.3120   54.6840 O.co2 340  ASP340     -0.2456
     96  OD2       29.2050   17.2010   52.9220 O.co2 340  ASP340     -0.2456
     97  N         18.2760   20.5770   49.5520 N.3   395  TYR395     -0.1241
     98  CA        19.3380   19.9700   50.3430 C.3   395  TYR395      0.1605
     99  C         19.4300   20.5690   51.7450 C.2   395  TYR395      0.2264
    100  O         19.9380   19.8900   52.6440 O.2   395  TYR395     -0.2867
    101  CB        20.7070   19.9870   49.6330 C.3   395  TYR395      0.0534
    102  CG        21.1380   21.3220   49.0520 C.ar  395  TYR395     -0.0201
    103  CD1       21.5560   22.3920   49.8680 C.ar  395  TYR395     -0.0009
    104  CD2       21.1600   21.5080   47.6670 C.ar  395  TYR395     -0.0009
    105  CE1       21.9740   23.5970   49.3030 C.ar  395  TYR395      0.0417
    106  CE2       21.5840   22.7000   47.0980 C.ar  395  TYR395      0.0417
    107  CZ        21.9720   23.7470   47.9130 C.ar  395  TYR395      0.1957
    108  OH        22.3480   24.9250   47.3140 O.3   395  TYR395     -0.2866
    109  N         20.5670   18.3250   54.8950 N.3   399  GLU399     -0.1245
    110  CA        21.9750   18.4980   55.2260 C.3   399  GLU399      0.1567
    111  C         22.2470   19.3690   56.4580 C.2   399  GLU399      0.2260
    112  O         22.4950   18.8260   57.5330 O.2   399  GLU399     -0.2867
    113  CB        22.7660   18.9860   54.0170 C.3   399  GLU399      0.0388
    114  CG        22.7660   17.9770   52.8780 C.3   399  GLU399      0.1160
    115  CD        23.9400   18.1840   51.9360 C.2   399  GLU399      0.3649
    116  OE1       25.0990   18.1280   52.4210 O.co2 399  GLU399     -0.2457
    117  OE2       23.6910   18.4280   50.7410 O.co2 399  GLU399     -0.2457
    118  N         25.8470   11.5640   50.2760 N.3   423  THR423     -0.1203
    119  CA        26.3120   12.9100   49.9210 C.3   423  THR423      0.1994
    120  C         25.2170   13.9750   50.0920 C.2   423  THR423      0.2617
    121  O         25.5120   15.1650   50.0390 O.2   423  THR423     -0.2717
    122  CB        26.9030   12.9670   48.5030 C.3   423  THR423      0.1784
    123  OG1       27.6920   14.1500   48.3670 O.3   423  THR423     -0.2211
    124  CG2       25.8400   12.9690   47.4100 C.3   423  THR423      0.0376
    125  N         23.9770   13.5210   50.2770 N.am  424  GLU424     -0.1979
    126  CA        22.8170   14.3560   50.5740 C.3   424  GLU424      0.1602
    127  C         22.4850   14.3200   52.0740 C.2   424  GLU424      0.2287
    128  O         21.4350   14.8000   52.4990 O.2   424  GLU424     -0.2864
    129  CB        21.6170   13.8220   49.7630 C.3   424  GLU424      0.0415
    130  CG        20.4340   14.7680   49.6430 C.3   424  GLU424      0.1163
    131  CD        20.6710   15.9160   48.6830 C.2   424  GLU424      0.3649
    132  OE1       21.6230   15.8720   47.8920 O.co2 424  GLU424     -0.2457
    133  OE2       19.8550   16.9080   48.7060 O.co2 424  GLU424     -0.2457
@<TRIPOS>BOND
     1     1     2    1
     2     5     2    1
     3     5     6    1
     4     2     3    1
     5     6     8   ar
     6     6     7   ar
     7    12     3   am
     8    12    13    1
     9    17    16    1
    10    17    18    1
    11     8    10   ar
    12     3     4    2
    13     7     9   ar
    14    16    13    1
    15    20    18   ar
    16    13    14    1
    17    10    11   ar
    18    18    19   ar
    19     9    11   ar
    20    14    15    2
    21    40    41    1
    22    46    45   ar
    23    45    47   ar
    24    45    44    1
    25    53    52    1
    26    41    42    1
    27    41    44    1
    28    21    22    1
    29    72    70    1
    30    48    42   am
    31    48    49    1
    32    42    43    2
    33    61    59    1
    34    50    49    1
    35    50    51    2
    36    36    35    1
    37    36    37    2
    38    39    37    1
    39    28    26    1
    40    27    25    1
    41    35    34    1
    42    26    25    1
    43    37    38    1
    44    49    52    1
    45    70    71    1
    46    70    69    2
    47    25    22    1
    48    22    23    1
    49    59    60    1
    50    59    58    1
    51    34    33    1
    52    29    23   am
    53    29    30    1
    54    33    30    1
    55    58    55    1
    56    69    68    1
    57    23    24    2
    58    30    31    1
    59   106   104   ar
    60   106   107   ar
    61    31    32    2
    62   108   107    1
    63   124   122    1
    64    54    55    1
    65    55    56    1
    66    56    57    2
    67   104   102   ar
    68   132   131   ar
    69   107   105   ar
    70    68    67    1
    71   123   122    1
    72   122   119    1
    73   131   133   ar
    74   131   130    1
    75    67    66    1
    76    88    86   ar
    77   102   101    1
    78   102   103   ar
    79   105   103   ar
    80    97    98    1
    81   101    98    1
    82   130   129    1
    83   129   126    1
    84    86    87   ar
    85    86    85    1
    86   119   120    1
    87   119   118    1
    88   121   120    2
    89   120   125   am
    90   125   126    1
    91    66    63    1
    92    98    99    1
    93    85    84    1
    94   126   127    1
    95   117   115   ar
    96    63    62    1
    97    63    64    1
    98    79    78    1
    99    79    73    1
   100    84    81    1
   101    99   100    2
   102   115   116   ar
   103   115   114    1
   104    78    77    1
   105   127   128    2
   106    73    64   am
   107    73    74    1
   108    64    65    2
   109   114   113    1
   110    80    81    1
   111    80    75   am
   112    96    94   ar
   113    81    82    1
   114    77    74    1
   115    74    75    1
   116    75    76    2
   117   113   110    1
   118    82    83    2
   119    94    95   ar
   120    94    93    1
   121    93    90    1
   122   109   110    1
   123   110   111    1
   124    90    91    1
   125    90    89    1
   126   111   112    2
   127    91    92    2
