@<TRIPOS>MOLECULE
tmp/4aypA00.pdb
 186 177 0 0 0
SMALL
GASTEIGER

@<TRIPOS>ATOM
      1  N        -21.0250   -7.1660   -3.4170 N.3    90  GLN90      -0.1245
      2  CA       -21.6270   -8.4850   -3.4450 C.3    90  GLN90       0.1566
      3  C        -20.7800   -9.3730   -4.3680 C.2    90  GLN90       0.2260
      4  O        -20.6210   -9.0700   -5.5680 O.2    90  GLN90      -0.2867
      5  CB       -23.0630   -8.3990   -3.9550 C.3    90  GLN90       0.0367
      6  CG       -23.8420   -9.6630   -3.6860 C.3    90  GLN90       0.0905
      7  CD       -25.2210   -9.6340   -4.3240 C.2    90  GLN90       0.2608
      8  OE1      -25.7500   -8.5760   -4.6830 O.2    90  GLN90      -0.2717
      9  NE2      -25.8180  -10.8000   -4.4720 N.am   90  GLN90      -0.0878
     10  N        -20.9800  -12.3750   -5.7950 N.3    92  PHE92      -0.1227
     11  CA       -21.5750  -12.9790   -6.9820 C.3    92  PHE92       0.1736
     12  C        -21.6980  -11.9670   -8.1180 C.2    92  PHE92       0.2595
     13  O        -21.2890  -12.2260   -9.2620 O.2    92  PHE92      -0.2718
     14  CB       -22.9630  -13.5170   -6.5810 C.3    92  PHE92       0.0547
     15  CG       -23.8730  -13.8580   -7.7300 C.ar   92  PHE92      -0.0202
     16  CD1      -23.7560  -15.0540   -8.4240 C.ar   92  PHE92      -0.0042
     17  CD2      -24.8900  -12.9800   -8.0790 C.ar   92  PHE92      -0.0042
     18  CE1      -24.6360  -15.3490   -9.4700 C.ar   92  PHE92      -0.0003
     19  CE2      -25.7560  -13.2710   -9.1290 C.ar   92  PHE92      -0.0003
     20  CZ       -25.6270  -14.4570   -9.8240 C.ar   92  PHE92      -0.0000
     21  N        -22.3030  -10.8130   -7.8200 N.am   93  GLU93      -0.1979
     22  CA       -22.5370   -9.8110   -8.8600 C.3    93  GLU93       0.1602
     23  C        -21.2050   -9.2650   -9.3910 C.2    93  GLU93       0.2287
     24  O        -21.0460   -8.9930  -10.5870 O.2    93  GLU93      -0.2864
     25  CB       -23.3770   -8.6500   -8.3180 C.3    93  GLU93       0.0415
     26  CG       -24.8020   -9.0220   -7.9330 C.3    93  GLU93       0.1163
     27  CD       -25.7280   -9.3500   -9.0950 C.2    93  GLU93       0.3649
     28  OE1      -25.2880   -9.2580  -10.2740 O.co2  93  GLU93      -0.2457
     29  OE2      -26.8940   -9.7190   -8.8100 O.co2  93  GLU93      -0.2457
     30  N        -19.7130  -11.9770  -11.8230 N.3    96  ILE96      -0.1231
     31  CA       -20.3250  -12.2480  -13.1170 C.3    96  ILE96       0.1692
     32  C        -20.3350  -10.9890  -13.9940 C.2    96  ILE96       0.2591
     33  O        -20.2790  -11.0920  -15.2210 O.2    96  ILE96      -0.2718
     34  CB       -21.7240  -12.8950  -13.0330 C.3    96  ILE96       0.0266
     35  CG1      -22.7780  -11.9670  -12.4370 C.3    96  ILE96       0.0019
     36  CG2      -21.6300  -14.2310  -12.2950 C.3    96  ILE96       0.0020
     37  CD1      -24.2030  -12.4950  -12.5550 C.3    96  ILE96       0.0001
     38  N        -20.4050   -9.8050  -13.3750 N.am   97  ARG97      -0.1980
     39  CA       -20.4990   -8.5640  -14.1370 C.3    97  ARG97       0.1597
     40  C        -19.1260   -7.9640  -14.4430 C.2    97  ARG97       0.2287
     41  O        -18.8320   -7.6250  -15.6000 O.2    97  ARG97      -0.2864
     42  CB       -21.3500   -7.5270  -13.4090 C.3    97  ARG97       0.0334
     43  CG       -22.7900   -7.9790  -13.2430 C.3    97  ARG97       0.0492
     44  CD       -23.5740   -7.0100  -12.4330 C.3    97  ARG97       0.2205
     45  NE       -24.9580   -7.3850  -12.1880 N.pl3  97  ARG97      -0.0865
     46  CZ       -26.0010   -6.7050  -12.6330 C.cat  97  ARG97       0.5346
     47  NH1      -25.8700   -5.7550  -13.5550 N.pl3  97  ARG97       0.1354
     48  NH2      -27.1950   -6.9800  -12.1490 N.pl3  97  ARG97       0.1354
     49  N        -21.2830  -13.6720    1.1690 N.3   139  ARG139     -0.1245
     50  CA       -21.9670  -12.9510    0.1010 C.3   139  ARG139      0.1563
     51  C        -21.3380  -11.6090   -0.2240 C.2   139  ARG139      0.2260
     52  O        -21.4350  -11.1650   -1.3830 O.2   139  ARG139     -0.2867
     53  CB       -23.4350  -12.7130    0.4170 C.3   139  ARG139      0.0307
     54  CG       -24.2730  -13.9680    0.4880 C.3   139  ARG139      0.0489
     55  CD       -25.7280  -13.6350    0.7190 C.3   139  ARG139      0.2205
     56  NE       -26.3360  -13.0350   -0.4580 N.pl3 139  ARG139     -0.0865
     57  CZ       -27.4140  -12.2730   -0.4480 C.cat 139  ARG139      0.5346
     58  NH1      -27.9300  -11.8430    0.6960 N.pl3 139  ARG139      0.1354
     59  NH2      -27.9620  -11.9160   -1.6140 N.pl3 139  ARG139      0.1354
     60  N        -26.5410  -20.2470   -6.2860 N.3   156  ALA156     -0.1231
     61  CA       -26.0550  -19.3400   -7.3310 C.3   156  ALA156      0.1694
     62  C        -24.8600  -18.5390   -6.8130 C.2   156  ALA156      0.2591
     63  O        -23.8440  -18.3610   -7.5190 O.2   156  ALA156     -0.2718
     64  CB       -27.1610  -18.4190   -7.8140 C.3   156  ALA156      0.0304
     65  N        -24.9540  -18.0390   -5.5790 N.am  157  GLU157     -0.1979
     66  CA       -23.9280  -17.1650   -5.0390 C.3   157  GLU157      0.1602
     67  C        -22.7060  -17.9010   -4.4850 C.2   157  GLU157      0.2287
     68  O        -21.7160  -17.2330   -4.1570 O.2   157  GLU157     -0.2864
     69  CB       -24.5080  -16.1790   -4.0240 C.3   157  GLU157      0.0415
     70  CG       -25.5380  -15.2490   -4.6610 C.3   157  GLU157      0.1163
     71  CD       -26.0040  -14.1510   -3.7210 C.2   157  GLU157      0.3649
     72  OE1      -25.1530  -13.4830   -3.0930 O.co2 157  GLU157     -0.2457
     73  OE2      -27.2470  -13.9520   -3.6180 O.co2 157  GLU157     -0.2457
     74  N        -34.3270  -18.5960   -9.2620 N.3   218  VAL218     -0.1231
     75  CA       -33.4740  -17.6070   -8.6290 C.3   218  VAL218      0.1692
     76  C        -32.8780  -18.1920   -7.3510 C.2   218  VAL218      0.2592
     77  O        -33.5470  -18.9030   -6.5880 O.2   218  VAL218     -0.2718
     78  CB       -34.2240  -16.2870   -8.3610 C.3   218  VAL218      0.0266
     79  CG1      -34.6730  -15.6560   -9.6730 C.3   218  VAL218      0.0020
     80  CG2      -35.3920  -16.4940   -7.4320 C.3   218  VAL218      0.0020
     81  N        -31.6000  -17.8800   -7.1380 N.am  219  TYR219     -0.1976
     82  CA       -30.7790  -18.3570   -6.0090 C.3   219  TYR219      0.1639
     83  C        -30.2090  -19.7450   -6.2290 C.2   219  TYR219      0.2290
     84  O        -29.4740  -20.2550   -5.3660 O.2   219  TYR219     -0.2864
     85  CB       -31.4680  -18.2120   -4.6350 C.3   219  TYR219      0.0560
     86  CG       -32.0300  -16.8210   -4.4090 C.ar  219  TYR219     -0.0198
     87  CD1      -31.2160  -15.6870   -4.5010 C.ar  219  TYR219     -0.0009
     88  CD2      -33.3710  -16.6320   -4.1230 C.ar  219  TYR219     -0.0009
     89  CE1      -31.7300  -14.4110   -4.3430 C.ar  219  TYR219      0.0417
     90  CE2      -33.8900  -15.3510   -3.9290 C.ar  219  TYR219      0.0417
     91  CZ       -33.0660  -14.2410   -4.0420 C.ar  219  TYR219      0.1957
     92  OH       -33.5790  -12.9730   -3.8660 O.3   219  TYR219     -0.2866
     93  N        -30.3250  -21.5130  -10.0890 N.3   221  ASP221     -0.1225
     94  CA       -30.1140  -21.4040  -11.5350 C.3   221  ASP221      0.1805
     95  C        -28.6710  -21.5530  -12.0560 C.2   221  ASP221      0.2598
     96  O        -28.3330  -22.5940  -12.6260 O.2   221  ASP221     -0.2718
     97  CB       -30.8330  -20.1430  -12.0730 C.3   221  ASP221      0.1424
     98  CG       -30.5750  -18.8160  -11.3210 C.2   221  ASP221      0.3668
     99  OD1      -29.5680  -18.6570  -10.6070 O.co2 221  ASP221     -0.2456
    100  OD2      -31.4510  -17.9260  -11.5460 O.co2 221  ASP221     -0.2456
    101  N        -27.8670  -20.4990  -11.9640 N.am  222  SER222     -0.1952
    102  CA       -26.5980  -20.4960  -12.6790 C.3   222  SER222      0.1924
    103  C        -25.5760  -21.5040  -12.1400 C.2   222  SER222      0.2314
    104  O        -24.6280  -21.8280  -12.8620 O.2   222  SER222     -0.2863
    105  CB       -26.0340  -19.0770  -12.7380 C.3   222  SER222      0.2116
    106  OG       -26.0430  -18.4490  -11.4650 O.3   222  SER222     -0.2180
    107  N        -36.8050  -15.4620  -14.9030 N.3   282  LEU282     -0.1245
    108  CA       -35.3900  -15.7690  -15.0420 C.3   282  LEU282      0.1561
    109  C        -35.1490  -17.2570  -15.2620 C.2   282  LEU282      0.2260
    110  O        -34.0910  -17.6450  -15.7740 O.2   282  LEU282     -0.2867
    111  CB       -34.5750  -15.2640  -13.8400 C.3   282  LEU282      0.0270
    112  CG       -34.4570  -13.7430  -13.6850 C.3   282  LEU282      0.0019
    113  CD1      -35.7250  -13.0780  -13.1510 C.3   282  LEU282      0.0001
    114  CD2      -33.2790  -13.4410  -12.7690 C.3   282  LEU282      0.0001
    115  N        -35.6950   -7.9990  -18.6240 N.3   335  ARG335     -0.1231
    116  CA       -34.9600   -9.2230  -18.4090 C.3   335  ARG335      0.1679
    117  C        -34.5680   -9.9280  -19.7210 C.2   335  ARG335      0.2434
    118  O        -35.3420   -9.9460  -20.6910 O.2   335  ARG335     -0.2733
    119  CB       -35.7750  -10.1920  -17.5620 C.3   335  ARG335      0.0321
    120  CG       -36.0290   -9.7240  -16.1330 C.3   335  ARG335      0.0489
    121  CD       -34.7990   -9.8470  -15.2520 C.3   335  ARG335      0.2205
    122  NE       -35.0820   -9.3060  -13.9270 N.pl3 335  ARG335     -0.0865
    123  CZ       -34.1850   -9.2080  -12.9470 C.cat 335  ARG335      0.5346
    124  NH1      -32.9450   -9.6520  -13.0870 N.pl3 335  ARG335      0.1354
    125  NH2      -34.5530   -8.6230  -11.8050 N.pl3 335  ARG335      0.1354
    126  N        -33.4010  -10.5930  -19.7180 N.am  336  PRO336     -0.2718
    127  CA       -32.8320  -11.1690  -20.9420 C.3   336  PRO336      0.1535
    128  C        -32.9910  -12.6860  -21.1310 C.2   336  PRO336      0.2598
    129  O        -32.4760  -13.2060  -22.1280 O.2   336  PRO336     -0.2715
    130  CB       -31.3350  -10.8720  -20.7510 C.3   336  PRO336      0.0310
    131  CG       -31.1280  -11.0960  -19.2760 C.3   336  PRO336      0.0237
    132  CD       -32.3550  -10.4430  -18.6650 C.3   336  PRO336      0.0939
    133  N        -33.6340  -13.4100  -20.2030 N.am  337  GLU337     -0.1978
    134  CA       -33.4790  -14.8640  -20.2210 C.3   337  GLU337      0.1602
    135  C        -34.2080  -15.5650  -21.3810 C.2   337  GLU337      0.2287
    136  O        -33.8130  -16.6680  -21.7480 O.2   337  GLU337     -0.2864
    137  CB       -33.8540  -15.4960  -18.8750 C.3   337  GLU337      0.0415
    138  CG       -32.8500  -15.1760  -17.7630 C.3   337  GLU337      0.1163
    139  CD       -33.0010  -13.7990  -17.1030 C.2   337  GLU337      0.3649
    140  OE1      -33.9740  -13.0540  -17.3960 O.co2 337  GLU337     -0.2457
    141  OE2      -32.1750  -13.4780  -16.2270 O.co2 337  GLU337     -0.2457
    142  N        -31.8180  -15.4310  -24.2600 N.3   340  ASP340     -0.1239
    143  CA       -30.7390  -16.3290  -23.8000 C.3   340  ASP340      0.1674
    144  C        -31.0650  -17.7660  -24.2400 C.2   340  ASP340      0.2266
    145  O        -30.2810  -18.4210  -24.9340 O.2   340  ASP340     -0.2867
    146  CB       -30.6670  -16.1800  -22.2640 C.3   340  ASP340      0.1410
    147  CG       -29.7130  -17.1080  -21.5340 C.2   340  ASP340      0.3668
    148  OD1      -29.2960  -18.1390  -22.0970 O.co2 340  ASP340     -0.2456
    149  OD2      -29.4830  -16.8200  -20.3350 O.co2 340  ASP340     -0.2456
    150  N        -27.0040   -5.5240  -16.8800 N.3   395  TYR395     -0.1241
    151  CA       -27.0160   -6.7330  -17.6900 C.3   395  TYR395      0.1605
    152  C        -27.5860   -6.5050  -19.0930 C.2   395  TYR395      0.2264
    153  O        -27.2630   -7.2850  -19.9880 O.2   395  TYR395     -0.2867
    154  CB       -27.7050   -7.9100  -16.9870 C.3   395  TYR395      0.0534
    155  CG       -29.0670   -7.6160  -16.3720 C.ar  395  TYR395     -0.0201
    156  CD1      -30.2170   -7.4420  -17.1480 C.ar  395  TYR395     -0.0009
    157  CD2      -29.2100   -7.5620  -14.9850 C.ar  395  TYR395     -0.0009
    158  CE1      -31.4550   -7.2070  -16.5630 C.ar  395  TYR395      0.0417
    159  CE2      -30.4340   -7.3290  -14.3860 C.ar  395  TYR395      0.0417
    160  CZ       -31.5520   -7.1260  -15.1740 C.ar  395  TYR395      0.1957
    161  OH       -32.7510   -6.8670  -14.5440 O.3   395  TYR395     -0.2866
    162  N        -26.2120   -8.6500  -22.2190 N.3   399  GLU399     -0.1245
    163  CA       -27.0590   -9.7900  -22.5520 C.3   399  GLU399      0.1567
    164  C        -27.9600   -9.5930  -23.7820 C.2   399  GLU399      0.2260
    165  O        -27.5980  -10.0700  -24.8610 O.2   399  GLU399     -0.2867
    166  CB       -27.8650  -10.2430  -21.3370 C.3   399  GLU399      0.0388
    167  CG       -26.9660  -10.7310  -20.1950 C.3   399  GLU399      0.1160
    168  CD       -27.6620  -11.7000  -19.2740 C.2   399  GLU399      0.3649
    169  OE1      -28.2640  -12.6920  -19.7890 O.co2 399  GLU399     -0.2457
    170  OE2      -27.6230  -11.4660  -18.0450 O.co2 399  GLU399     -0.2457
    171  N        -23.0180  -16.6580  -17.6430 N.3   423  THR423     -0.1203
    172  CA       -24.4280  -16.4180  -17.3010 C.3   423  THR423      0.1994
    173  C        -24.8400  -14.9470  -17.4550 C.2   423  THR423      0.2617
    174  O        -26.0270  -14.6350  -17.4250 O.2   423  THR423     -0.2717
    175  CB       -24.7640  -16.9380  -15.8800 C.3   423  THR423      0.1784
    176  OG1      -26.1720  -17.1000  -15.7570 O.3   423  THR423     -0.2211
    177  CG2      -24.2720  -16.0090  -14.7770 C.3   423  THR423      0.0376
    178  N        -23.8450  -14.0690  -17.6050 N.am  424  GLU424     -0.1979
    179  CA       -24.0020  -12.6360  -17.8910 C.3   424  GLU424      0.1602
    180  C        -23.7420  -12.3430  -19.3840 C.2   424  GLU424      0.2287
    181  O        -23.5810  -11.1930  -19.7850 O.2   424  GLU424     -0.2864
    182  CB       -23.0250  -11.8530  -16.9970 C.3   424  GLU424      0.0415
    183  CG       -23.2370  -10.3460  -16.9150 C.3   424  GLU424      0.1163
    184  CD       -24.4130   -9.9140  -16.0560 C.2   424  GLU424      0.3649
    185  OE1      -25.0070  -10.7410  -15.3480 O.co2 424  GLU424     -0.2457
    186  OE2      -24.7280   -8.6740  -16.0440 O.co2 424  GLU424     -0.2457
@<TRIPOS>BOND
     1   145   144    2
     2   165   164    2
     3   142   143    1
     4   144   143    1
     5   143   146    1
     6   164   163    1
     7   163   162    1
     8   163   166    1
     9   146   147    1
    10   129   128    2
    11   148   147   ar
    12   136   135    2
    13   147   149   ar
    14   135   134    1
    15   166   167    1
    16   128   127    1
    17   128   133   am
    18   127   130    1
    19   127   126    1
    20   130   131    1
    21   118   117    2
    22   134   133    1
    23   134   137    1
    24   167   168    1
    25   153   152    2
    26   169   168   ar
    27   181   180    2
    28   117   126   am
    29   117   116    1
    30   126   132    1
    31   180   179    1
    32   131   132    1
    33   168   170   ar
    34   152   151    1
    35   137   138    1
    36   115   116    1
    37   116   119    1
    38   179   178    1
    39   179   182    1
    40   138   139    1
    41   151   154    1
    42   151   150    1
    43   171   172    1
    44   178   173   am
    45   119   120    1
    46   173   174    2
    47   173   172    1
    48   140   139   ar
    49   172   175    1
    50   156   158   ar
    51   156   155   ar
    52   139   141   ar
    53   182   183    1
    54   154   155    1
    55   183   184    1
    56   158   160   ar
    57   155   157   ar
    58   120   121    1
    59   184   186   ar
    60   184   185   ar
    61   175   176    1
    62   175   177    1
    63   110   109    2
    64    41    40    2
    65   109   108    1
    66   121   122    1
    67    33    32    2
    68   160   161    1
    69   160   159   ar
    70   108   107    1
    71   108   111    1
    72   157   159   ar
    73    40    39    1
    74    39    42    1
    75    39    38    1
    76    32    38   am
    77    32    31    1
    78   122   123    2
    79   111   112    1
    80   112   113    1
    81   112   114    1
    82    47    46    1
    83    42    43    1
    84    43    44    1
    85    31    34    1
    86    31    30    1
    87   124   123    1
    88    34    35    1
    89    34    36    1
    90   123   125    1
    91   104   103    2
    92   105   102    1
    93   105   106    1
    94   102   103    1
    95   102   101    1
    96    46    45    2
    97    46    48    1
    98    96    95    2
    99    37    35    1
   100    44    45    1
   101    97    94    1
   102    97    98    1
   103    95   101   am
   104    95    94    1
   105   100    98   ar
   106    94    93    1
   107    98    99   ar
   108    24    23    2
   109    28    27   ar
   110    20    18   ar
   111    20    19   ar
   112    79    78    1
   113    18    16   ar
   114    23    22    1
   115    13    12    2
   116    74    75    1
   117    19    17   ar
   118    27    29   ar
   119    27    26    1
   120    22    25    1
   121    22    21    1
   122    75    78    1
   123    75    76    1
   124    16    15   ar
   125    78    80    1
   126    25    26    1
   127    12    21   am
   128    12    11    1
   129    17    15   ar
   130    64    61    1
   131    15    14    1
   132    63    62    2
   133    76    81   am
   134    76    77    2
   135    61    62    1
   136    61    60    1
   137    81    82    1
   138    11    14    1
   139    11    10    1
   140    62    65   am
   141    83    82    1
   142    83    84    2
   143    82    85    1
   144    65    66    1
   145     4     3    2
   146    66    67    1
   147    66    69    1
   148     8     7    2
   149    70    69    1
   150    70    71    1
   151    85    86    1
   152    87    86   ar
   153    87    89   ar
   154    67    68    2
   155     9     7   am
   156    86    88   ar
   157     3     2    1
   158    89    91   ar
   159     7     6    1
   160    88    90   ar
   161    91    90   ar
   162    91    92    1
   163     5     6    1
   164     5     2    1
   165    71    73   ar
   166    71    72   ar
   167     2     1    1
   168    59    57    1
   169    52    51    2
   170    56    57    2
   171    56    55    1
   172    57    58    1
   173    51    50    1
   174    50    53    1
   175    50    49    1
   176    53    54    1
   177    54    55    1
