@<TRIPOS>MOLECULE
tmp/4ayqA00.pdb
 133 127 0 0 0
SMALL
GASTEIGER

@<TRIPOS>ATOM
      1  N         -0.2120  -24.1000  -27.5060 N.3    92  PHE92      -0.1227
      2  CA        -0.4590  -24.9360  -26.3320 C.3    92  PHE92       0.1736
      3  C          0.4660  -24.5500  -25.1920 C.2    92  PHE92       0.2595
      4  O          0.0280  -24.3390  -24.0620 O.2    92  PHE92      -0.2718
      5  CB        -0.2200  -26.3840  -26.7690 C.3    92  PHE92       0.0547
      6  CG        -0.0160  -27.3720  -25.6640 C.ar   92  PHE92      -0.0202
      7  CD1       -1.0710  -27.8080  -24.8790 C.ar   92  PHE92      -0.0042
      8  CD2        1.2300  -27.9350  -25.4540 C.ar   92  PHE92      -0.0042
      9  CE1       -0.8700  -28.7620  -23.8900 C.ar   92  PHE92      -0.0003
     10  CE2        1.4300  -28.8840  -24.4840 C.ar   92  PHE92      -0.0003
     11  CZ         0.3820  -29.3050  -23.6980 C.ar   92  PHE92      -0.0000
     12  N          1.7700  -24.5000  -25.4630 N.am   93  GLU93      -0.1979
     13  CA         2.7360  -24.2160  -24.4000 C.3    93  GLU93       0.1602
     14  C          2.5600  -22.7920  -23.8980 C.2    93  GLU93       0.2287
     15  O          2.6820  -22.5100  -22.7150 O.2    93  GLU93      -0.2864
     16  CB         4.1640  -24.4250  -24.8810 C.3    93  GLU93       0.0415
     17  CG         4.5100  -25.8550  -25.2450 C.3    93  GLU93       0.1163
     18  CD         4.6430  -26.8300  -24.0850 C.2    93  GLU93       0.3649
     19  OE1        4.3940  -26.4380  -22.9400 O.co2  93  GLU93      -0.2457
     20  OE2        5.0000  -28.0090  -24.3700 O.co2  93  GLU93      -0.2457
     21  N         -0.5380  -22.8740  -21.4940 N.3    96  ILE96      -0.1231
     22  CA        -0.4460  -23.5410  -20.1940 C.3    96  ILE96       0.1692
     23  C          0.6380  -22.9270  -19.3220 C.2    96  ILE96       0.2591
     24  O          0.5290  -22.9490  -18.0930 O.2    96  ILE96      -0.2718
     25  CB        -0.3190  -25.0730  -20.2880 C.3    96  ILE96       0.0266
     26  CG1        1.0020  -25.5270  -20.9100 C.3    96  ILE96       0.0019
     27  CG2       -1.5160  -25.6440  -21.0210 C.3    96  ILE96       0.0020
     28  CD1        1.2300  -27.0140  -20.8300 C.3    96  ILE96       0.0001
     29  N          1.6970  -22.4090  -19.9360 N.am   97  ARG97      -0.1980
     30  CA         2.7760  -21.8380  -19.1300 C.3    97  ARG97       0.1597
     31  C          2.6320  -20.3680  -18.8360 C.2    97  ARG97       0.2287
     32  O          2.7870  -19.9620  -17.6800 O.2    97  ARG97      -0.2864
     33  CB         4.1210  -22.0660  -19.7910 C.3    97  ARG97       0.0334
     34  CG         4.4070  -23.5390  -19.9960 C.3    97  ARG97       0.0492
     35  CD         5.6670  -23.7390  -20.7840 C.3    97  ARG97       0.2205
     36  NE         5.9070  -25.0940  -21.2220 N.pl3  97  ARG97      -0.0865
     37  CZ         6.8770  -25.8480  -20.7720 C.cat  97  ARG97       0.5346
     38  NH1        7.6770  -25.4550  -19.7830 N.pl3  97  ARG97       0.1354
     39  NH2        7.0160  -27.0120  -21.3700 N.pl3  97  ARG97       0.1354
     40  N         -2.8170  -36.3820  -23.2190 N.3   221  ASP221     -0.1225
     41  CA        -2.9210  -36.2610  -21.7760 C.3   221  ASP221      0.1805
     42  C         -3.9370  -35.2510  -21.2340 C.2   221  ASP221      0.2598
     43  O         -4.9830  -35.6410  -20.6940 O.2   221  ASP221     -0.2718
     44  CB        -1.5210  -36.0730  -21.1470 C.3   221  ASP221      0.1424
     45  CG        -0.6760  -34.9020  -21.6840 C.2   221  ASP221      0.3668
     46  OD1       -1.1060  -34.1000  -22.5060 O.co2 221  ASP221     -0.2456
     47  OD2        0.4980  -34.8340  -21.2610 O.co2 221  ASP221     -0.2456
     48  N         -3.6240  -33.9740  -21.3160 N.am  222  SER222     -0.1952
     49  CA        -4.3870  -32.9860  -20.5790 C.3   222  SER222      0.1924
     50  C         -5.7680  -32.6970  -21.1510 C.2   222  SER222      0.2314
     51  O         -6.5700  -32.0680  -20.4610 O.2   222  SER222     -0.2863
     52  CB        -3.5620  -31.7160  -20.4200 C.3   222  SER222      0.2116
     53  OG        -2.9800  -31.3070  -21.6420 O.3   222  SER222     -0.2180
     54  N          5.0460  -39.5270  -18.5200 N.3   282  LEU282     -0.1245
     55  CA         4.0510  -38.4590  -18.6130 C.3   282  LEU282      0.1561
     56  C          2.6600  -38.9740  -18.2750 C.2   282  LEU282      0.2260
     57  O          1.7950  -38.2220  -17.8710 O.2   282  LEU282     -0.2867
     58  CB         4.0610  -37.8440  -20.0470 C.3   282  LEU282      0.0270
     59  CG         5.0970  -36.7580  -20.3870 C.3   282  LEU282      0.0019
     60  CD1        6.4530  -37.0660  -19.8170 C.3   282  LEU282      0.0001
     61  CD2        5.2180  -36.5150  -21.8880 C.3   282  LEU282      0.0001
     62  N         10.8820  -34.8190  -14.6700 N.3   335  ARG335     -0.1231
     63  CA         9.4430  -34.7860  -14.8780 C.3   335  ARG335      0.1679
     64  C          8.6480  -34.8030  -13.5920 C.2   335  ARG335      0.2434
     65  O          8.9980  -35.4750  -12.6220 O.2   335  ARG335     -0.2733
     66  CB         9.0230  -35.9650  -15.7320 C.3   335  ARG335      0.0321
     67  CG         9.5560  -35.9520  -17.1590 C.3   335  ARG335      0.0489
     68  CD         8.8490  -34.9270  -18.0300 C.3   335  ARG335      0.2205
     69  NE         9.4460  -34.8990  -19.3600 N.pl3 335  ARG335     -0.0865
     70  CZ         9.0750  -34.0540  -20.3160 C.cat 335  ARG335      0.5346
     71  NH1        8.0900  -33.1980  -20.1190 N.pl3 335  ARG335      0.1354
     72  NH2        9.6980  -34.0860  -21.4840 N.pl3 335  ARG335      0.1354
     73  N          7.4930  -34.1180  -13.6040 N.am  336  PRO336     -0.2718
     74  CA         6.6960  -33.9130  -12.3880 C.3   336  PRO336      0.1535
     75  C          5.4640  -34.8010  -12.2110 C.2   336  PRO336      0.2598
     76  O          4.7560  -34.6350  -11.2220 O.2   336  PRO336     -0.2715
     77  CB         6.2100  -32.4720  -12.5610 C.3   336  PRO336      0.0310
     78  CG         5.9380  -32.4000  -14.0520 C.3   336  PRO336      0.0237
     79  CD         7.1020  -33.1350  -14.6510 C.3   336  PRO336      0.0939
     80  N          5.1810  -35.7140  -13.1400 N.am  337  GLU337     -0.1978
     81  CA         3.8570  -36.3260  -13.1260 C.3   337  GLU337      0.1602
     82  C          3.6050  -37.2830  -11.9700 C.2   337  GLU337      0.2287
     83  O          2.4410  -37.4900  -11.6170 O.2   337  GLU337     -0.2864
     84  CB         3.5400  -36.9780  -14.4610 C.3   337  GLU337      0.0415
     85  CG         3.3160  -35.9850  -15.6040 C.3   337  GLU337      0.1163
     86  CD         4.5710  -35.4310  -16.2560 C.2   337  GLU337      0.3649
     87  OE1        5.7050  -35.8850  -15.9400 O.co2 337  GLU337     -0.2457
     88  OE2        4.4120  -34.5210  -17.0930 O.co2 337  GLU337     -0.2457
     89  N          2.5180  -35.1580   -9.0670 N.3   340  ASP340     -0.1239
     90  CA         1.2040  -34.6660   -9.5260 C.3   340  ASP340      0.1674
     91  C          0.1260  -35.6620   -9.0900 C.2   340  ASP340      0.2266
     92  O         -0.8370  -35.3240   -8.3860 O.2   340  ASP340     -0.2867
     93  CB         1.2990  -34.5240  -11.0500 C.3   340  ASP340      0.1410
     94  CG         0.0250  -34.1600  -11.7700 C.2   340  ASP340      0.3668
     95  OD1       -1.0750  -34.2630  -11.1960 O.co2 340  ASP340     -0.2456
     96  OD2        0.1440  -33.8150  -12.9580 O.co2 340  ASP340     -0.2456
     97  N          8.7090  -26.0670  -16.4280 N.3   395  TYR395     -0.1241
     98  CA         7.6500  -26.6720  -15.6440 C.3   395  TYR395      0.1605
     99  C          8.1110  -27.0600  -14.2470 C.2   395  TYR395      0.2264
    100  O          7.2790  -27.1600  -13.3560 O.2   395  TYR395     -0.2867
    101  CB         6.9690  -27.8520  -16.3420 C.3   395  TYR395      0.0534
    102  CG         7.8960  -28.8960  -16.9510 C.ar  395  TYR395     -0.0201
    103  CD1        8.6170  -29.7960  -16.1620 C.ar  395  TYR395     -0.0009
    104  CD2        8.0210  -29.0050  -18.3200 C.ar  395  TYR395     -0.0009
    105  CE1        9.4430  -30.7520  -16.7400 C.ar  395  TYR395      0.0417
    106  CE2        8.8440  -29.9520  -18.8960 C.ar  395  TYR395      0.0417
    107  CZ         9.5710  -30.8030  -18.1110 C.ar  395  TYR395      0.1957
    108  OH        10.4090  -31.7150  -18.7170 O.3   395  TYR395     -0.2866
    109  N          5.5790  -26.9280  -11.1130 N.3   399  GLU399     -0.1245
    110  CA         5.0150  -28.2310  -10.7930 C.3   399  GLU399      0.1567
    111  C          5.6140  -28.9100   -9.5630 C.2   399  GLU399      0.2260
    112  O          5.0240  -28.8430   -8.4960 O.2   399  GLU399     -0.2867
    113  CB         5.0230  -29.1430  -12.0130 C.3   399  GLU399      0.0388
    114  CG         4.1750  -28.6040  -13.1550 C.3   399  GLU399      0.1160
    115  CD         3.6630  -29.6870  -14.0580 C.2   399  GLU399      0.3649
    116  OE1        3.1190  -30.6890  -13.5550 O.co2 399  GLU399     -0.2457
    117  OE2        3.8100  -29.5330  -15.2890 O.co2 399  GLU399     -0.2457
    118  N         -2.9510  -28.1160  -15.6520 N.3   423  THR423     -0.1203
    119  CA        -2.0540  -29.2240  -15.9850 C.3   423  THR423      0.1994
    120  C         -0.5750  -28.8410  -15.8310 C.2   423  THR423      0.2617
    121  O          0.2820  -29.7150  -15.8530 O.2   423  THR423     -0.2717
    122  CB        -2.3340  -29.7690  -17.3980 C.3   423  THR423      0.1784
    123  OG1       -1.7530  -31.0660  -17.5130 O.3   423  THR423     -0.2211
    124  CG2       -1.7940  -28.8680  -18.4940 C.3   423  THR423      0.0376
    125  N         -0.3030  -27.5420  -15.6960 N.am  424  GLU424     -0.1979
    126  CA         1.0130  -26.9820  -15.4210 C.3   424  GLU424      0.1602
    127  C          1.1400  -26.6020  -13.9380 C.2   424  GLU424      0.2287
    128  O          2.0610  -25.9020  -13.5430 O.2   424  GLU424     -0.2864
    129  CB         1.2030  -25.7540  -16.3190 C.3   424  GLU424      0.0415
    130  CG         2.5990  -25.1890  -16.4170 C.3   424  GLU424      0.1163
    131  CD         3.5750  -26.0050  -17.2420 C.2   424  GLU424      0.3649
    132  OE1        3.1610  -26.9360  -17.9530 O.co2 424  GLU424     -0.2457
    133  OE2        4.7990  -25.6820  -17.2150 O.co2 424  GLU424     -0.2457
@<TRIPOS>BOND
     1     1     2    1
     2     5     2    1
     3     5     6    1
     4     2     3    1
     5     6     8   ar
     6     6     7   ar
     7    12     3   am
     8    12    13    1
     9     8    10   ar
    10    17    16    1
    11    17    18    1
    12     3     4    2
    13    16    13    1
    14     7     9   ar
    15    10    11   ar
    16    13    14    1
    17    20    18   ar
    18    18    19   ar
    19    14    15    2
    20     9    11   ar
    21    40    41    1
    22    46    45   ar
    23    61    59    1
    24    41    42    1
    25    41    44    1
    26    45    47   ar
    27    45    44    1
    28    53    52    1
    29    21    22    1
    30    72    70    1
    31    39    37    1
    32    48    42   am
    33    48    49    1
    34    42    43    2
    35    36    35    1
    36    36    37    2
    37    50    49    1
    38    50    51    2
    39    27    25    1
    40    26    28    1
    41    26    25    1
    42    35    34    1
    43    37    38    1
    44    49    52    1
    45    59    58    1
    46    59    60    1
    47    70    71    1
    48    70    69    2
    49    25    22    1
    50    22    23    1
    51    58    55    1
    52    34    33    1
    53    29    23   am
    54    29    30    1
    55    33    30    1
    56    69    68    1
    57    23    24    2
    58    30    31    1
    59   106   104   ar
    60   106   107   ar
    61    31    32    2
    62   108   107    1
    63    55    54    1
    64    55    56    1
    65   124   122    1
    66   104   102   ar
    67    56    57    2
    68   107   105   ar
    69    68    67    1
    70   132   131   ar
    71   123   122    1
    72   122   119    1
    73   131   133   ar
    74   131   130    1
    75    67    66    1
    76    88    86   ar
    77   102   101    1
    78   102   103   ar
    79   105   103   ar
    80    97    98    1
    81   130   129    1
    82   101    98    1
    83   129   126    1
    84    86    87   ar
    85    86    85    1
    86   119   120    1
    87   119   118    1
    88   121   120    2
    89   120   125   am
    90    66    63    1
    91   125   126    1
    92    98    99    1
    93    85    84    1
    94   126   127    1
    95   117   115   ar
    96    63    62    1
    97    63    64    1
    98    79    78    1
    99    79    73    1
   100    84    81    1
   101    99   100    2
   102   115   116   ar
   103   115   114    1
   104    78    77    1
   105   127   128    2
   106    73    64   am
   107    73    74    1
   108    64    65    2
   109   114   113    1
   110    80    81    1
   111    80    75   am
   112    81    82    1
   113    96    94   ar
   114    77    74    1
   115    74    75    1
   116    75    76    2
   117   113   110    1
   118    82    83    2
   119    94    95   ar
   120    94    93    1
   121   109   110    1
   122    93    90    1
   123   110   111    1
   124   111   112    2
   125    90    91    1
   126    90    89    1
   127    91    92    2
