@<TRIPOS>MOLECULE
tmp/4ayrA01.pdb
 122 114 0 0 0
SMALL
GASTEIGER

@<TRIPOS>ATOM
      1  N          4.3040   21.5960   13.2450 N.3    88  GLN88      -0.1245
      2  CA         3.4920   22.7960   13.1840 C.3    88  GLN88       0.1566
      3  C          2.2960   22.5340   12.2700 C.2    88  GLN88       0.2260
      4  O          2.4660   22.2440   11.0900 O.2    88  GLN88      -0.2867
      5  CB         4.2990   23.9900   12.7080 C.3    88  GLN88       0.0367
      6  CG         3.5630   25.3130   12.9410 C.3    88  GLN88       0.0905
      7  CD         4.3340   26.5070   12.4630 C.2    88  GLN88       0.2608
      8  OE1        5.5010   26.4090   12.0950 O.2    88  GLN88      -0.2717
      9  NE2        3.6850   27.6410   12.4650 N.am   88  GLN88      -0.0878
     10  N         -0.2020   24.2180   10.8760 N.3    90  PHE90      -0.1227
     11  CA        -0.4210   25.0520    9.7000 C.3    90  PHE90       0.1736
     12  C          0.5230   24.6630    8.5660 C.2    90  PHE90       0.2595
     13  O          0.0980   24.4640    7.4070 O.2    90  PHE90      -0.2718
     14  CB        -0.2130   26.5090   10.1110 C.3    90  PHE90       0.0547
     15  CG        -0.0300   27.4810    8.9730 C.ar   90  PHE90      -0.0202
     16  CD1       -1.1040   28.0200    8.2960 C.ar   90  PHE90      -0.0042
     17  CD2        1.2370   27.9080    8.6350 C.ar   90  PHE90      -0.0042
     18  CE1       -0.9070   28.9430    7.2750 C.ar   90  PHE90      -0.0003
     19  CE2        1.4420   28.8060    7.6070 C.ar   90  PHE90      -0.0003
     20  CZ         0.3730   29.3330    6.9310 C.ar   90  PHE90      -0.0000
     21  N          1.8230   24.6040    8.8590 N.am   91  GLU91      -0.1979
     22  CA         2.8040   24.3210    7.8150 C.3    91  GLU91       0.1602
     23  C          2.6160   22.9110    7.2730 C.2    91  GLU91       0.2287
     24  O          2.7590   22.6590    6.0690 O.2    91  GLU91      -0.2864
     25  CB         4.2410   24.4790    8.3350 C.3    91  GLU91       0.0415
     26  CG         4.6290   25.8580    8.8420 C.3    91  GLU91       0.1163
     27  CD         4.7510   26.9600    7.8160 C.2    91  GLU91       0.3649
     28  OE1        4.7660   26.6700    6.6280 O.co2  91  GLU91      -0.2457
     29  OE2        4.8810   28.1420    8.2500 O.co2  91  GLU91      -0.2457
     30  N         -0.5030   22.9690    4.8370 N.3    94  ILE94      -0.1245
     31  CA        -0.4230   23.6490    3.5350 C.3    94  ILE94       0.1561
     32  C          0.6590   23.0310    2.6650 C.2    94  ILE94       0.2260
     33  O          0.5460   23.0450    1.4360 O.2    94  ILE94      -0.2867
     34  CB        -0.2850   25.1830    3.6440 C.3    94  ILE94       0.0252
     35  CG1        1.0570   25.6360    4.2220 C.3    94  ILE94       0.0019
     36  CG2       -1.4660   25.7570    4.4150 C.3    94  ILE94       0.0019
     37  CD1        1.2780   27.1230    4.1550 C.3    94  ILE94       0.0001
     38  N         -1.1750   25.1100   17.8250 N.3   137  ARG137     -0.1245
     39  CA        -0.1840   25.3370   16.7720 C.3   137  ARG137      0.1563
     40  C          0.6540   24.1250   16.4430 C.2   137  ARG137      0.2260
     41  O          1.0730   23.9860   15.2870 O.2   137  ARG137     -0.2867
     42  CB         0.7450   26.4880   17.1160 C.3   137  ARG137      0.0307
     43  CG         0.0550   27.8280   17.2110 C.3   137  ARG137      0.0489
     44  CD         1.0550   28.9150   17.4570 C.3   137  ARG137      0.2205
     45  NE         1.8530   29.2060   16.2940 N.pl3 137  ARG137     -0.0865
     46  CZ         3.0260   29.7970   16.3330 C.cat 137  ARG137      0.5346
     47  NH1        3.6070   30.0510   17.5050 N.pl3 137  ARG137      0.1354
     48  NH2        3.6200   30.1120   15.1900 N.pl3 137  ARG137      0.1354
     49  N         -3.1640   32.3320   15.5720 N.3   152  ASN152     -0.1240
     50  CA        -3.4710   33.4820   14.7380 C.3   152  ASN152      0.1653
     51  C         -4.3890   33.0370   13.6200 C.2   152  ASN152      0.2266
     52  O         -4.5990   31.8410   13.3960 O.2   152  ASN152     -0.2867
     53  CB        -2.1910   34.1430   14.2220 C.3   152  ASN152      0.1155
     54  CG        -1.3220   33.1710   13.4750 C.2   152  ASN152      0.2627
     55  OD1       -1.6890   32.7010   12.4120 O.2   152  ASN152     -0.2716
     56  ND2       -0.2090   32.7620   14.1130 N.am  152  ASN152     -0.0877
     57  N         -4.1820   33.0240   10.3630 N.3   154  ALA154     -0.1231
     58  CA        -3.6320   32.1460    9.3330 C.3   154  ALA154      0.1694
     59  C         -3.5340   30.7050    9.8430 C.2   154  ALA154      0.2591
     60  O         -3.8890   29.7430    9.1440 O.2   154  ALA154     -0.2718
     61  CB        -2.2740   32.6340    8.8660 C.3   154  ALA154      0.0304
     62  N         -3.0650   30.5380   11.0830 N.am  155  GLU155     -0.1979
     63  CA        -2.8260   29.2110   11.6210 C.3   155  GLU155      0.1602
     64  C         -4.0870   28.5340   12.1630 C.2   155  GLU155      0.2287
     65  O         -4.0260   27.3390   12.4730 O.2   155  GLU155     -0.2864
     66  CB        -1.6960   29.2140   12.6470 C.3   155  GLU155      0.0415
     67  CG        -0.3700   29.6310   12.0390 C.3   155  GLU155      0.1163
     68  CD         0.8010   29.4380   12.9820 C.2   155  GLU155      0.3649
     69  OE1        0.9370   28.3630   13.5960 O.co2 155  GLU155     -0.2457
     70  OE2        1.5730   30.4050   13.1820 O.co2 155  GLU155     -0.2457
     71  N          1.0980   39.0220    7.3750 N.3   216  VAL216     -0.1231
     72  CA         1.5010   37.8170    8.0570 C.3   216  VAL216      0.1692
     73  C          0.6750   37.6600    9.3410 C.2   216  VAL216      0.2592
     74  O          0.3030   38.6340   10.0000 O.2   216  VAL216     -0.2718
     75  CB         3.0110   37.8120    8.3420 C.3   216  VAL216      0.0266
     76  CG1        3.7940   37.7770    7.0370 C.3   216  VAL216      0.0020
     77  CG2        3.4270   39.0220    9.1630 C.3   216  VAL216      0.0020
     78  N          0.3740   36.4090    9.6650 N.am  217  TYR217     -0.1976
     79  CA        -0.4920   36.0010   10.8030 C.3   217  TYR217      0.1639
     80  C         -1.9750   36.0390   10.4700 C.2   217  TYR217      0.2290
     81  O         -2.7940   35.5690   11.2700 O.2   217  TYR217     -0.2864
     82  CB        -0.2090   36.7410   12.0930 C.3   217  TYR217      0.0560
     83  CG         1.2710   36.8630   12.4060 C.ar  217  TYR217     -0.0198
     84  CD1        2.1100   35.7510   12.3920 C.ar  217  TYR217     -0.0009
     85  CD2        1.8350   38.1010   12.6940 C.ar  217  TYR217     -0.0009
     86  CE1        3.4700   35.8770   12.6740 C.ar  217  TYR217      0.0417
     87  CE2        3.1830   38.2350   12.9770 C.ar  217  TYR217      0.0417
     88  CZ         3.9920   37.1220   12.9620 C.ar  217  TYR217      0.1957
     89  OH         5.3330   37.2600   13.2480 O.3   217  TYR217     -0.2866
     90  N         -3.1710   36.7450    6.5090 N.3   219  ASP219     -0.1225
     91  CA        -3.2050   36.5380    5.0750 C.3   219  ASP219      0.1805
     92  C         -4.1180   35.4340    4.5410 C.2   219  ASP219      0.2598
     93  O         -5.1780   35.7190    3.9850 O.2   219  ASP219     -0.2718
     94  CB        -1.7630   36.4620    4.5010 C.3   219  ASP219      0.1424
     95  CG        -0.7970   35.4960    5.1810 C.2   219  ASP219      0.3668
     96  OD1       -1.1870   34.5570    5.9010 O.co2 219  ASP219     -0.2456
     97  OD2        0.4260   35.7010    4.9050 O.co2 219  ASP219     -0.2456
     98  N         -3.6860   34.1850    4.6300 N.am  220  SER220     -0.1952
     99  CA        -4.3750   33.1120    3.9270 C.3   220  SER220      0.1924
    100  C         -5.7640   32.7650    4.4780 C.2   220  SER220      0.2314
    101  O         -6.5390   32.1310    3.7650 O.2   220  SER220     -0.2863
    102  CB        -3.4780   31.8920    3.8190 C.3   220  SER220      0.2116
    103  OG        -2.9070   31.5420    5.0750 O.3   220  SER220     -0.2180
    104  N          5.0160   39.5450    1.7870 N.3   280  LEU280     -0.1245
    105  CA         4.0450   38.4770    1.6980 C.3   280  LEU280      0.1561
    106  C          2.6320   39.0090    1.4830 C.2   280  LEU280      0.2260
    107  O          1.7590   38.2670    1.0240 O.2   280  LEU280     -0.2867
    108  CB         4.1020   37.5630    2.9110 C.3   280  LEU280      0.0270
    109  CG         5.3340   36.6450    3.0360 C.3   280  LEU280      0.0019
    110  CD1        6.6370   37.3790    3.3210 C.3   280  LEU280      0.0001
    111  CD2        5.0810   35.6240    4.1230 C.3   280  LEU280      0.0001
    112  N         10.8990   34.8670   -2.0220 N.3   333  ARG333     -0.1245
    113  CA         9.4570   34.8480   -1.8250 C.3   333  ARG333      0.1563
    114  C          8.6710   34.8840   -3.1250 C.2   333  ARG333      0.2260
    115  O          9.0490   35.5690   -4.0940 O.2   333  ARG333     -0.2867
    116  CB         9.0320   36.0210   -0.9640 C.3   333  ARG333      0.0307
    117  CG         9.5350   35.9780    0.4770 C.3   333  ARG333      0.0489
    118  CD         8.7930   34.9460    1.3150 C.3   333  ARG333      0.2205
    119  NE         9.3310   34.9240    2.6760 N.pl3 333  ARG333     -0.0865
    120  CZ         8.9200   34.0900    3.6300 C.cat 333  ARG333      0.5346
    121  NH1        7.9420   33.2310    3.4180 N.pl3 333  ARG333      0.1354
    122  NH2        9.5060   34.1270    4.8220 N.pl3 333  ARG333      0.1354
@<TRIPOS>BOND
     1   115   114    2
     2   114   113    1
     3   112   113    1
     4   113   116    1
     5   116   117    1
     6   117   118    1
     7   107   106    2
     8   118   119    1
     9    33    32    2
    10   106   105    1
    11   105   104    1
    12   105   108    1
    13    32    31    1
    14   119   120    2
    15   108   109    1
    16   109   110    1
    17   109   111    1
    18   121   120    1
    19    31    34    1
    20    31    30    1
    21   120   122    1
    22    34    35    1
    23    34    36    1
    24   101   100    2
    25   102    99    1
    26   102   103    1
    27    99   100    1
    28    99    98    1
    29    93    92    2
    30    37    35    1
    31    94    91    1
    32    94    95    1
    33    92    98   am
    34    92    91    1
    35    97    95   ar
    36    91    90    1
    37    95    96   ar
    38    24    23    2
    39    28    27   ar
    40    20    18   ar
    41    20    19   ar
    42    76    75    1
    43    23    22    1
    44    18    16   ar
    45    71    72    1
    46    13    12    2
    47    19    17   ar
    48    22    25    1
    49    22    21    1
    50    27    29   ar
    51    27    26    1
    52    72    75    1
    53    72    73    1
    54    16    15   ar
    55    25    26    1
    56    75    77    1
    57    12    21   am
    58    12    11    1
    59    17    15   ar
    60    61    58    1
    61    15    14    1
    62    60    59    2
    63    58    59    1
    64    58    57    1
    65    73    78   am
    66    73    74    2
    67    78    79    1
    68    11    14    1
    69    11    10    1
    70    59    62   am
    71    80    79    1
    72    80    81    2
    73    79    82    1
    74    62    63    1
    75     4     3    2
    76    63    64    1
    77    63    66    1
    78    67    66    1
    79    67    68    1
    80    82    83    1
    81     8     7    2
    82    64    65    2
    83     3     2    1
    84    84    83   ar
    85    84    86   ar
    86    83    85   ar
    87    55    54    2
    88     7     9   am
    89     7     6    1
    90    86    88   ar
    91    85    87   ar
    92     5     6    1
    93     5     2    1
    94    88    87   ar
    95    88    89    1
    96    68    70   ar
    97    68    69   ar
    98     2     1    1
    99    52    51    2
   100    54    56   am
   101    54    53    1
   102    51    50    1
   103    53    50    1
   104    50    49    1
   105    48    46    1
   106    41    40    2
   107    45    46    2
   108    45    44    1
   109    46    47    1
   110    40    39    1
   111    39    42    1
   112    39    38    1
   113    42    43    1
   114    43    44    1
