@<TRIPOS>MOLECULE
tmp/4ayrA00.pdb
 133 127 0 0 0
SMALL
GASTEIGER

@<TRIPOS>ATOM
      1  N         -0.2020   24.2180   10.8760 N.3    90  PHE90      -0.1227
      2  CA        -0.4210   25.0520    9.7000 C.3    90  PHE90       0.1736
      3  C          0.5230   24.6630    8.5660 C.2    90  PHE90       0.2595
      4  O          0.0980   24.4640    7.4070 O.2    90  PHE90      -0.2718
      5  CB        -0.2130   26.5090   10.1110 C.3    90  PHE90       0.0547
      6  CG        -0.0300   27.4810    8.9730 C.ar   90  PHE90      -0.0202
      7  CD1       -1.1040   28.0200    8.2960 C.ar   90  PHE90      -0.0042
      8  CD2        1.2370   27.9080    8.6350 C.ar   90  PHE90      -0.0042
      9  CE1       -0.9070   28.9430    7.2750 C.ar   90  PHE90      -0.0003
     10  CE2        1.4420   28.8060    7.6070 C.ar   90  PHE90      -0.0003
     11  CZ         0.3730   29.3330    6.9310 C.ar   90  PHE90      -0.0000
     12  N          1.8230   24.6040    8.8590 N.am   91  GLU91      -0.1979
     13  CA         2.8040   24.3210    7.8150 C.3    91  GLU91       0.1602
     14  C          2.6160   22.9110    7.2730 C.2    91  GLU91       0.2287
     15  O          2.7590   22.6590    6.0690 O.2    91  GLU91      -0.2864
     16  CB         4.2410   24.4790    8.3350 C.3    91  GLU91       0.0415
     17  CG         4.6290   25.8580    8.8420 C.3    91  GLU91       0.1163
     18  CD         4.7510   26.9600    7.8160 C.2    91  GLU91       0.3649
     19  OE1        4.7660   26.6700    6.6280 O.co2  91  GLU91      -0.2457
     20  OE2        4.8810   28.1420    8.2500 O.co2  91  GLU91      -0.2457
     21  N         -0.5030   22.9690    4.8370 N.3    94  ILE94      -0.1231
     22  CA        -0.4230   23.6490    3.5350 C.3    94  ILE94       0.1692
     23  C          0.6590   23.0310    2.6650 C.2    94  ILE94       0.2591
     24  O          0.5460   23.0450    1.4360 O.2    94  ILE94      -0.2718
     25  CB        -0.2850   25.1830    3.6440 C.3    94  ILE94       0.0266
     26  CG1        1.0570   25.6360    4.2220 C.3    94  ILE94       0.0019
     27  CG2       -1.4660   25.7570    4.4150 C.3    94  ILE94       0.0020
     28  CD1        1.2780   27.1230    4.1550 C.3    94  ILE94       0.0001
     29  N          1.7140   22.4900    3.2750 N.am   95  ARG95      -0.1980
     30  CA         2.8290   21.9380    2.5120 C.3    95  ARG95       0.1597
     31  C          2.6600   20.4650    2.1850 C.2    95  ARG95       0.2287
     32  O          2.8110   20.0490    1.0340 O.2    95  ARG95      -0.2864
     33  CB         4.1500   22.1330    3.2580 C.3    95  ARG95       0.0334
     34  CG         4.4770   23.6110    3.4710 C.3    95  ARG95       0.0492
     35  CD         5.6710   23.8120    4.3150 C.3    95  ARG95       0.2205
     36  NE         5.9780   25.1800    4.6660 N.pl3  95  ARG95      -0.0865
     37  CZ         6.9790   25.8580    4.1490 C.cat  95  ARG95       0.5346
     38  NH1        7.6890   25.4100    3.1180 N.pl3  95  ARG95       0.1354
     39  NH2        7.2720   27.0040    4.7050 N.pl3  95  ARG95       0.1354
     40  N         -3.1710   36.7450    6.5090 N.3   219  ASP219     -0.1225
     41  CA        -3.2050   36.5380    5.0750 C.3   219  ASP219      0.1805
     42  C         -4.1180   35.4340    4.5410 C.2   219  ASP219      0.2598
     43  O         -5.1780   35.7190    3.9850 O.2   219  ASP219     -0.2718
     44  CB        -1.7630   36.4620    4.5010 C.3   219  ASP219      0.1424
     45  CG        -0.7970   35.4960    5.1810 C.2   219  ASP219      0.3668
     46  OD1       -1.1870   34.5570    5.9010 O.co2 219  ASP219     -0.2456
     47  OD2        0.4260   35.7010    4.9050 O.co2 219  ASP219     -0.2456
     48  N         -3.6860   34.1850    4.6300 N.am  220  SER220     -0.1952
     49  CA        -4.3750   33.1120    3.9270 C.3   220  SER220      0.1924
     50  C         -5.7640   32.7650    4.4780 C.2   220  SER220      0.2314
     51  O         -6.5390   32.1310    3.7650 O.2   220  SER220     -0.2863
     52  CB        -3.4780   31.8920    3.8190 C.3   220  SER220      0.2116
     53  OG        -2.9070   31.5420    5.0750 O.3   220  SER220     -0.2180
     54  N          5.0160   39.5450    1.7870 N.3   280  LEU280     -0.1245
     55  CA         4.0450   38.4770    1.6980 C.3   280  LEU280      0.1561
     56  C          2.6320   39.0090    1.4830 C.2   280  LEU280      0.2260
     57  O          1.7590   38.2670    1.0240 O.2   280  LEU280     -0.2867
     58  CB         4.1020   37.5630    2.9110 C.3   280  LEU280      0.0270
     59  CG         5.3340   36.6450    3.0360 C.3   280  LEU280      0.0019
     60  CD1        6.6370   37.3790    3.3210 C.3   280  LEU280      0.0001
     61  CD2        5.0810   35.6240    4.1230 C.3   280  LEU280      0.0001
     62  N         10.8990   34.8670   -2.0220 N.3   333  ARG333     -0.1231
     63  CA         9.4570   34.8480   -1.8250 C.3   333  ARG333      0.1679
     64  C          8.6710   34.8840   -3.1250 C.2   333  ARG333      0.2434
     65  O          9.0490   35.5690   -4.0940 O.2   333  ARG333     -0.2733
     66  CB         9.0320   36.0210   -0.9640 C.3   333  ARG333      0.0321
     67  CG         9.5350   35.9780    0.4770 C.3   333  ARG333      0.0489
     68  CD         8.7930   34.9460    1.3150 C.3   333  ARG333      0.2205
     69  NE         9.3310   34.9240    2.6760 N.pl3 333  ARG333     -0.0865
     70  CZ         8.9200   34.0900    3.6300 C.cat 333  ARG333      0.5346
     71  NH1        7.9420   33.2310    3.4180 N.pl3 333  ARG333      0.1354
     72  NH2        9.5060   34.1270    4.8220 N.pl3 333  ARG333      0.1354
     73  N          7.5120   34.1940   -3.1490 N.am  334  PRO334     -0.2718
     74  CA         6.7340   34.0100   -4.3760 C.3   334  PRO334      0.1535
     75  C          5.5070   34.9020   -4.5600 C.2   334  PRO334      0.2598
     76  O          4.7860   34.7160   -5.5510 O.2   334  PRO334     -0.2715
     77  CB         6.2610   32.5600   -4.2420 C.3   334  PRO334      0.0310
     78  CG         5.9670   32.4590   -2.7750 C.3   334  PRO334      0.0237
     79  CD         7.1160   33.1910   -2.1260 C.3   334  PRO334      0.0939
     80  N          5.2090   35.8220   -3.6380 N.am  335  GLU335     -0.1978
     81  CA         3.8740   36.4260   -3.6520 C.3   335  GLU335      0.1602
     82  C          3.6390   37.3930   -4.8210 C.2   335  GLU335      0.2287
     83  O          2.4830   37.6080   -5.1840 O.2   335  GLU335     -0.2864
     84  CB         3.5510   37.0940   -2.3250 C.3   335  GLU335      0.0415
     85  CG         3.2950   36.1070   -1.1980 C.3   335  GLU335      0.1163
     86  CD         4.5370   35.5040   -0.5610 C.2   335  GLU335      0.3649
     87  OE1        5.6750   35.9620   -0.8190 O.co2 335  GLU335     -0.2457
     88  OE2        4.3590   34.5690    0.2540 O.co2 335  GLU335     -0.2457
     89  N          2.5390   35.2370   -7.6630 N.3   338  ASP338     -0.1239
     90  CA         1.2280   34.7520   -7.1940 C.3   338  ASP338      0.1674
     91  C          0.1460   35.7400   -7.6320 C.2   338  ASP338      0.2266
     92  O         -0.8190   35.3960   -8.3250 O.2   338  ASP338     -0.2867
     93  CB         1.3240   34.6220   -5.6570 C.3   338  ASP338      0.1410
     94  CG         0.0520   34.2490   -4.9350 C.2   338  ASP338      0.3668
     95  OD1       -1.0540   34.3470   -5.4980 O.co2 338  ASP338     -0.2456
     96  OD2        0.1790   33.8970   -3.7290 O.co2 338  ASP338     -0.2456
     97  N          8.7150   26.1050   -0.2170 N.3   393  TYR393     -0.1241
     98  CA         7.6510   26.7110   -1.0190 C.3   393  TYR393      0.1605
     99  C          8.1400   27.0970   -2.4130 C.2   393  TYR393      0.2264
    100  O          7.3070   27.2070   -3.3160 O.2   393  TYR393     -0.2867
    101  CB         6.9710   27.9000   -0.3100 C.3   393  TYR393      0.0534
    102  CG         7.9010   28.9430    0.2810 C.ar  393  TYR393     -0.0201
    103  CD1        8.6090   29.8470   -0.5090 C.ar  393  TYR393     -0.0009
    104  CD2        8.0400   29.0460    1.6580 C.ar  393  TYR393     -0.0009
    105  CE1        9.4400   30.8170    0.0670 C.ar  393  TYR393      0.0417
    106  CE2        8.8660   29.9950    2.2400 C.ar  393  TYR393      0.0417
    107  CZ         9.5760   30.8700    1.4450 C.ar  393  TYR393      0.1957
    108  OH        10.3960   31.7810    2.0600 O.3   393  TYR393     -0.2866
    109  N          5.6160   27.0000   -5.5750 N.3   397  GLU397     -0.1245
    110  CA         5.0450   28.3080   -5.9050 C.3   397  GLU397      0.1567
    111  C          5.6460   28.9920   -7.1200 C.2   397  GLU397      0.2260
    112  O          5.0660   28.9260   -8.2000 O.2   397  GLU397     -0.2867
    113  CB         5.0380   29.2120   -4.6760 C.3   397  GLU397      0.0388
    114  CG         4.1780   28.6640   -3.5440 C.3   397  GLU397      0.1160
    115  CD         3.6320   29.7350   -2.6240 C.2   397  GLU397      0.3649
    116  OE1        3.1140   30.7590   -3.1420 O.co2 397  GLU397     -0.2457
    117  OE2        3.7400   29.5460   -1.3930 O.co2 397  GLU397     -0.2457
    118  N         -2.9510   28.1690   -1.0070 N.3   421  THR421     -0.1203
    119  CA        -2.0490   29.2680   -0.6630 C.3   421  THR421      0.1994
    120  C         -0.5710   28.8930   -0.8520 C.2   421  THR421      0.2617
    121  O          0.2890   29.7700   -0.8280 O.2   421  THR421     -0.2717
    122  CB        -2.3000   29.8150    0.7600 C.3   421  THR421      0.1784
    123  OG1       -1.7250   31.1170    0.8570 O.3   421  THR421     -0.2211
    124  CG2       -1.7230   28.9260    1.8450 C.3   421  THR421      0.0376
    125  N         -0.2990   27.5920   -0.9960 N.am  422  GLU422     -0.1979
    126  CA         1.0230   27.0280   -1.2730 C.3   422  GLU422      0.1602
    127  C          1.1520   26.6720   -2.7630 C.2   422  GLU422      0.2287
    128  O          2.0860   25.9830   -3.1660 O.2   422  GLU422     -0.2864
    129  CB         1.2140   25.7750   -0.4020 C.3   422  GLU422      0.0415
    130  CG         2.6260   25.2270   -0.2940 C.3   422  GLU422      0.1163
    131  CD         3.5530   26.0340    0.5860 C.2   422  GLU422      0.3649
    132  OE1        3.0960   26.9410    1.3020 O.co2 422  GLU422     -0.2457
    133  OE2        4.7820   25.7130    0.6170 O.co2 422  GLU422     -0.2457
@<TRIPOS>BOND
     1    92    91    2
     2   112   111    2
     3    89    90    1
     4    91    90    1
     5    90    93    1
     6   111   110    1
     7   110   109    1
     8   110   113    1
     9    93    94    1
    10    76    75    2
    11    95    94   ar
    12    83    82    2
    13    94    96   ar
    14    82    81    1
    15   113   114    1
    16    75    74    1
    17    75    80   am
    18    74    77    1
    19    74    73    1
    20    77    78    1
    21    65    64    2
    22    81    80    1
    23    81    84    1
    24   114   115    1
    25   100    99    2
    26   128   127    2
    27    73    64   am
    28    73    79    1
    29   116   115   ar
    30    64    63    1
    31    78    79    1
    32   127   126    1
    33   115   117   ar
    34    99    98    1
    35    84    85    1
    36    62    63    1
    37    63    66    1
    38   126   125    1
    39   126   129    1
    40    85    86    1
    41    98   101    1
    42    98    97    1
    43   118   119    1
    44   125   120   am
    45    66    67    1
    46   120   121    2
    47   120   119    1
    48    87    86   ar
    49   119   122    1
    50    86    88   ar
    51   103   105   ar
    52   103   102   ar
    53   129   130    1
    54   101   102    1
    55   130   131    1
    56   105   107   ar
    57   102   104   ar
    58    67    68    1
    59   131   133   ar
    60   131   132   ar
    61   122   123    1
    62   122   124    1
    63    57    56    2
    64    32    31    2
    65    68    69    1
    66    24    23    2
    67   107   108    1
    68   107   106   ar
    69    56    55    1
    70   104   106   ar
    71    55    54    1
    72    55    58    1
    73    31    30    1
    74    30    33    1
    75    30    29    1
    76    23    29   am
    77    23    22    1
    78    69    70    2
    79    58    59    1
    80    59    60    1
    81    59    61    1
    82    38    37    1
    83    33    34    1
    84    71    70    1
    85    34    35    1
    86    22    25    1
    87    22    21    1
    88    70    72    1
    89    25    26    1
    90    25    27    1
    91    51    50    2
    92    52    49    1
    93    52    53    1
    94    49    50    1
    95    49    48    1
    96    43    42    2
    97    37    36    2
    98    37    39    1
    99    28    26    1
   100    35    36    1
   101    44    41    1
   102    44    45    1
   103    42    48   am
   104    42    41    1
   105    47    45   ar
   106    41    40    1
   107    45    46   ar
   108    15    14    2
   109    19    18   ar
   110    11     9   ar
   111    11    10   ar
   112    14    13    1
   113     9     7   ar
   114     4     3    2
   115    10     8   ar
   116    13    16    1
   117    13    12    1
   118    18    20   ar
   119    18    17    1
   120     7     6   ar
   121    16    17    1
   122     3    12   am
   123     3     2    1
   124     8     6   ar
   125     6     5    1
   126     2     5    1
   127     2     1    1
