@<TRIPOS>MOLECULE
tmp/4aytA03.pdb
 76 67 0 0 0
SMALL
GASTEIGER

@<TRIPOS>ATOM
      1  N        -59.3940   85.3830   -5.4590 N.3   154  MET154     -0.1245
      2  CA       -58.4600   86.4410   -5.8420 C.3   154  MET154      0.1570
      3  C        -59.0370   87.2010   -7.0390 C.2   154  MET154      0.2261
      4  O        -58.9870   88.4310   -7.0810 O.2   154  MET154     -0.2867
      5  CB       -57.0950   85.8380   -6.1700 C.3   154  MET154      0.0387
      6  CG       -56.1890   85.7030   -4.9770 C.3   154  MET154      0.0595
      7  SD       -54.6320   84.9180   -5.4230 S.3   154  MET154     -0.1393
      8  CE       -54.0260   86.0080   -6.6500 C.3   154  MET154      0.0692
      9  N        -50.8940   89.0850  -10.7670 N.3   165  VAL165     -0.1245
     10  CA       -50.1930   88.0340   -9.9950 C.3   165  VAL165      0.1561
     11  C        -49.8970   86.8770  -10.9480 C.2   165  VAL165      0.2260
     12  O        -48.7460   86.4510  -11.0520 O.2   165  VAL165     -0.2867
     13  CB       -50.9630   87.5600   -8.7200 C.3   165  VAL165      0.0252
     14  CG1      -50.2180   86.4510   -8.0030 C.3   165  VAL165      0.0019
     15  CG2      -51.2130   88.7050   -7.7540 C.3   165  VAL165      0.0019
     16  N        -45.9950   85.5410  -11.4300 N.3   169  VAL169     -0.1245
     17  CA       -45.6190   84.3120  -10.7160 C.3   169  VAL169      0.1561
     18  C        -45.0960   83.2110  -11.7060 C.2   169  VAL169      0.2260
     19  O        -43.9200   82.8680  -11.5540 O.2   169  VAL169     -0.2867
     20  CB       -46.7470   83.8000   -9.7810 C.3   169  VAL169      0.0252
     21  CG1      -46.4650   82.3860   -9.2780 C.3   169  VAL169      0.0019
     22  CG2      -46.9520   84.7610   -8.6140 C.3   169  VAL169      0.0019
     23  N        -41.4020   81.6880  -11.4440 N.3   173  SER173     -0.1217
     24  CA       -41.4290   80.2930  -11.0000 C.3   173  SER173      0.1889
     25  C        -40.6670   79.4050  -11.9740 C.2   173  SER173      0.2288
     26  O        -39.8250   78.6200  -11.5310 O.2   173  SER173     -0.2866
     27  CB       -42.8630   79.7940  -10.8340 C.3   173  SER173      0.2089
     28  OG       -43.5370   80.4700   -9.7850 O.3   173  SER173     -0.2183
     29  N        -42.4910   90.6180   -5.6010 N.3   256  ILE256     -0.1245
     30  CA       -43.8250   90.2420   -6.0920 C.3   256  ILE256      0.1561
     31  C        -44.8840   90.8010   -5.1300 C.2   256  ILE256      0.2260
     32  O        -45.8920   91.3410   -5.5930 O.2   256  ILE256     -0.2867
     33  CB       -43.9490   88.7040   -6.3200 C.3   256  ILE256      0.0252
     34  CG1      -43.1410   88.2960   -7.5930 C.3   256  ILE256      0.0019
     35  CG2      -45.4310   88.2480   -6.4100 C.3   256  ILE256      0.0019
     36  CD1      -42.8140   86.8310   -7.7570 C.3   256  ILE256      0.0001
     37  N        -53.9660   85.5170   -1.4790 N.3   285  ALA285     -0.1245
     38  CA       -52.7270   85.3100   -2.2430 C.3   285  ALA285      0.1562
     39  C        -51.6910   84.5780   -1.3890 C.2   285  ALA285      0.2260
     40  O        -51.0100   83.6790   -1.8780 O.2   285  ALA285     -0.2867
     41  CB       -52.1820   86.6330   -2.7420 C.3   285  ALA285      0.0290
     42  N        -52.9200   80.9640   -1.0850 N.3   288  VAL288     -0.1231
     43  CA       -52.6690   80.2390   -2.3370 C.3   288  VAL288      0.1692
     44  C        -51.2070   79.7530   -2.3290 C.2   288  VAL288      0.2592
     45  O        -50.9710   78.5850   -2.6170 O.2   288  VAL288     -0.2718
     46  CB       -53.0370   81.0570   -3.6120 C.3   288  VAL288      0.0266
     47  CG1      -52.6510   80.3200   -4.8880 C.3   288  VAL288      0.0020
     48  CG2      -54.5230   81.3730   -3.6470 C.3   288  VAL288      0.0020
     49  N        -50.2640   80.6200   -1.9460 N.am  289  GLY289     -0.1957
     50  CA       -48.8430   80.2760   -1.8500 C.3   289  GLY289      0.1869
     51  C        -48.5930   79.0520   -0.9870 C.2   289  GLY289      0.2309
     52  O        -47.8840   78.1290   -1.3990 O.2   289  GLY289     -0.2863
     53  N        -49.9690   75.9050   -2.6700 N.3   292  ILE292     -0.1231
     54  CA       -49.0850   75.4520   -3.7510 C.3   292  ILE292      0.1692
     55  C        -47.9150   74.6720   -3.1290 C.2   292  ILE292      0.2592
     56  O        -47.5160   73.6450   -3.6790 O.2   292  ILE292     -0.2718
     57  CB       -48.6360   76.6340   -4.6500 C.3   292  ILE292      0.0266
     58  CG1      -49.7950   77.0510   -5.5770 C.3   292  ILE292      0.0019
     59  CG2      -47.3600   76.3050   -5.4550 C.3   292  ILE292      0.0020
     60  CD1      -49.7270   78.4270   -6.0820 C.3   292  ILE292      0.0001
     61  N        -47.4290   75.1340   -1.9720 N.am  293  GLY293     -0.1957
     62  CA       -46.3910   74.4550   -1.2040 C.3   293  GLY293      0.1869
     63  C        -46.9220   73.1440   -0.6560 C.2   293  GLY293      0.2309
     64  O        -46.1780   72.1700   -0.5480 O.2   293  GLY293     -0.2863
     65  N        -47.1430   70.7210   -3.5950 N.3   296  SER296     -0.1202
     66  CA       -45.7540   70.4190   -3.9010 C.3   296  SER296      0.2020
     67  C        -45.2590   69.2830   -3.0140 C.2   296  SER296      0.2619
     68  O        -44.7100   68.3240   -3.5520 O.2   296  SER296     -0.2717
     69  CB       -44.8810   71.6580   -3.7280 C.3   296  SER296      0.2103
     70  OG       -43.5030   71.3230   -3.7030 O.3   296  SER296     -0.2182
     71  N        -45.4680   69.3740   -1.6700 N.am  297  SER297     -0.1951
     72  CA       -45.0660   68.3350   -0.7080 C.3   297  SER297      0.1924
     73  C        -45.8500   67.0450   -0.9670 C.2   297  SER297      0.2314
     74  O        -45.2510   65.9740   -1.0680 O.2   297  SER297     -0.2863
     75  CB       -45.2770   68.8080    0.7290 C.3   297  SER297      0.2116
     76  OG       -46.5400   68.4230    1.2590 O.3   297  SER297     -0.2180
@<TRIPOS>BOND
     1    25    26    2
     2    25    24    1
     3    18    19    2
     4    18    17    1
     5    23    24    1
     6    16    17    1
     7    12    11    2
     8    24    27    1
     9    11    10    1
    10    27    28    1
    11     9    10    1
    12    17    20    1
    13    10    13    1
    14    20    21    1
    15    20    22    1
    16    13    14    1
    17    13    15    1
    18    36    34    1
    19    34    33    1
    20     4     3    2
    21     3     2    1
    22     8     7    1
    23    35    33    1
    24    33    30    1
    25     5     2    1
    26     5     6    1
    27    30    29    1
    28    30    31    1
    29    60    58    1
    30     2     1    1
    31    32    31    2
    32    58    57    1
    33    59    57    1
    34     7     6    1
    35    47    46    1
    36    57    54    1
    37    66    69    1
    38    66    65    1
    39    66    67    1
    40    54    55    1
    41    54    53    1
    42    69    70    1
    43    56    55    2
    44    48    46    1
    45    46    43    1
    46    68    67    2
    47    55    61   am
    48    67    71   am
    49    41    38    1
    50    45    44    2
    51    43    44    1
    52    43    42    1
    53    44    49   am
    54    38    37    1
    55    38    39    1
    56    61    62    1
    57    49    50    1
    58    40    39    2
    59    50    51    1
    60    71    72    1
    61    52    51    2
    62    62    63    1
    63    74    73    2
    64    73    72    1
    65    72    75    1
    66    63    64    2
    67    75    76    1
