@<TRIPOS>MOLECULE
tmp/4ayvB00.pdb
 230 232 0 0 0
SMALL
GASTEIGER

@<TRIPOS>ATOM
      1  N         39.7480   10.1920   20.1760 N.3    43  HIS43      -0.1241
      2  CA        38.3480    9.7840   20.0100 C.3    43  HIS43       0.1621
      3  C         37.6570   10.3390   18.7480 C.2    43  HIS43       0.2264
      4  O         36.5360    9.9290   18.4300 O.2    43  HIS43      -0.2867
      5  CB        37.5150   10.0730   21.2640 C.3    43  HIS43       0.0745
      6  CG        36.9130   11.4420   21.2910 C.ar   43  HIS43       0.0817
      7  ND1       37.5480   12.5280   21.8620 N.ar   43  HIS43      -0.2268
      8  CD2       35.7280   11.9020   20.8250 C.ar   43  HIS43       0.1154
      9  CE1       36.7810   13.5960   21.7430 C.ar   43  HIS43       0.1986
     10  NE2       35.6720   13.2440   21.1170 N.ar   43  HIS43      -0.2212
     11  N         36.8150    4.9510   18.0700 N.3    47  TYR47      -0.1241
     12  CA        35.9830    4.6080   19.2090 C.3    47  TYR47       0.1605
     13  C         35.2190    3.2960   18.9400 C.2    47  TYR47       0.2264
     14  O         34.1580    3.3250   18.3120 O.2    47  TYR47      -0.2867
     15  CB        35.0360    5.7600   19.5470 C.3    47  TYR47       0.0534
     16  CG        34.2380    5.5200   20.7980 C.ar   47  TYR47      -0.0201
     17  CD1       34.8830    5.3050   22.0170 C.ar   47  TYR47      -0.0009
     18  CD2       32.8390    5.4820   20.7650 C.ar   47  TYR47      -0.0009
     19  CE1       34.1670    5.0720   23.1760 C.ar   47  TYR47       0.0417
     20  CE2       32.1070    5.2540   21.9220 C.ar   47  TYR47       0.0417
     21  CZ        32.7840    5.0450   23.1270 C.ar   47  TYR47       0.1957
     22  OH        32.0970    4.8100   24.2960 O.3    47  TYR47      -0.2866
     23  N         31.0290    2.4190   19.1230 N.3    50  TRP50      -0.1241
     24  CA        30.2220    2.8150   17.9400 C.3    50  TRP50       0.1605
     25  C         30.8820    2.4060   16.6310 C.2    50  TRP50       0.2264
     26  O         30.6630    3.0340   15.5960 O.2    50  TRP50      -0.2867
     27  CB        29.9180    4.3180   17.8900 C.3    50  TRP50       0.0550
     28  CG        29.3270    4.8810   19.1210 C.ar   50  TRP50       0.0003
     29  CD1       28.7520    4.1920   20.1540 C.ar   50  TRP50       0.0946
     30  CD2       29.2280    6.2730   19.4600 C.ar   50  TRP50       0.0152
     31  NE1       28.3180    5.0700   21.1230 N.ar   50  TRP50      -0.2442
     32  CE2       28.5960    6.3520   20.7240 C.ar   50  TRP50       0.0810
     33  CE3       29.6170    7.4620   18.8190 C.ar   50  TRP50       0.0012
     34  CZ2       28.3420    7.5740   21.3630 C.ar   50  TRP50       0.0191
     35  CZ3       29.3610    8.6790   19.4520 C.ar   50  TRP50       0.0001
     36  CH2       28.7280    8.7230   20.7140 C.ar   50  TRP50       0.0015
     37  N         33.6020    2.9940   15.2940 N.3    52  LYS52      -0.1245
     38  CA        34.2370    4.1440   14.6360 C.3    52  LYS52       0.1561
     39  C         35.7310    3.8840   14.5400 C.2    52  LYS52       0.2260
     40  O         36.3980    3.7270   15.5550 O.2    52  LYS52      -0.2867
     41  CB        33.9740    5.4450   15.4110 C.3    52  LYS52       0.0271
     42  CG        34.5470    6.6990   14.7450 C.3    52  LYS52       0.0035
     43  CD        34.8420    7.8410   15.7220 C.3    52  LYS52       0.0206
     44  CE        33.6780    8.8080   15.8730 C.3    52  LYS52       0.1093
     45  NZ        34.1650   10.2160   15.8540 N.3    52  LYS52      -0.1314
     46  N         39.6080    4.3690   25.9370 N.3    92  TRP92      -0.1227
     47  CA        38.2420    4.6190   25.4600 C.3    92  TRP92       0.1737
     48  C         37.1830    3.8630   26.2670 C.2    92  TRP92       0.2595
     49  O         35.9960    4.1940   26.1960 O.2    92  TRP92      -0.2718
     50  CB        38.1100    4.2790   23.9730 C.3    92  TRP92       0.0564
     51  CG        38.5450    2.8870   23.6050 C.ar   92  TRP92       0.0003
     52  CD1       39.7580    2.5140   23.0940 C.ar   92  TRP92       0.0946
     53  CD2       37.7670    1.6910   23.7060 C.ar   92  TRP92       0.0152
     54  NE1       39.7890    1.1590   22.8780 N.ar   92  TRP92      -0.2442
     55  CE2       38.5790    0.6260   23.2410 C.ar   92  TRP92       0.0810
     56  CE3       36.4630    1.4100   24.1520 C.ar   92  TRP92       0.0012
     57  CZ2       38.1280   -0.7070   23.2060 C.ar   92  TRP92       0.0191
     58  CZ3       36.0110    0.0820   24.1190 C.ar   92  TRP92       0.0001
     59  CH2       36.8440   -0.9580   23.6480 C.ar   92  TRP92       0.0015
     60  N         37.6250    2.8480   27.0210 N.am   93  ARG93      -0.1966
     61  CA        36.7530    2.0240   27.8810 C.3    93  ARG93       0.1729
     62  C         36.0590    2.7950   29.0090 C.2    93  ARG93       0.2616
     63  O         34.8610    2.6340   29.2060 O.2    93  ARG93      -0.2715
     64  CB        37.5140    0.8160   28.4550 C.3    93  ARG93       0.0348
     65  CG        37.3860   -0.4570   27.6230 C.3    93  ARG93       0.0492
     66  CD        38.5850   -1.3980   27.7560 C.3    93  ARG93       0.2205
     67  NE        38.4290   -2.5690   26.8870 N.pl3  93  ARG93      -0.0865
     68  CZ        39.3920   -3.1030   26.1350 C.cat  93  ARG93       0.5346
     69  NH1       40.6150   -2.5800   26.1130 N.pl3  93  ARG93       0.1354
     70  NH2       39.1240   -4.1630   25.3840 N.pl3  93  ARG93       0.1354
     71  N         36.7860    3.6420   29.7360 N.am   94  GLU94      -0.1963
     72  CA        36.1980    4.2470   30.9350 C.3    94  GLU94       0.1733
     73  C         36.2660    5.7630   31.1430 C.2    94  GLU94       0.2616
     74  O         35.4300    6.2990   31.8500 O.2    94  GLU94      -0.2715
     75  CB        36.6720    3.5170   32.2000 C.3    94  GLU94       0.0429
     76  CG        38.1790    3.4060   32.3450 C.3    94  GLU94       0.1163
     77  CD        38.6080    2.9850   33.7420 C.2    94  GLU94       0.3649
     78  OE1       38.0850    3.5550   34.7340 O.co2  94  GLU94      -0.2457
     79  OE2       39.4760    2.0860   33.8450 O.co2  94  GLU94      -0.2457
     80  N         37.2290    6.4690   30.5550 N.am   95  ASN95      -0.1958
     81  CA        37.3090    7.9270   30.7860 C.3    95  ASN95       0.1819
     82  C         38.0170    8.7850   29.7240 C.2    95  ASN95       0.2621
     83  O         38.2810    9.9620   29.9640 O.2    95  ASN95      -0.2715
     84  CB        37.9290    8.2080   32.1650 C.3    95  ASN95       0.1195
     85  CG        39.3060    7.5670   32.3390 C.2    95  ASN95       0.2630
     86  OD1       39.8000    6.8330   31.4660 O.2    95  ASN95      -0.2716
     87  ND2       39.9340    7.8430   33.4780 N.am   95  ASN95      -0.0877
     88  N         38.3300    8.2150   28.5670 N.am   96  LEU96      -0.1977
     89  CA        39.0470    8.9630   27.5160 C.3    96  LEU96       0.1596
     90  C         40.4220    9.4820   27.9720 C.2    96  LEU96       0.2287
     91  O         40.8570   10.5800   27.5940 O.2    96  LEU96      -0.2864
     92  CB        38.1890   10.1120   26.9470 C.3    96  LEU96       0.0297
     93  CG        37.0690    9.7550   25.9730 C.3    96  LEU96       0.0022
     94  CD1       36.4080   11.0270   25.4680 C.3    96  LEU96       0.0001
     95  CD2       37.5880    8.8970   24.8210 C.3    96  LEU96       0.0001
     96  N         32.8260   10.8260   36.5790 N.3   179  ILE179     -0.1245
     97  CA        33.8340   10.1100   35.7950 C.3   179  ILE179      0.1561
     98  C         35.1760   10.1870   36.5130 C.2   179  ILE179      0.2260
     99  O         35.4680   11.1840   37.1730 O.2   179  ILE179     -0.2867
    100  CB        33.8990   10.5870   34.3200 C.3   179  ILE179      0.0252
    101  CG1       32.6630   10.0950   33.5630 C.3   179  ILE179      0.0019
    102  CG2       35.1160   10.0160   33.6080 C.3   179  ILE179      0.0019
    103  CD1       32.2730   10.9470   32.3770 C.3   179  ILE179      0.0001
    104  N         31.6280   27.4170   26.3320 N.3   199  ASP199     -0.1225
    105  CA        32.0670   26.0300   26.2620 C.3   199  ASP199      0.1805
    106  C         32.3110   25.6030   24.8140 C.2   199  ASP199      0.2598
    107  O         31.8520   26.2590   23.8740 O.2   199  ASP199     -0.2718
    108  CB        31.0440   25.1040   26.9390 C.3   199  ASP199      0.1424
    109  CG        31.6260   23.7460   27.2830 C.2   199  ASP199      0.3668
    110  OD1       32.8570   23.5370   27.1640 O.co2 199  ASP199     -0.2456
    111  OD2       30.8460   22.8600   27.6660 O.co2 199  ASP199     -0.2456
    112  N         33.0670   24.5220   24.6420 N.am  200  ALA200     -0.1966
    113  CA        33.1500   23.8360   23.3710 C.3   200  ALA200      0.1728
    114  C         31.8680   23.0320   23.2460 C.2   200  ALA200      0.2616
    115  O         31.1340   22.9020   24.2250 O.2   200  ALA200     -0.2715
    116  CB        34.3460   22.9070   23.3640 C.3   200  ALA200      0.0334
    117  N         31.5910   22.4950   22.0560 N.am  201  CYS201     -0.1954
    118  CA        30.4020   21.6750   21.8240 C.3   201  CYS201      0.1843
    119  C         30.6870   20.7280   20.6650 C.2   201  CYS201      0.2625
    120  O         31.7860   20.7950   20.1020 O.2   201  CYS201     -0.2714
    121  CB        29.2120   22.5850   21.5280 C.3   201  CYS201      0.0997
    122  SG        27.5970   21.8310   21.8440 S.3   201  CYS201     -0.0797
    123  N         29.7310   19.8600   20.3000 N.am  202  GLU202     -0.1963
    124  CA        29.9210   18.9250   19.1680 C.3   202  GLU202      0.1733
    125  C         30.5990   19.5600   17.9480 C.2   202  GLU202      0.2616
    126  O         30.1980   20.6420   17.4790 O.2   202  GLU202     -0.2715
    127  CB        28.6120   18.2860   18.7230 C.3   202  GLU202      0.0429
    128  CG        28.1990   17.0740   19.5320 C.3   202  GLU202      0.1163
    129  CD        27.2080   16.2270   18.7720 C.2   202  GLU202      0.3649
    130  OE1       27.5890   15.7050   17.6970 O.co2 202  GLU202     -0.2457
    131  OE2       26.0460   16.1230   19.2260 O.co2 202  GLU202     -0.2457
    132  N         31.6320   18.8870   17.4490 N.am  203  GLY203     -0.1955
    133  CA        32.4030   19.4040   16.3420 C.3   203  GLY203      0.1869
    134  C         33.6280   20.2330   16.7010 C.2   203  GLY203      0.2309
    135  O         34.4870   20.4400   15.8390 O.2   203  GLY203     -0.2863
    136  N         35.6000   19.2060   19.0780 N.3   205  SER205     -0.1217
    137  CA        36.5190   18.2270   19.6260 C.3   205  SER205      0.1889
    138  C         37.7830   18.0870   18.8000 C.2   205  SER205      0.2288
    139  O         37.7400   18.1390   17.5730 O.2   205  SER205     -0.2866
    140  CB        35.8290   16.8760   19.7520 C.3   205  SER205      0.2089
    141  OG        35.0200   16.8770   20.9090 O.3   205  SER205     -0.2183
    142  N         40.5970   19.8290   23.0490 N.3   225  VAL225     -0.1231
    143  CA        39.1750   19.6400   23.3930 C.3   225  VAL225      0.1692
    144  C         38.8680   18.1350   23.3860 C.2   225  VAL225      0.2593
    145  O         39.0070   17.4640   22.3430 O.2   225  VAL225     -0.2718
    146  CB        38.2290   20.3820   22.4150 C.3   225  VAL225      0.0266
    147  CG1       36.7760   20.2070   22.8190 C.3   225  VAL225      0.0020
    148  CG2       38.5790   21.8540   22.3260 C.3   225  VAL225      0.0020
    149  N         38.4670   17.6110   24.5480 N.am  226  SER226     -0.1938
    150  CA        38.3220   16.1660   24.7220 C.3   226  SER226      0.2055
    151  C         36.9030   15.7210   25.0090 C.2   226  SER226      0.2643
    152  O         36.3000   15.0420   24.1850 O.2   226  SER226     -0.2714
    153  CB        39.2480   15.6450   25.8140 C.3   226  SER226      0.2130
    154  OG        39.2170   14.2360   25.8610 O.3   226  SER226     -0.2179
    155  N         36.3740   16.0790   26.1760 N.am  227  TRP227     -0.1959
    156  CA        35.0330   15.6430   26.5420 C.3   227  TRP227      0.1771
    157  C         34.3810   16.5770   27.5610 C.2   227  TRP227      0.2620
    158  O         35.0040   17.5180   28.0690 O.2   227  TRP227     -0.2715
    159  CB        35.0480   14.1860   27.0470 C.3   227  TRP227      0.0590
    160  CG        35.8290   13.9810   28.3350 C.ar  227  TRP227      0.0006
    161  CD1       37.1480   13.6660   28.4440 C.ar  227  TRP227      0.0946
    162  CD2       35.3250   14.0830   29.6880 C.ar  227  TRP227      0.0152
    163  NE1       37.5060   13.5790   29.7720 N.ar  227  TRP227     -0.2442
    164  CE2       36.4110   13.8280   30.5550 C.ar  227  TRP227      0.0810
    165  CE3       34.0590   14.3700   30.2470 C.ar  227  TRP227      0.0012
    166  CZ2       36.2800   13.8530   31.9570 C.ar  227  TRP227      0.0191
    167  CZ3       33.9270   14.4060   31.6360 C.ar  227  TRP227      0.0001
    168  CH2       35.0360   14.1450   32.4770 C.ar  227  TRP227      0.0015
    169  N         33.1150   16.2990   27.8520 N.am  228  GLY228     -0.1940
    170  CA        32.3070   17.0950   28.7620 C.3   228  GLY228      0.2014
    171  C         30.9150   16.4980   28.7420 C.2   228  GLY228      0.2639
    172  O         30.6130   15.6040   27.9380 O.2   228  GLY228     -0.2714
    173  N         30.0630   16.9800   29.6330 N.am  229  GLU229     -0.1963
    174  CA        28.6890   16.4990   29.7200 C.3   229  GLU229      0.1733
    175  C         27.7390   17.5880   29.1900 C.2   229  GLU229      0.2617
    176  O         27.3730   18.5330   29.9100 O.2   229  GLU229     -0.2715
    177  CB        28.3580   16.0930   31.1610 C.3   229  GLU229      0.0429
    178  CG        29.1910   14.9270   31.6990 C.3   229  GLU229      0.1163
    179  CD        29.1130   14.8100   33.2160 C.2   229  GLU229      0.3649
    180  OE1       28.0230   14.5460   33.7550 O.co2 229  GLU229     -0.2457
    181  OE2       30.1390   15.0080   33.8890 O.co2 229  GLU229     -0.2457
    182  N         27.3720   17.4520   27.9140 N.am  230  GLY230     -0.1940
    183  CA        26.5800   18.4680   27.2280 C.3   230  GLY230      0.2014
    184  C         27.4390   19.6580   26.8330 C.2   230  GLY230      0.2639
    185  O         28.6500   19.5190   26.6380 O.2   230  GLY230     -0.2714
    186  N         26.8160   20.8270   26.6990 N.am  231  CYS231     -0.1967
    187  CA        27.5310   22.0410   26.3250 C.3   231  CYS231      0.1712
    188  C         27.0040   23.1780   27.1700 C.2   231  CYS231      0.2296
    189  O         25.7940   23.4220   27.1940 O.2   231  CYS231     -0.2864
    190  CB        27.3360   22.3820   24.8370 C.3   231  CYS231      0.0983
    191  SG        27.6970   21.0260   23.7070 S.3   231  CYS231     -0.0798
    192  N         31.9190   21.4290   33.5000 N.3   237  TYR237     -0.1227
    193  CA        33.1440   22.0000   32.9390 C.3   237  TYR237      0.1736
    194  C         33.6270   21.1320   31.7920 C.2   237  TYR237      0.2596
    195  O         33.4020   19.9200   31.7810 O.2   237  TYR237     -0.2718
    196  CB        34.2330   22.1160   34.0230 C.3   237  TYR237      0.0548
    197  CG        33.7650   22.9050   35.2160 C.ar  237  TYR237     -0.0200
    198  CD1       33.8270   24.3000   35.2110 C.ar  237  TYR237     -0.0009
    199  CD2       33.2020   22.2650   36.3420 C.ar  237  TYR237     -0.0009
    200  CE1       33.3680   25.0390   36.2950 C.ar  237  TYR237      0.0417
    201  CE2       32.7340   22.9970   37.4290 C.ar  237  TYR237      0.0417
    202  CZ        32.8270   24.3820   37.3970 C.ar  237  TYR237      0.1957
    203  OH        32.3810   25.1420   38.4470 O.3   237  TYR237     -0.2866
    204  N         34.2760   21.7550   30.8170 N.am  238  GLY238     -0.1942
    205  CA        34.9000   21.0100   29.7350 C.3   238  GLY238      0.2014
    206  C         36.2360   20.4650   30.2030 C.2   238  GLY238      0.2639
    207  O         36.9540   21.1140   30.9720 O.2   238  GLY238     -0.2714
    208  N         36.5530   19.2650   29.7320 N.am  239  PHE239     -0.1959
    209  CA        37.7960   18.5910   30.0410 C.3   239  PHE239      0.1771
    210  C         38.6830   18.5310   28.8140 C.2   239  PHE239      0.2619
    211  O         38.2150   18.2730   27.6920 O.2   239  PHE239     -0.2715
    212  CB        37.5060   17.1880   30.5720 C.3   239  PHE239      0.0574
    213  CG        37.0500   17.1890   31.9850 C.ar  239  PHE239     -0.0200
    214  CD1       35.7140   17.4460   32.2990 C.ar  239  PHE239     -0.0042
    215  CD2       37.9620   17.0060   33.0200 C.ar  239  PHE239     -0.0042
    216  CE1       35.2890   17.4920   33.6180 C.ar  239  PHE239     -0.0003
    217  CE2       37.5400   17.0450   34.3430 C.ar  239  PHE239     -0.0003
    218  CZ        36.2040   17.2890   34.6380 C.ar  239  PHE239     -0.0000
    219  N         39.9670   18.7670   29.0450 N.am  240  TYR240     -0.1974
    220  CA        40.9610   18.9020   27.9810 C.3   240  TYR240      0.1639
    221  C         42.1360   17.9770   28.2280 C.2   240  TYR240      0.2290
    222  O         42.6180   17.8690   29.3710 O.2   240  TYR240     -0.2864
    223  CB        41.4450   20.3550   27.9070 C.3   240  TYR240      0.0560
    224  CG        40.3130   21.3290   27.6340 C.ar  240  TYR240     -0.0198
    225  CD1       39.4330   21.7220   28.6550 C.ar  240  TYR240     -0.0009
    226  CD2       40.1040   21.8440   26.3440 C.ar  240  TYR240     -0.0009
    227  CE1       38.3970   22.6010   28.4030 C.ar  240  TYR240      0.0417
    228  CE2       39.0670   22.7250   26.0880 C.ar  240  TYR240      0.0417
    229  CZ        38.2150   23.0880   27.1190 C.ar  240  TYR240      0.1957
    230  OH        37.1870   23.9600   26.8590 O.3   240  TYR240     -0.2866
@<TRIPOS>BOND
     1    39    38    1
     2    39    40    2
     3    38    37    1
     4    38    41    1
     5    42    41    1
     6    42    43    1
     7    26    25    2
     8    43    44    1
     9   135   134    2
    10    45    44    1
    11   133   134    1
    12   133   132    1
    13    25    24    1
    14   132   125   am
    15   126   125    2
    16   139   138    2
    17   130   129   ar
    18    27    24    1
    19    27    28    1
    20    24    23    1
    21   125   124    1
    22    11    12    1
    23    14    13    2
    24     4     3    2
    25   127   124    1
    26   127   128    1
    27     3     2    1
    28   129   131   ar
    29   129   128    1
    30   138   137    1
    31    33    35   ar
    32    33    30   ar
    33    13    12    1
    34   136   137    1
    35    28    30   ar
    36    28    29   ar
    37   124   123    1
    38    12    15    1
    39    35    36   ar
    40    30    32   ar
    41    15    16    1
    42   137   140    1
    43   140   141    1
    44     2     1    1
    45     2     5    1
    46   120   119    2
    47    29    31   ar
    48   123   119   am
    49   119   118    1
    50    36    34   ar
    51    32    31   ar
    52    32    34   ar
    53    18    16   ar
    54    18    20   ar
    55    16    17   ar
    56     8    10   ar
    57     8     6   ar
    58    10     9   ar
    59     5     6    1
    60     6     7   ar
    61   121   118    1
    62   121   122    1
    63     9     7   ar
    64   118   117    1
    65   122   191    1
    66    20    21   ar
    67    17    19   ar
    68   117   114   am
    69   148   146    1
    70   145   144    2
    71   146   147    1
    72   146   143    1
    73    54    52   ar
    74    54    55   ar
    75   142   143    1
    76    52    51   ar
    77    21    19   ar
    78    21    22    1
    79    57    55   ar
    80    57    59   ar
    81    55    53   ar
    82   114   113    1
    83   114   115    2
    84   116   113    1
    85   113   112    1
    86   144   143    1
    87   144   149   am
    88    51    53   ar
    89    51    50    1
    90    59    58   ar
    91    53    56   ar
    92   191   190    1
    93   107   106    2
    94    50    47    1
    95    58    56   ar
    96   152   151    2
    97   149   150    1
    98   112   106   am
    99   150   151    1
   100   150   153    1
   101   106   105    1
   102    95    93    1
   103   190   187    1
   104   151   155   am
   105    70    68    1
   106    47    46    1
   107    47    48    1
   108    94    93    1
   109   153   154    1
   110    93    92    1
   111   228   226   ar
   112   228   229   ar
   113    69    68    1
   114    68    67    2
   115   155   156    1
   116    49    48    2
   117   105   104    1
   118   105   108    1
   119    48    60   am
   120   187   186    1
   121   187   188    1
   122   226   224   ar
   123   156   159    1
   124   156   157    1
   125   185   184    2
   126   186   184   am
   127   184   183    1
   128   230   229    1
   129    67    66    1
   130   108   109    1
   131    92    89    1
   132    60    61    1
   133   159   160    1
   134   229   227   ar
   135   110   109   ar
   136   188   189    2
   137   183   182    1
   138   109   111   ar
   139    89    90    1
   140    89    88    1
   141   157   169   am
   142   157   158    2
   143    91    90    2
   144    65    66    1
   145    65    64    1
   146   224   223    1
   147   224   225   ar
   148   211   210    2
   149   169   170    1
   150    61    64    1
   151    61    62    1
   152   223   220    1
   153   182   175   am
   154   172   171    2
   155   220   221    1
   156   220   219    1
   157   221   222    2
   158   160   161   ar
   159   160   162   ar
   160   227   225   ar
   161   161   163   ar
   162    88    82   am
   163   171   170    1
   164   171   173   am
   165   210   219   am
   166   210   209    1
   167    62    63    2
   168    62    71   am
   169   175   174    1
   170   175   176    2
   171   173   174    1
   172   162   165   ar
   173   162   164   ar
   174   174   177    1
   175    82    83    2
   176    82    81    1
   177   208   209    1
   178   208   206   am
   179   205   206    1
   180   205   204    1
   181    71    72    1
   182   163   164   ar
   183   209   212    1
   184   206   207    2
   185   165   167   ar
   186   164   166   ar
   187    80    81    1
   188    80    73   am
   189   212   213    1
   190    81    84    1
   191   204   194   am
   192    72    73    1
   193    72    75    1
   194    73    74    2
   195   177   178    1
   196    86    85    2
   197   167   168   ar
   198   178   179    1
   199   195   194    2
   200   194   193    1
   201   166   168   ar
   202   213   214   ar
   203   213   215   ar
   204    84    85    1
   205    75    76    1
   206   214   216   ar
   207    85    87   am
   208    76    77    1
   209   103   101    1
   210   193   192    1
   211   193   196    1
   212   215   217   ar
   213   179   180   ar
   214   179   181   ar
   215   101   100    1
   216   102   100    1
   217   216   218   ar
   218    77    79   ar
   219    77    78   ar
   220   196   197    1
   221   100    97    1
   222   217   218   ar
   223   198   197   ar
   224   198   200   ar
   225   197   199   ar
   226    97    98    1
   227    97    96    1
   228   200   202   ar
   229   199   201   ar
   230    98    99    2
   231   202   201   ar
   232   202   203    1
