@<TRIPOS>MOLECULE
tmp/4aywA00.pdb
 124 118 0 0 0
SMALL
GASTEIGER

@<TRIPOS>ATOM
      1  N        -19.4220   33.0420    5.0920 N.3   111  ASP111     -0.1239
      2  CA       -19.1480   34.2040    5.9440 C.3   111  ASP111      0.1674
      3  C        -18.3180   35.2570    5.2020 C.2   111  ASP111      0.2266
      4  O        -18.4870   36.4510    5.4560 O.2   111  ASP111     -0.2867
      5  CB       -18.3990   33.7740    7.2180 C.3   111  ASP111      0.1410
      6  CG       -19.2390   33.2320    8.3650 C.2   111  ASP111      0.3668
      7  OD1      -20.4490   32.9760    8.1560 O.co2 111  ASP111     -0.2456
      8  OD2      -18.6920   33.0870    9.4810 O.co2 111  ASP111     -0.2456
      9  N        -14.4000   34.4730   15.1540 N.3   348  TYR348     -0.1241
     10  CA       -15.0940   34.2930   13.8730 C.3   348  TYR348      0.1605
     11  C        -14.1630   34.5490   12.6660 C.2   348  TYR348      0.2264
     12  O        -13.2440   35.3590   12.7870 O.2   348  TYR348     -0.2867
     13  CB       -16.3370   35.1900   13.7920 C.3   348  TYR348      0.0534
     14  CG       -17.5590   34.6010   14.4630 C.ar  348  TYR348     -0.0201
     15  CD1      -18.3130   33.6090   13.8410 C.ar  348  TYR348     -0.0009
     16  CD2      -17.9930   35.0700   15.6980 C.ar  348  TYR348     -0.0009
     17  CE1      -19.4480   33.0740   14.4490 C.ar  348  TYR348      0.0417
     18  CE2      -19.1260   34.5430   16.3160 C.ar  348  TYR348      0.0417
     19  CZ       -19.8520   33.5460   15.6870 C.ar  348  TYR348      0.1957
     20  OH       -20.9720   33.0260   16.2880 O.3   348  TYR348     -0.2866
     21  N        -14.6350   36.1330    9.8000 N.3   350  ALA350     -0.1231
     22  CA       -14.8100   37.4950    9.2780 C.3   350  ALA350      0.1694
     23  C        -14.0240   38.5210   10.1120 C.2   350  ALA350      0.2591
     24  O        -13.4130   39.4270    9.5410 O.2   350  ALA350     -0.2718
     25  CB       -16.2860   37.8610    9.2480 C.3   350  ALA350      0.0304
     26  N        -14.0260   38.3600   11.4540 N.am  351  ARG351     -0.1980
     27  CA       -13.3040   39.2150   12.4040 C.3   351  ARG351      0.1597
     28  C        -12.3470   38.3360   13.2570 C.2   351  ARG351      0.2287
     29  O        -12.6590   38.0510   14.4200 O.2   351  ARG351     -0.2864
     30  CB       -14.2900   40.0130   13.2860 C.3   351  ARG351      0.0334
     31  CG       -14.9790   41.1680   12.5770 C.3   351  ARG351      0.0492
     32  CD       -16.0890   41.7510   13.4420 C.3   351  ARG351      0.2205
     33  NE       -17.1780   40.7940   13.6440 N.pl3 351  ARG351     -0.0865
     34  CZ       -17.3010   39.9920   14.7000 C.cat 351  ARG351      0.5346
     35  NH1      -16.3970   40.0140   15.6750 N.pl3 351  ARG351      0.1354
     36  NH2      -18.3220   39.1490   14.7740 N.pl3 351  ARG351      0.1354
     37  N        -13.9700   35.5920   20.6550 N.3   356  ILE356     -0.1245
     38  CA       -15.3030   35.3380   21.2120 C.3   356  ILE356      0.1561
     39  C        -15.1660   34.4710   22.4720 C.2   356  ILE356      0.2260
     40  O        -15.7480   34.8010   23.5060 O.2   356  ILE356     -0.2867
     41  CB       -16.2410   34.6880   20.1480 C.3   356  ILE356      0.0252
     42  CG1      -16.1110   35.3400   18.7380 C.3   356  ILE356      0.0019
     43  CG2      -17.6910   34.6210   20.6320 C.3   356  ILE356      0.0019
     44  CD1      -16.5150   36.8680   18.5780 C.3   356  ILE356      0.0001
     45  N        -25.2660   41.0050   26.8380 N.3   376  SER376     -0.1202
     46  CA       -25.5660   41.0050   25.4050 C.3   376  SER376      0.2020
     47  C        -24.2840   41.2460   24.5980 C.2   376  SER376      0.2619
     48  O        -23.5860   42.2380   24.8210 O.2   376  SER376     -0.2717
     49  CB       -26.6250   42.0530   25.0740 C.3   376  SER376      0.2103
     50  OG       -26.1310   43.3360   25.3150 O.3   376  SER376     -0.2182
     51  N        -23.9730   40.3040   23.7110 N.am  377  GLY377     -0.1942
     52  CA       -22.7850   40.3390   22.8640 C.3   377  GLY377      0.2014
     53  C        -21.5740   39.6200   23.4300 C.2   377  GLY377      0.2640
     54  O        -20.4840   39.7270   22.8610 O.2   377  GLY377     -0.2714
     55  N        -21.7510   38.8680   24.5450 N.am  378  SER378     -0.1935
     56  CA       -20.6810   38.1120   25.2180 C.3   378  SER378      0.2055
     57  C        -20.2070   36.8960   24.3960 C.2   378  SER378      0.2644
     58  O        -19.0770   36.4370   24.5850 O.2   378  SER378     -0.2714
     59  CB       -21.1230   37.6590   26.6080 C.3   378  SER378      0.2130
     60  OG       -22.3630   36.9720   26.5770 O.3   378  SER378     -0.2179
     61  N        -21.0690   36.4010   23.5040 N.am  379  GLY379     -0.1939
     62  CA       -20.7830   35.2700   22.6250 C.3   379  GLY379      0.2014
     63  C        -21.4230   33.9590   23.0380 C.2   379  GLY379      0.2639
     64  O        -20.8260   32.8930   22.8540 O.2   379  GLY379     -0.2714
     65  N        -22.6510   34.0290   23.5880 N.am  380  LYS380     -0.1963
     66  CA       -23.4090   32.8660   24.0470 C.3   380  LYS380      0.1728
     67  C        -23.9280   32.0230   22.8670 C.2   380  LYS380      0.2617
     68  O        -23.8720   30.7960   22.9420 O.2   380  LYS380     -0.2715
     69  CB       -24.5720   33.3020   24.9500 C.3   380  LYS380      0.0311
     70  CG       -24.2040   33.8610   26.3010 C.3   380  LYS380      0.0038
     71  CD       -25.4230   34.3960   27.0460 C.3   380  LYS380      0.0206
     72  CE       -26.0320   35.5980   26.3430 C.3   380  LYS380      0.1093
     73  NZ       -27.0040   36.3370   27.1940 N.3   380  LYS380     -0.1314
     74  N        -24.4100   32.6730   21.7820 N.am  381  SER381     -0.1936
     75  CA       -24.9330   31.9910   20.5890 C.3   381  SER381      0.2055
     76  C        -23.8340   31.2420   19.8070 C.2   381  SER381      0.2643
     77  O        -24.1480   30.2910   19.0890 O.2   381  SER381     -0.2714
     78  CB       -25.6410   32.9780   19.6650 C.3   381  SER381      0.2130
     79  OG       -26.8320   33.4830   20.2470 O.3   381  SER381     -0.2179
     80  N        -22.5570   31.6530   19.9670 N.am  382  THR382     -0.1950
     81  CA       -21.3880   31.0510   19.3110 C.3   382  THR382      0.1897
     82  C        -21.1720   29.6050   19.8180 C.2   382  THR382      0.2313
     83  O        -20.6350   28.7800   19.0770 O.2   382  THR382     -0.2863
     84  CB       -20.1490   31.9420   19.5230 C.3   382  THR382      0.1794
     85  OG1      -20.4920   33.3030   19.2470 O.3   382  THR382     -0.2208
     86  CG2      -18.9670   31.5410   18.6440 C.3   382  THR382      0.0378
     87  N        -18.1730   25.5630   12.7080 N.3   391  TYR391     -0.1241
     88  CA       -16.7900   26.0250   12.7910 C.3   391  TYR391      0.1605
     89  C        -16.0150   25.1230   13.7440 C.2   391  TYR391      0.2264
     90  O        -16.5990   24.6000   14.7000 O.2   391  TYR391     -0.2867
     91  CB       -16.7000   27.4710   13.3140 C.3   391  TYR391      0.0534
     92  CG       -17.5990   28.5000   12.6680 C.ar  391  TYR391     -0.0201
     93  CD1      -17.1690   29.2360   11.5680 C.ar  391  TYR391     -0.0009
     94  CD2      -18.8240   28.8340   13.2350 C.ar  391  TYR391     -0.0009
     95  CE1      -17.9710   30.2240   11.0000 C.ar  391  TYR391      0.0417
     96  CE2      -19.6350   29.8220   12.6780 C.ar  391  TYR391      0.0417
     97  CZ       -19.2040   30.5150   11.5600 C.ar  391  TYR391      0.1957
     98  OH       -20.0050   31.4870   11.0130 O.3   391  TYR391     -0.2866
     99  N        -32.5470   29.2200   22.7780 N.3   505  ASP505     -0.1239
    100  CA       -32.1530   30.6280   22.8010 C.3   505  ASP505      0.1674
    101  C        -33.4120   31.4750   23.0220 C.2   505  ASP505      0.2266
    102  O        -34.3350   31.4500   22.2020 O.2   505  ASP505     -0.2867
    103  CB       -31.4010   31.0220   21.5090 C.3   505  ASP505      0.1410
    104  CG       -30.1420   31.8560   21.7140 C.2   505  ASP505      0.3668
    105  OD1      -30.0380   32.5330   22.7610 O.co2 505  ASP505     -0.2456
    106  OD2      -29.2790   31.8650   20.8050 O.co2 505  ASP505     -0.2456
    107  N        -29.8210   29.3950   26.6790 N.3   531  ILE531     -0.1245
    108  CA       -29.2780   30.7430   26.8300 C.3   531  ILE531      0.1561
    109  C        -30.4810   31.5610   27.2790 C.2   531  ILE531      0.2260
    110  O        -31.4370   31.7350   26.5160 O.2   531  ILE531     -0.2867
    111  CB       -28.5600   31.2710   25.5520 C.3   531  ILE531      0.0252
    112  CG1      -27.2250   30.5370   25.3270 C.3   531  ILE531      0.0019
    113  CG2      -28.3110   32.7820   25.6290 C.3   531  ILE531      0.0019
    114  CD1      -27.2900   29.3780   24.4110 C.3   531  ILE531      0.0001
    115  N        -32.5960   34.8350   29.3880 N.3   533  HIS533     -0.1241
    116  CA       -32.8110   36.2490   29.6770 C.3   533  HIS533      0.1621
    117  C        -33.9110   36.3520   30.7520 C.2   533  HIS533      0.2264
    118  O        -34.0930   37.4120   31.3530 O.2   533  HIS533     -0.2867
    119  CB       -33.1870   37.0200   28.4000 C.3   533  HIS533      0.0745
    120  CG       -32.0380   37.1770   27.4590 C.ar  533  HIS533      0.0817
    121  ND1      -32.1810   37.3770   26.1150 N.ar  533  HIS533     -0.2268
    122  CD2      -30.6870   37.1700   27.6720 C.ar  533  HIS533      0.1154
    123  CE1      -31.0090   37.4860   25.5230 C.ar  533  HIS533      0.1986
    124  NE2      -30.0760   37.3620   26.4630 N.ar  533  HIS533     -0.2212
@<TRIPOS>BOND
     1     1     2    1
     2     3     4    2
     3     3     2    1
     4     2     5    1
     5     5     6    1
     6     7     6   ar
     7     6     8   ar
     8    25    22    1
     9    22    21    1
    10    22    23    1
    11    24    23    2
    12    23    26   am
    13    95    97   ar
    14    95    93   ar
    15    98    97    1
    16    26    27    1
    17    97    96   ar
    18    93    92   ar
    19    27    28    1
    20    27    30    1
    21    31    30    1
    22    31    32    1
    23    11    12    2
    24    11    10    1
    25    92    94   ar
    26    92    91    1
    27    96    94   ar
    28    87    88    1
    29    88    91    1
    30    88    89    1
    31    28    29    2
    32    32    33    1
    33    33    34    2
    34    89    90    2
    35    13    10    1
    36    13    14    1
    37    15    17   ar
    38    15    14   ar
    39    10     9    1
    40    17    19   ar
    41    14    16   ar
    42    34    36    1
    43    34    35    1
    44    19    20    1
    45    19    18   ar
    46    16    18   ar
    47    44    42    1
    48    86    84    1
    49    42    41    1
    50    83    82    2
    51    77    76    2
    52    85    84    1
    53    81    84    1
    54    81    82    1
    55    81    80    1
    56    78    79    1
    57    78    75    1
    58    76    80   am
    59    76    75    1
    60    41    43    1
    61    41    38    1
    62    75    74    1
    63    37    38    1
    64   106   104   ar
    65    38    39    1
    66   103   104    1
    67   103   100    1
    68   104   105   ar
    69    74    67   am
    70   102   101    2
    71    39    40    2
    72    62    63    1
    73    62    61    1
    74    99   100    1
    75   100   101    1
    76    64    63    2
    77    54    53    2
    78    52    53    1
    79    52    51    1
    80    67    68    2
    81    67    66    1
    82    63    65   am
    83    53    55   am
    84    61    57   am
    85    65    66    1
    86    51    47   am
    87    66    69    1
    88    57    58    2
    89    57    56    1
    90   114   112    1
    91    55    56    1
    92    47    48    2
    93    47    46    1
    94    69    70    1
    95    49    50    1
    96    49    46    1
    97    56    59    1
    98   112   111    1
    99    46    45    1
   100   123   121   ar
   101   123   124   ar
   102   111   113    1
   103   111   108    1
   104   121   120   ar
   105    70    71    1
   106    72    71    1
   107    72    73    1
   108   124   122   ar
   109   110   109    2
   110    60    59    1
   111   107   108    1
   112   108   109    1
   113   120   122   ar
   114   120   119    1
   115   119   116    1
   116   115   116    1
   117   116   117    1
   118   117   118    2
