@<TRIPOS>MOLECULE
tmp/4aywA02.pdb
 80 74 0 0 0
SMALL
GASTEIGER

@<TRIPOS>ATOM
      1  N        -24.7810   15.1670  -30.4600 N.3    17  ARG17      -0.1245
      2  CA       -25.5770   16.2870  -30.9790 C.3    17  ARG17       0.1563
      3  C        -24.6920   17.3120  -31.6510 C.2    17  ARG17       0.2260
      4  O        -25.0220   17.7650  -32.7470 O.2    17  ARG17      -0.2867
      5  CB       -26.3940   16.9680  -29.8750 C.3    17  ARG17       0.0307
      6  CG       -27.5130   16.1170  -29.3250 C.3    17  ARG17       0.0489
      7  CD       -28.2040   16.7950  -28.1630 C.3    17  ARG17       0.2205
      8  NE       -29.2790   17.6850  -28.6000 N.pl3  17  ARG17      -0.0865
      9  CZ       -30.5400   17.3020  -28.7790 C.cat  17  ARG17       0.5346
     10  NH1      -30.8940   16.0370  -28.5770 N.pl3  17  ARG17       0.1354
     11  NH2      -31.4550   18.1780  -29.1710 N.pl3  17  ARG17       0.1354
     12  N        -34.4880   26.6020  -49.4740 N.3    70  LEU70      -0.1245
     13  CA       -35.4250   25.9170  -48.5880 C.3    70  LEU70       0.1561
     14  C        -34.6820   24.8100  -47.8300 C.2    70  LEU70       0.2260
     15  O        -34.8890   24.6450  -46.6260 O.2    70  LEU70      -0.2867
     16  CB       -36.5980   25.3800  -49.4340 C.3    70  LEU70       0.0270
     17  CG       -37.7420   24.5700  -48.8040 C.3    70  LEU70       0.0019
     18  CD1      -38.2190   25.1380  -47.4660 C.3    70  LEU70       0.0001
     19  CD2      -38.9020   24.5030  -49.7680 C.3    70  LEU70       0.0001
     20  N        -32.1460   26.5750  -45.3420 N.3    73  ALA73      -0.1231
     21  CA       -32.8840   27.1180  -44.1990 C.3    73  ALA73       0.1694
     22  C        -33.2160   26.0090  -43.2150 C.2    73  ALA73       0.2591
     23  O        -33.0360   26.1980  -42.0110 O.2    73  ALA73      -0.2718
     24  CB       -34.1560   27.8060  -44.6630 C.3    73  ALA73       0.0304
     25  N        -33.6660   24.8400  -43.7320 N.am   74  ALA74      -0.1980
     26  CA       -33.9820   23.6570  -42.9300 C.3    74  ALA74       0.1597
     27  C        -32.7300   23.1510  -42.2130 C.2    74  ALA74       0.2287
     28  O        -32.8080   22.8470  -41.0290 O.2    74  ALA74      -0.2864
     29  CB       -34.5620   22.5640  -43.8100 C.3    74  ALA74       0.0319
     30  N        -31.7840   25.8040  -39.5050 N.3    77  ALA77      -0.1231
     31  CA       -32.7530   25.7320  -38.4170 C.3    77  ALA77       0.1694
     32  C        -32.4220   24.5690  -37.4880 C.2    77  ALA77       0.2591
     33  O        -32.3890   24.7670  -36.2710 O.2    77  ALA77      -0.2718
     34  CB       -34.1510   25.5810  -38.9790 C.3    77  ALA77       0.0304
     35  N        -32.1150   23.3760  -38.0710 N.am   78  ILE78      -0.1980
     36  CA       -31.7400   22.1580  -37.3420 C.3    78  ILE78       0.1595
     37  C        -30.4490   22.4270  -36.5580 C.2    78  ILE78       0.2287
     38  O        -30.3900   22.0760  -35.3790 O.2    78  ILE78      -0.2864
     39  CB       -31.6240   20.9200  -38.2800 C.3    78  ILE78       0.0276
     40  CG1      -33.0130   20.4920  -38.7890 C.3    78  ILE78       0.0022
     41  CG2      -30.9280   19.7400  -37.5840 C.3    78  ILE78       0.0022
     42  CD1      -33.0090   19.6500  -40.0650 C.3    78  ILE78       0.0001
     43  N        -31.0950   24.7330  -33.4050 N.3    81  TYR81      -0.1227
     44  CA       -31.7920   23.9190  -32.4080 C.3    81  TYR81       0.1736
     45  C        -30.8030   23.0130  -31.6680 C.2    81  TYR81       0.2595
     46  O        -30.6350   23.1710  -30.4580 O.2    81  TYR81      -0.2718
     47  CB       -32.9210   23.0910  -33.0590 C.3    81  TYR81       0.0548
     48  CG       -33.6280   22.1680  -32.0880 C.ar   81  TYR81      -0.0200
     49  CD1      -34.6320   22.6440  -31.2500 C.ar   81  TYR81      -0.0009
     50  CD2      -33.2750   20.8230  -31.9870 C.ar   81  TYR81      -0.0009
     51  CE1      -35.2660   21.8070  -30.3330 C.ar   81  TYR81       0.0417
     52  CE2      -33.8950   19.9800  -31.0670 C.ar   81  TYR81       0.0417
     53  CZ       -34.8960   20.4750  -30.2470 C.ar   81  TYR81       0.1957
     54  OH       -35.5170   19.6540  -29.3390 O.3    81  TYR81      -0.2866
     55  N        -30.1240   22.1010  -32.4060 N.am   82  LEU82      -0.1980
     56  CA       -29.1440   21.1470  -31.8740 C.3    82  LEU82       0.1596
     57  C        -28.0320   21.8320  -31.0810 C.2    82  LEU82       0.2287
     58  O        -27.6050   21.2790  -30.0710 O.2    82  LEU82      -0.2864
     59  CB       -28.5180   20.2940  -32.9880 C.3    82  LEU82       0.0297
     60  CG       -29.4020   19.2890  -33.7400 C.3    82  LEU82       0.0022
     61  CD1      -28.6150   18.6150  -34.8360 C.3    82  LEU82       0.0001
     62  CD2      -29.9590   18.2260  -32.8140 C.3    82  LEU82       0.0001
     63  N        -29.8400   23.3580  -27.7340 N.3    85  THR85      -0.1218
     64  CA       -30.2100   22.2730  -26.8180 C.3    85  THR85       0.1862
     65  C        -28.9720   21.6630  -26.1390 C.2    85  THR85       0.2287
     66  O        -29.0330   21.3640  -24.9440 O.2    85  THR85      -0.2866
     67  CB       -31.0260   21.1960  -27.5290 C.3    85  THR85       0.1770
     68  OG1      -30.2690   20.6710  -28.6180 O.3    85  THR85      -0.2211
     69  CG2      -32.3870   21.6980  -27.9930 C.3    85  THR85       0.0375
     70  N        -28.2340   21.6380  -22.0470 N.3    89  ARG89      -0.1245
     71  CA       -27.9130   20.4020  -21.3340 C.3    89  ARG89       0.1563
     72  C        -26.5840   20.5270  -20.5800 C.2    89  ARG89       0.2260
     73  O        -26.4700   20.0080  -19.4670 O.2    89  ARG89      -0.2867
     74  CB       -27.8970   19.2150  -22.3050 C.3    89  ARG89       0.0307
     75  CG       -29.3060   18.8740  -22.7690 C.3    89  ARG89       0.0489
     76  CD       -29.3790   17.7100  -23.7180 C.3    89  ARG89       0.2205
     77  NE       -30.7330   17.5780  -24.2540 N.pl3  89  ARG89      -0.0865
     78  CZ       -31.1210   16.6230  -25.0920 C.cat  89  ARG89       0.5346
     79  NH1      -30.2610   15.6960  -25.4970 N.pl3  89  ARG89       0.1354
     80  NH2      -32.3730   16.5830  -25.5270 N.pl3  89  ARG89       0.1354
@<TRIPOS>BOND
     1    19    17    1
     2    12    13    1
     3    16    17    1
     4    16    13    1
     5    17    18    1
     6    13    14    1
     7    14    15    2
     8    20    21    1
     9    24    21    1
    10    21    22    1
    11    29    26    1
    12    25    22   am
    13    25    26    1
    14    22    23    2
    15    26    27    1
    16    27    28    2
    17    42    40    1
    18    30    31    1
    19    34    31    1
    20    40    39    1
    21    31    32    1
    22    39    41    1
    23    39    36    1
    24    35    32   am
    25    35    36    1
    26    32    33    2
    27    36    37    1
    28    37    38    2
    29    61    60    1
    30    60    59    1
    31    60    62    1
    32    43    44    1
    33    47    44    1
    34    47    48    1
    35    59    56    1
    36     4     3    2
    37    44    45    1
    38    55    56    1
    39    55    45   am
    40    48    50   ar
    41    48    49   ar
    42    50    52   ar
    43    56    57    1
    44    45    46    2
    45     3     2    1
    46    49    51   ar
    47    57    58    2
    48    52    53   ar
    49     2     1    1
    50     2     5    1
    51    51    53   ar
    52    53    54    1
    53     5     6    1
    54     6     7    1
    55    11     9    1
    56     9     8    2
    57     9    10    1
    58    68    67    1
    59     8     7    1
    60    69    67    1
    61    63    64    1
    62    67    64    1
    63    64    65    1
    64    65    66    2
    65    80    78    1
    66    79    78    1
    67    78    77    2
    68    77    76    1
    69    76    75    1
    70    75    74    1
    71    74    71    1
    72    70    71    1
    73    71    72    1
    74    72    73    2
