@<TRIPOS>MOLECULE
tmp/4ayxA01.pdb
 94 86 0 0 0
SMALL
GASTEIGER

@<TRIPOS>ATOM
      1  N        -63.8700   98.2550    6.4460 N.3    44  ASP44      -0.1239
      2  CA       -64.5360   99.3760    5.7760 C.3    44  ASP44       0.1674
      3  C        -65.6320  100.0200    6.6440 C.2    44  ASP44       0.2266
      4  O        -65.8970  101.2120    6.4830 O.2    44  ASP44      -0.2867
      5  CB       -65.1120   98.9440    4.4150 C.3    44  ASP44       0.1410
      6  CG       -64.0630   98.6130    3.3600 C.2    44  ASP44       0.3668
      7  OD1      -62.9550   99.2070    3.4060 O.co2  44  ASP44      -0.2456
      8  OD2      -64.3630   97.7960    2.4660 O.co2  44  ASP44      -0.2456
      9  N        -63.7930  102.3420    9.2220 N.3    47  TYR47      -0.1227
     10  CA       -63.2830  103.4490    8.4060 C.3    47  TYR47       0.1736
     11  C        -64.3640  104.4710    8.0470 C.2    47  TYR47       0.2596
     12  O        -64.1180  105.6710    8.1270 O.2    47  TYR47      -0.2718
     13  CB       -62.6820  102.8900    7.1130 C.3    47  TYR47       0.0548
     14  CG       -61.7660  103.8530    6.3980 C.ar   47  TYR47      -0.0200
     15  CD1      -62.2730  104.9400    5.7020 C.ar   47  TYR47      -0.0009
     16  CD2      -60.3910  103.6750    6.4150 C.ar   47  TYR47      -0.0009
     17  CE1      -61.4340  105.8220    5.0340 C.ar   47  TYR47       0.0417
     18  CE2      -59.5440  104.5470    5.7490 C.ar   47  TYR47       0.0417
     19  CZ       -60.0670  105.6280    5.0720 C.ar   47  TYR47       0.1957
     20  OH       -59.2220  106.4720    4.4020 O.3    47  TYR47      -0.2866
     21  N        -65.5490  103.9920    7.6120 N.am   48  THR48      -0.1953
     22  CA       -66.6710  104.8350    7.1900 C.3    48  THR48       0.1897
     23  C        -67.3340  105.5190    8.3920 C.2    48  THR48       0.2313
     24  O        -67.7040  106.6870    8.3000 O.2    48  THR48      -0.2863
     25  CB       -67.6950  103.9860    6.4010 C.3    48  THR48       0.1794
     26  OG1      -67.0370  103.3490    5.3050 O.3    48  THR48      -0.2208
     27  CG2      -68.8840  104.7940    5.8880 C.3    48  THR48       0.0378
     28  N        -44.8880   94.0390   -2.8360 N.3   258  LEU258     -0.1245
     29  CA       -44.7700   95.4910   -2.9590 C.3   258  LEU258      0.1561
     30  C        -45.5410   96.0040   -4.1740 C.2   258  LEU258      0.2260
     31  O        -46.1960   97.0360   -4.0670 O.2   258  LEU258     -0.2867
     32  CB       -43.2960   95.9080   -3.0340 C.3   258  LEU258      0.0270
     33  CG       -42.9810   97.3720   -2.7660 C.3   258  LEU258      0.0019
     34  CD1      -43.2180   97.7320   -1.3080 C.3   258  LEU258      0.0001
     35  CD2      -41.5530   97.6880   -3.1630 C.3   258  LEU258      0.0001
     36  N        -49.2150   95.9700   -3.2930 N.3   261  LEU261     -0.1245
     37  CA       -49.5030   97.0630   -2.3530 C.3   261  LEU261      0.1561
     38  C        -49.5310   98.4080   -3.0880 C.2   261  LEU261      0.2260
     39  O        -50.3910   99.2450   -2.8130 O.2   261  LEU261     -0.2867
     40  CB       -48.4610   97.1050   -1.2260 C.3   261  LEU261      0.0270
     41  CG       -48.5140   95.9890   -0.1860 C.3   261  LEU261      0.0019
     42  CD1      -47.2240   95.9410    0.5940 C.3   261  LEU261      0.0001
     43  CD2      -49.6820   96.1830    0.7700 C.3   261  LEU261      0.0001
     44  N        -52.8160  100.2110   -3.8690 N.3   265  GLY265     -0.1225
     45  CA       -52.7960  101.5450   -3.2760 C.3   265  GLY265      0.1811
     46  C        -53.2430  102.6290   -4.2370 C.2   265  GLY265      0.2280
     47  O        -54.0090  103.5160   -3.8510 O.2   265  GLY265     -0.2866
     48  N        -56.9540  102.2950   -4.9810 N.3   268  MET268     -0.1230
     49  CA       -57.6970  102.8270   -3.8390 C.3   268  MET268      0.1702
     50  C        -57.9530  104.3150   -4.0420 C.2   268  MET268      0.2592
     51  O        -59.1100  104.7350   -4.0200 O.2   268  MET268     -0.2718
     52  CB       -56.9320  102.6140   -2.5300 C.3   268  MET268      0.0401
     53  CG       -57.0800  101.2610   -1.9130 C.3   268  MET268      0.0596
     54  SD       -56.6920  101.4170   -0.1540 S.3   268  MET268     -0.1393
     55  CE       -55.0400  101.2000   -0.1820 C.3   268  MET268      0.0692
     56  N        -56.8780  105.0770   -4.2760 N.am  269  GLY269     -0.1957
     57  CA       -56.9210  106.5170   -4.5190 C.3   269  GLY269      0.1869
     58  C        -57.7390  106.9290   -5.7300 C.2   269  GLY269      0.2309
     59  O        -58.3030  108.0230   -5.7480 O.2   269  GLY269     -0.2863
     60  N        -60.4610  105.3770   -6.5770 N.3   271  ALA271     -0.1245
     61  CA       -61.7930  104.9570   -6.0980 C.3   271  ALA271      0.1562
     62  C        -62.2500  103.6390   -6.7370 C.2   271  ALA271      0.2260
     63  O        -63.4480  103.3410   -6.7360 O.2   271  ALA271     -0.2867
     64  CB       -62.8390  106.0480   -6.3130 C.3   271  ALA271      0.0290
     65  N        -61.0710  100.7330   -5.5630 N.3   273  MET273     -0.1230
     66  CA       -61.0450   99.8090   -4.4130 C.3   273  MET273      0.1702
     67  C        -61.0700  100.5090   -3.0540 C.2   273  MET273      0.2593
     68  O        -60.7020  101.6790   -2.9590 O.2   273  MET273     -0.2718
     69  CB       -59.7700   98.9590   -4.4410 C.3   273  MET273      0.0401
     70  CG       -59.7490   97.8850   -5.4830 C.3   273  MET273      0.0596
     71  SD       -58.4170   96.7360   -5.1360 S.3   273  MET273     -0.1393
     72  CE       -57.1210   97.8230   -4.8920 C.3   273  MET273      0.0692
     73  N        -61.4220   99.7530   -1.9930 N.am  274  THR274     -0.1939
     74  CA       -61.4410  100.2150   -0.6010 C.3   274  THR274      0.2028
     75  C        -60.2730   99.5520    0.1620 C.2   274  THR274      0.2642
     76  O        -59.7000   98.5720   -0.3370 O.2   274  THR274     -0.2714
     77  CB       -62.8020   99.9080    0.0530 C.3   274  THR274      0.1808
     78  OG1      -62.9420   98.5020    0.2120 O.3   274  THR274     -0.2208
     79  CG2      -63.9840  100.4510   -0.7410 C.3   274  THR274      0.0379
     80  N        -59.9330  100.0660    1.3720 N.am  275  VAL275     -0.1977
     81  CA       -58.8540   99.5170    2.2210 C.3   275  VAL275      0.1596
     82  C        -59.1710   98.0620    2.6100 C.2   275  VAL275      0.2287
     83  O        -58.2820   97.2160    2.5580 O.2   275  VAL275     -0.2864
     84  CB       -58.5460  100.4100    3.4600 C.3   275  VAL275      0.0276
     85  CG1      -59.7780  100.6380    4.3460 C.3   275  VAL275      0.0022
     86  CG2      -57.3570   99.8870    4.2660 C.3   275  VAL275      0.0022
     87  N        -58.7510   95.6950   -0.4010 N.3   278  LEU278     -0.1245
     88  CA       -57.3390   95.3810   -0.5890 C.3   278  LEU278      0.1561
     89  C        -56.8990   94.3440    0.4430 C.2   278  LEU278      0.2260
     90  O        -56.2690   93.3550    0.0530 O.2   278  LEU278     -0.2867
     91  CB       -56.4440   96.6220   -0.5390 C.3   278  LEU278      0.0270
     92  CG       -54.9600   96.4170   -0.9280 C.3   278  LEU278      0.0019
     93  CD1      -54.8010   95.8930   -2.3600 C.3   278  LEU278      0.0001
     94  CD2      -54.1780   97.6910   -0.7520 C.3   278  LEU278      0.0001
@<TRIPOS>BOND
     1    62    63    2
     2    62    61    1
     3    60    61    1
     4    64    61    1
     5    59    58    2
     6    58    57    1
     7    65    66    1
     8    70    71    1
     9    70    69    1
    10    71    72    1
    11    48    49    1
    12    57    56    1
    13    69    66    1
    14    66    67    1
    15    56    50   am
    16    46    47    2
    17    46    45    1
    18    30    31    2
    19    30    29    1
    20    50    51    2
    21    50    49    1
    22    44    45    1
    23    49    52    1
    24    36    37    1
    25    35    33    1
    26    38    39    2
    27    38    37    1
    28    67    68    2
    29    67    73   am
    30    32    29    1
    31    32    33    1
    32    29    28    1
    33    33    34    1
    34    52    53    1
    35    93    92    1
    36    37    40    1
    37    73    74    1
    38    53    54    1
    39    40    41    1
    40    92    94    1
    41    92    91    1
    42    79    77    1
    43    74    77    1
    44    74    75    1
    45    88    91    1
    46    88    87    1
    47    88    89    1
    48    76    75    2
    49    41    42    1
    50    41    43    1
    51    55    54    1
    52    90    89    2
    53    77    78    1
    54    75    80   am
    55    80    81    1
    56    81    82    1
    57    81    84    1
    58     8     6   ar
    59    83    82    2
    60     6     7   ar
    61     6     5    1
    62    84    86    1
    63    84    85    1
    64    20    19    1
    65     5     2    1
    66    17    19   ar
    67    17    15   ar
    68    19    18   ar
    69    26    25    1
    70    15    14   ar
    71    18    16   ar
    72     2     1    1
    73     2     3    1
    74    27    25    1
    75    14    16   ar
    76    14    13    1
    77    25    22    1
    78     4     3    2
    79    13    10    1
    80    22    21    1
    81    22    23    1
    82    21    11   am
    83    11    12    2
    84    11    10    1
    85    24    23    2
    86    10     9    1
