@<TRIPOS>MOLECULE
tmp/4ayxA00.pdb
 147 138 0 0 0
SMALL
GASTEIGER

@<TRIPOS>ATOM
      1  N        -33.9060   33.7360   -1.1770 N.3   111  ASP111     -0.1239
      2  CA       -32.4920   33.6490   -1.5660 C.3   111  ASP111      0.1674
      3  C        -32.0660   34.8740   -2.3740 C.2   111  ASP111      0.2266
      4  O        -30.8900   35.2320   -2.3490 O.2   111  ASP111     -0.2867
      5  CB       -32.2380   32.3840   -2.4140 C.3   111  ASP111      0.1410
      6  CG       -32.0520   31.0730   -1.6850 C.2   111  ASP111      0.3668
      7  OD1      -32.0580   31.0770   -0.4330 O.co2 111  ASP111     -0.2456
      8  OD2      -31.8320   30.0540   -2.3630 O.co2 111  ASP111     -0.2456
      9  N        -28.0510   25.4280   -6.8490 N.3   348  TYR348     -0.1241
     10  CA       -28.7950   26.4450   -6.0950 C.3   348  TYR348      0.1605
     11  C        -29.2530   27.6060   -6.9850 C.2   348  TYR348      0.2264
     12  O        -28.5390   27.9420   -7.9240 O.2   348  TYR348     -0.2867
     13  CB       -27.9680   26.9700   -4.9260 C.3   348  TYR348      0.0534
     14  CG       -28.0260   26.0740   -3.7110 C.ar  348  TYR348     -0.0201
     15  CD1      -29.0640   26.1830   -2.7870 C.ar  348  TYR348     -0.0009
     16  CD2      -27.0270   25.1390   -3.4630 C.ar  348  TYR348     -0.0009
     17  CE1      -29.1040   25.3790   -1.6460 C.ar  348  TYR348      0.0417
     18  CE2      -27.0550   24.3340   -2.3270 C.ar  348  TYR348      0.0417
     19  CZ       -28.0960   24.4570   -1.4200 C.ar  348  TYR348      0.1957
     20  OH       -28.1320   23.6460   -0.3130 O.3   348  TYR348     -0.2866
     21  N        -29.3260   30.8530   -6.4440 N.3   350  ALA350     -0.1231
     22  CA       -28.4130   31.9880   -6.2720 C.3   350  ALA350      0.1694
     23  C        -27.0820   31.7690   -7.0060 C.2   350  ALA350      0.2591
     24  O        -26.4660   32.7460   -7.4290 O.2   350  ALA350     -0.2718
     25  CB       -28.1580   32.2380   -4.8000 C.3   350  ALA350      0.0304
     26  N        -26.6430   30.5000   -7.1620 N.am  351  ARG351     -0.1980
     27  CA       -25.4160   30.1060   -7.8780 C.3   351  ARG351      0.1597
     28  C        -25.7550   28.9760   -8.8870 C.2   351  ARG351      0.2287
     29  O        -25.3610   27.8230   -8.6550 O.2   351  ARG351     -0.2864
     30  CB       -24.3210   29.6570   -6.8810 C.3   351  ARG351      0.0334
     31  CG       -23.7400   30.7780   -6.0160 C.3   351  ARG351      0.0492
     32  CD       -22.8570   30.2480   -4.8920 C.3   351  ARG351      0.2205
     33  NE       -21.6270   29.6180   -5.3870 N.pl3 351  ARG351     -0.0865
     34  CZ       -20.4920   30.2670   -5.6370 C.cat 351  ARG351      0.5346
     35  NH1      -20.4100   31.5780   -5.4440 N.pl3 351  ARG351      0.1354
     36  NH2      -19.4300   29.6090   -6.0830 N.pl3 351  ARG351      0.1354
     37  N        -22.8470   26.6390  -10.4110 N.3   354  VAL354     -0.1245
     38  CA       -22.2380   25.6200   -9.5510 C.3   354  VAL354      0.1561
     39  C        -23.2000   24.4120   -9.3480 C.2   354  VAL354      0.2260
     40  O        -24.1820   24.5350   -8.6010 O.2   354  VAL354     -0.2867
     41  CB       -21.7870   26.2000   -8.1800 C.3   354  VAL354      0.0252
     42  CG1      -20.6890   25.3410   -7.5670 C.3   354  VAL354      0.0019
     43  CG2      -21.3310   27.6550   -8.2950 C.3   354  VAL354      0.0019
     44  N        -24.5900   21.0940   -7.6280 N.3   356  ILE356     -0.1245
     45  CA       -24.4770   20.4480   -6.3160 C.3   356  ILE356      0.1561
     46  C        -24.6330   18.9380   -6.4980 C.2   356  ILE356      0.2260
     47  O        -23.8180   18.1870   -5.9600 O.2   356  ILE356     -0.2867
     48  CB       -25.4610   21.0330   -5.2640 C.3   356  ILE356      0.0252
     49  CG1      -25.4700   22.5830   -5.2680 C.3   356  ILE356      0.0019
     50  CG2      -25.1960   20.4730   -3.8630 C.3   356  ILE356      0.0019
     51  CD1      -24.1080   23.3260   -4.9760 C.3   356  ILE356      0.0001
     52  N        -15.9580   18.1550    2.7880 N.3   376  SER376     -0.1202
     53  CA       -16.6040   19.4300    3.1220 C.3   376  SER376      0.2020
     54  C        -16.8870   20.2230    1.8420 C.2   376  SER376      0.2619
     55  O        -16.0250   20.3090    0.9600 O.2   376  SER376     -0.2717
     56  CB       -15.7530   20.2410    4.0930 C.3   376  SER376      0.2103
     57  OG       -16.0030   19.8440    5.4330 O.3   376  SER376     -0.2182
     58  N        -18.1220   20.7060    1.7240 N.am  377  GLY377     -0.1942
     59  CA       -18.5910   21.4520    0.5600 C.3   377  GLY377      0.2014
     60  C        -19.1090   20.5920   -0.5810 C.2   377  GLY377      0.2640
     61  O        -19.4840   21.1390   -1.6250 O.2   377  GLY377     -0.2714
     62  N        -19.1580   19.2390   -0.3930 N.am  378  SER378     -0.1935
     63  CA       -19.6380   18.2730   -1.4010 C.3   378  SER378      0.2055
     64  C        -21.1470   18.4040   -1.6890 C.2   378  SER378      0.2644
     65  O        -21.6020   17.9540   -2.7490 O.2   378  SER378     -0.2714
     66  CB       -19.3320   16.8390   -0.9800 C.3   378  SER378      0.2130
     67  OG       -19.8880   16.5440    0.2910 O.3   378  SER378     -0.2179
     68  N        -21.8880   19.0000   -0.7440 N.am  379  GLY379     -0.1939
     69  CA       -23.3280   19.2250   -0.8370 C.3   379  GLY379      0.2014
     70  C        -24.1560   18.2160   -0.0700 C.2   379  GLY379      0.2639
     71  O        -25.2000   17.7770   -0.5570 O.2   379  GLY379     -0.2714
     72  N        -23.7040   17.8590    1.1410 N.am  380  LYS380     -0.1963
     73  CA       -24.3860   16.9040    2.0090 C.3   380  LYS380      0.1728
     74  C        -25.6420   17.5150    2.6390 C.2   380  LYS380      0.2617
     75  O        -26.6520   16.8230    2.7330 O.2   380  LYS380     -0.2715
     76  CB       -23.4410   16.3740    3.0950 C.3   380  LYS380      0.0311
     77  CG       -22.3700   15.4080    2.5710 C.3   380  LYS380      0.0038
     78  CD       -21.4480   14.8740    3.6800 C.3   380  LYS380      0.0206
     79  CE       -20.5800   15.9190    4.3590 C.3   380  LYS380      0.1093
     80  NZ       -19.7150   16.6520    3.3960 N.3   380  LYS380     -0.1314
     81  N        -25.5940   18.8000    3.0510 N.am  381  SER381     -0.1936
     82  CA       -26.7360   19.5130    3.6480 C.3   381  SER381      0.2055
     83  C        -27.8270   19.8310    2.6160 C.2   381  SER381      0.2643
     84  O        -28.9690   20.1000    3.0010 O.2   381  SER381     -0.2714
     85  CB       -26.2820   20.8040    4.3200 C.3   381  SER381      0.2130
     86  OG       -25.6800   20.5530    5.5790 O.3   381  SER381     -0.2179
     87  N        -27.4830   19.7870    1.3140 N.am  382  THR382     -0.1950
     88  CA       -28.4250   20.0660    0.2290 C.3   382  THR382      0.1897
     89  C        -29.4500   18.9280    0.1280 C.2   382  THR382      0.2313
     90  O        -30.5820   19.1680   -0.2870 O.2   382  THR382     -0.2863
     91  CB       -27.6890   20.3360   -1.0960 C.3   382  THR382      0.1794
     92  OG1      -26.6280   21.2650   -0.8680 O.3   382  THR382     -0.2208
     93  CG2      -28.6030   20.9220   -2.1650 C.3   382  THR382      0.0378
     94  N        -36.6980   23.3460   -2.2380 N.3   391  TYR391     -0.1241
     95  CA       -36.4170   23.4850   -3.6550 C.3   391  TYR391      0.1605
     96  C        -36.8380   22.2000   -4.3710 C.2   391  TYR391      0.2264
     97  O        -36.9430   21.1430   -3.7410 O.2   391  TYR391     -0.2867
     98  CB       -34.9110   23.7110   -3.8890 C.3   391  TYR391      0.0534
     99  CG       -34.2330   24.7980   -3.0840 C.ar  391  TYR391     -0.0201
    100  CD1      -33.5960   24.5060   -1.8800 C.ar  391  TYR391     -0.0009
    101  CD2      -34.0860   26.0830   -3.5990 C.ar  391  TYR391     -0.0009
    102  CE1      -32.9200   25.4930   -1.1600 C.ar  391  TYR391      0.0417
    103  CE2      -33.4000   27.0740   -2.8960 C.ar  391  TYR391      0.0417
    104  CZ       -32.8140   26.7730   -1.6810 C.ar  391  TYR391      0.1957
    105  OH       -32.1440   27.7540   -0.9960 O.3   391  TYR391     -0.2866
    106  N        -26.8290   21.1920   12.3310 N.3   422  GLN422     -0.1245
    107  CA       -25.4570   21.3800   12.8070 C.3   422  GLN422      0.1566
    108  C        -25.4710   22.5440   13.8170 C.2   422  GLN422      0.2260
    109  O        -24.9360   22.4250   14.9260 O.2   422  GLN422     -0.2867
    110  CB       -24.5400   21.6750   11.6080 C.3   422  GLN422      0.0367
    111  CG       -23.1650   21.0280   11.6900 C.3   422  GLN422      0.0905
    112  CD       -22.3790   21.1730   10.4030 C.2   422  GLN422      0.2608
    113  OE1      -22.8900   21.6100    9.3560 O.2   422  GLN422     -0.2717
    114  NE2      -21.1150   20.7790   10.4480 N.am  422  GLN422     -0.0878
    115  N        -27.7150   16.1990   10.9660 N.3   505  ASP505     -0.1239
    116  CA       -26.5390   16.9220   10.5020 C.3   505  ASP505      0.1674
    117  C        -25.5920   17.1120   11.6940 C.2   505  ASP505      0.2266
    118  O        -25.7650   18.0240   12.5070 O.2   505  ASP505     -0.2867
    119  CB       -26.9430   18.2600    9.8520 C.3   505  ASP505      0.1410
    120  CG       -26.0870   18.6970    8.6800 C.2   505  ASP505      0.3668
    121  OD1      -24.8440   18.6060    8.7820 O.co2 505  ASP505     -0.2456
    122  OD2      -26.6510   19.2080    7.6970 O.co2 505  ASP505     -0.2456
    123  N        -19.0010   18.6270   12.6180 N.3   508  THR508     -0.1218
    124  CA       -17.6430   18.2140   12.2340 C.3   508  THR508      0.1862
    125  C        -16.6720   18.7330   13.3110 C.2   508  THR508      0.2287
    126  O        -15.7600   18.0090   13.7280 O.2   508  THR508     -0.2866
    127  CB       -17.2890   18.6660   10.7890 C.3   508  THR508      0.1770
    128  OG1      -15.9140   18.3760   10.5220 O.3   508  THR508     -0.2211
    129  CG2      -17.5750   20.1500   10.5190 C.3   508  THR508      0.0375
    130  N        -25.7160   12.7050    8.3080 N.3   535  ILE535     -0.1245
    131  CA       -24.5090   13.2550    7.7070 C.3   535  ILE535      0.1561
    132  C        -23.5140   13.1400    8.8510 C.2   535  ILE535      0.2260
    133  O        -23.5830   13.9220    9.8050 O.2   535  ILE535     -0.2867
    134  CB       -24.7250   14.6860    7.1270 C.3   535  ILE535      0.0252
    135  CG1      -25.5250   14.6300    5.8130 C.3   535  ILE535      0.0019
    136  CG2      -23.3980   15.4170    6.9000 C.3   535  ILE535      0.0019
    137  CD1      -26.9580   14.8150    5.9720 C.3   535  ILE535      0.0001
    138  N        -19.7280   12.4740   10.8840 N.3   537  HIS537     -0.1241
    139  CA       -18.3280   12.8840   11.0250 C.3   537  HIS537      0.1621
    140  C        -17.6730   12.0900   12.1750 C.2   537  HIS537      0.2264
    141  O        -16.4730   12.2270   12.4180 O.2   537  HIS537     -0.2867
    142  CB       -18.2230   14.4110   11.2380 C.3   537  HIS537      0.0745
    143  CG       -18.8310   15.2020   10.1190 C.ar  537  HIS537      0.0817
    144  ND1      -18.1030   15.5370    8.9890 N.ar  537  HIS537     -0.2268
    145  CD2      -20.0970   15.6560    9.9710 C.ar  537  HIS537      0.1154
    146  CE1      -18.9380   16.2000    8.2050 C.ar  537  HIS537      0.1986
    147  NE2      -20.1480   16.2950    8.7520 N.ar  537  HIS537     -0.2212
@<TRIPOS>BOND
     1    37    38    1
     2    38    39    1
     3    38    41    1
     4    39    40    2
     5    28    29    2
     6    28    27    1
     7    43    41    1
     8    41    42    1
     9    12    11    2
    10    27    26    1
    11    27    30    1
    12    44    45    1
    13    24    23    2
    14    26    23   am
    15    23    22    1
    16    11    10    1
    17    30    31    1
    18     9    10    1
    19    46    45    1
    20    46    47    2
    21    21    22    1
    22    45    48    1
    23    22    25    1
    24    10    13    1
    25    36    34    1
    26    31    32    1
    27    34    35    1
    28    34    33    2
    29    33    32    1
    30    49    48    1
    31    49    51    1
    32    48    50    1
    33    13    14    1
    34    96    97    2
    35    96    95    1
    36    98    95    1
    37    98    99    1
    38    14    16   ar
    39    14    15   ar
    40    95    94    1
    41   101    99   ar
    42   101   103   ar
    43    16    18   ar
    44    99   100   ar
    45   103   104   ar
    46    15    17   ar
    47    65    64    2
    48     5     6    1
    49     5     2    1
    50     3     4    2
    51     3     2    1
    52     8     6   ar
    53    18    19   ar
    54    93    91    1
    55   100   102   ar
    56    64    63    1
    57    64    68   am
    58     6     7   ar
    59   104   102   ar
    60   104   105    1
    61    17    19   ar
    62    61    60    2
    63     2     1    1
    64    19    20    1
    65    63    66    1
    66    63    62    1
    67    91    92    1
    68    91    88    1
    69    66    67    1
    70    69    68    1
    71    69    70    1
    72    60    62   am
    73    60    59    1
    74    71    70    2
    75    90    89    2
    76    70    72   am
    77    89    88    1
    78    88    87    1
    79    59    58    1
    80    55    54    2
    81    72    73    1
    82    87    83   am
    83    58    54   am
    84    54    53    1
    85    73    74    1
    86    73    76    1
    87    77    76    1
    88    77    78    1
    89    83    84    2
    90    83    82    1
    91    74    75    2
    92    74    81   am
    93    52    53    1
    94    81    82    1
    95    53    56    1
    96    80    79    1
    97    82    85    1
    98    78    79    1
    99    56    57    1
   100    85    86    1
   101   135   137    1
   102   135   134    1
   103   136   134    1
   104   134   131    1
   105   122   120   ar
   106   131   130    1
   107   131   132    1
   108   146   147   ar
   109   146   144   ar
   110   120   121   ar
   111   120   119    1
   112   147   145   ar
   113   132   133    2
   114   144   143   ar
   115   113   112    2
   116   119   116    1
   117   145   143   ar
   118   143   142    1
   119   112   114   am
   120   112   111    1
   121   116   115    1
   122   116   117    1
   123   129   127    1
   124   128   127    1
   125   127   124    1
   126   138   139    1
   127   139   142    1
   128   139   140    1
   129   110   111    1
   130   110   107    1
   131   117   118    2
   132   140   141    2
   133   124   123    1
   134   124   125    1
   135   106   107    1
   136   107   108    1
   137   125   126    2
   138   108   109    2
