@<TRIPOS>MOLECULE
tmp/4ayxA02.pdb
 142 137 0 0 0
SMALL
GASTEIGER

@<TRIPOS>ATOM
      1  N        -60.0910   87.1450   -8.1170 N.3   155  PHE155     -0.1241
      2  CA       -60.7180   87.6580   -9.3290 C.3   155  PHE155      0.1605
      3  C        -62.0570   88.3030   -9.0050 C.2   155  PHE155      0.2264
      4  O        -62.4500   89.2380   -9.6970 O.2   155  PHE155     -0.2867
      5  CB       -60.8930   86.5440  -10.3710 C.3   155  PHE155      0.0534
      6  CG       -59.6940   86.3360  -11.2660 C.ar  155  PHE155     -0.0203
      7  CD1      -59.5300   87.0900  -12.4260 C.ar  155  PHE155     -0.0042
      8  CD2      -58.7280   85.3880  -10.9510 C.ar  155  PHE155     -0.0042
      9  CE1      -58.4150   86.9010  -13.2500 C.ar  155  PHE155     -0.0003
     10  CE2      -57.6160   85.1950  -11.7770 C.ar  155  PHE155     -0.0003
     11  CZ       -57.4690   85.9510  -12.9220 C.ar  155  PHE155     -0.0000
     12  N        -60.6000   91.8740  -10.5560 N.3   159  PRO159     -0.2102
     13  CA       -60.0880   91.2020  -11.7640 C.3   159  PRO159      0.1504
     14  C        -58.7790   91.8140  -12.2830 C.2   159  PRO159      0.2575
     15  O        -57.9430   91.0640  -12.7830 O.2   159  PRO159     -0.2718
     16  CB       -61.2330   91.3610  -12.7730 C.3   159  PRO159      0.0282
     17  CG       -62.4430   91.5600  -11.9410 C.3   159  PRO159      0.0208
     18  CD       -61.9620   92.3890  -10.7850 C.3   159  PRO159      0.0893
     19  N        -58.5680   93.1420  -12.1060 N.am  160  ASN160     -0.1975
     20  CA       -57.3400   93.8280  -12.5360 C.3   160  ASN160      0.1688
     21  C        -56.1220   93.3570  -11.7310 C.2   160  ASN160      0.2292
     22  O        -55.1310   92.9290  -12.3360 O.2   160  ASN160     -0.2864
     23  CB       -57.4750   95.3360  -12.4320 C.3   160  ASN160      0.1181
     24  CG       -56.2680   96.0800  -12.9350 C.2   160  ASN160      0.2629
     25  OD1      -55.2910   96.2920  -12.2140 O.2   160  ASN160     -0.2716
     26  ND2      -56.3140   96.4990  -14.1810 N.am  160  ASN160     -0.0877
     27  N        -55.3100   89.5700  -12.4590 N.3   163  THR163     -0.1203
     28  CA       -54.6760   89.4110  -13.7820 C.3   163  THR163      0.1994
     29  C        -53.2050   89.8280  -13.7140 C.2   163  THR163      0.2617
     30  O        -52.3670   89.2110  -14.3660 O.2   163  THR163     -0.2717
     31  CB       -55.4320   90.2270  -14.8380 C.3   163  THR163      0.1784
     32  OG1      -56.7960   89.8210  -14.8400 O.3   163  THR163     -0.2211
     33  CG2      -54.8450   90.0810  -16.2410 C.3   163  THR163      0.0376
     34  N        -52.9040   90.8650  -12.9120 N.am  164  PHE164     -0.1975
     35  CA       -51.5590   91.3950  -12.6950 C.3   164  PHE164      0.1639
     36  C        -50.6830   90.3340  -11.9890 C.2   164  PHE164      0.2290
     37  O        -49.6010   90.0120  -12.4810 O.2   164  PHE164     -0.2864
     38  CB       -51.6170   92.7260  -11.9030 C.3   164  PHE164      0.0560
     39  CG       -50.2710   93.2330  -11.4530 C.ar  164  PHE164     -0.0200
     40  CD1      -49.3980   93.8290  -12.3550 C.ar  164  PHE164     -0.0042
     41  CD2      -49.8580   93.0800  -10.1350 C.ar  164  PHE164     -0.0042
     42  CE1      -48.1320   94.2530  -11.9490 C.ar  164  PHE164     -0.0003
     43  CE2      -48.5940   93.5080   -9.7300 C.ar  164  PHE164     -0.0003
     44  CZ       -47.7400   94.0910  -10.6400 C.ar  164  PHE164     -0.0000
     45  N        -51.2180   87.1650  -11.8710 N.3   166  LEU166     -0.1231
     46  CA       -51.2010   86.0560  -12.8230 C.3   166  LEU166      0.1693
     47  C        -50.1800   86.2710  -13.9410 C.2   166  LEU166      0.2593
     48  O        -49.6880   85.2840  -14.4950 O.2   166  LEU166     -0.2718
     49  CB       -52.6080   85.8520  -13.4240 C.3   166  LEU166      0.0284
     50  CG       -52.9160   84.4950  -14.0810 C.3   166  LEU166      0.0019
     51  CD1      -52.9110   83.3610  -13.0650 C.3   166  LEU166      0.0001
     52  CD2      -54.2460   84.5330  -14.7940 C.3   166  LEU166      0.0001
     53  N        -49.8600   87.5370  -14.2790 N.am  167  SER167     -0.1938
     54  CA       -48.8760   87.8340  -15.3270 C.3   167  SER167      0.2055
     55  C        -47.4340   87.8800  -14.7780 C.2   167  SER167      0.2642
     56  O        -46.4900   87.7080  -15.5490 O.2   167  SER167     -0.2714
     57  CB       -49.2050   89.1550  -16.0160 C.3   167  SER167      0.2130
     58  OG       -49.0490   90.2570  -15.1370 O.3   167  SER167     -0.2179
     59  N        -47.2750   88.1050  -13.4560 N.am  168  VAL168     -0.1977
     60  CA       -45.9910   88.2940  -12.7780 C.3   168  VAL168      0.1596
     61  C        -45.4400   86.9900  -12.1690 C.2   168  VAL168      0.2287
     62  O        -44.2790   86.6680  -12.4200 O.2   168  VAL168     -0.2864
     63  CB       -46.1230   89.4220  -11.7060 C.3   168  VAL168      0.0276
     64  CG1      -44.9200   89.4740  -10.7710 C.3   168  VAL168      0.0022
     65  CG2      -46.3360   90.7770  -12.3620 C.3   168  VAL168      0.0022
     66  N        -43.8200   83.7910  -14.7870 N.3   171  PRO171     -0.2102
     67  CA       -42.4480   83.9720  -15.3180 C.3   171  PRO171      0.1504
     68  C        -41.3550   83.8820  -14.2400 C.2   171  PRO171      0.2575
     69  O        -40.3330   83.2280  -14.4710 O.2   171  PRO171     -0.2718
     70  CB       -42.4860   85.3680  -15.9460 C.3   171  PRO171      0.0282
     71  CG       -43.9100   85.6130  -16.2430 C.3   171  PRO171      0.0208
     72  CD       -44.6680   84.9500  -15.1340 C.3   171  PRO171      0.0893
     73  N        -41.5980   84.4890  -13.0510 N.am  172  VAL172     -0.1980
     74  CA       -40.6910   84.4740  -11.8970 C.3   172  VAL172      0.1595
     75  C        -40.5080   83.0160  -11.4070 C.2   172  VAL172      0.2287
     76  O        -39.3700   82.5930  -11.1910 O.2   172  VAL172     -0.2864
     77  CB       -41.1980   85.4290  -10.7780 C.3   172  VAL172      0.0276
     78  CG1      -40.5020   85.1790   -9.4420 C.3   172  VAL172      0.0022
     79  CG2      -41.0360   86.8850  -11.1950 C.3   172  VAL172      0.0022
     80  N        -38.3120   80.8410  -13.8720 N.3   175  ILE175     -0.1231
     81  CA       -36.9000   81.2030  -13.6920 C.3   175  ILE175      0.1692
     82  C        -36.3640   80.5890  -12.3740 C.2   175  ILE175      0.2591
     83  O        -35.2390   80.0980  -12.3610 O.2   175  ILE175     -0.2718
     84  CB       -36.6990   82.7420  -13.7580 C.3   175  ILE175      0.0266
     85  CG1      -36.9890   83.2640  -15.1860 C.3   175  ILE175      0.0019
     86  CG2      -35.2880   83.1550  -13.3050 C.3   175  ILE175      0.0020
     87  CD1      -37.4770   84.7250  -15.2760 C.3   175  ILE175      0.0001
     88  N        -37.1810   80.5740  -11.3000 N.am  176  ALA176     -0.1980
     89  CA       -36.8160   80.0080   -9.9950 C.3   176  ALA176      0.1597
     90  C        -36.6590   78.4810  -10.0530 C.2   176  ALA176      0.2287
     91  O        -35.8360   77.9330   -9.3190 O.2   176  ALA176     -0.2864
     92  CB       -37.8550   80.3800   -8.9550 C.3   176  ALA176      0.0319
     93  N        -33.2860   77.8080  -11.7290 N.3   179  TYR179     -0.1241
     94  CA       -32.2470   78.0490  -10.7240 C.3   179  TYR179      0.1605
     95  C        -32.2460   76.9230   -9.6780 C.2   179  TYR179      0.2264
     96  O        -31.1810   76.5190   -9.2180 O.2   179  TYR179     -0.2867
     97  CB       -32.4640   79.4110  -10.0460 C.3   179  TYR179      0.0534
     98  CG       -31.2340   80.0910   -9.4690 C.ar  179  TYR179     -0.0201
     99  CD1      -30.0640   79.3740   -9.2160 C.ar  179  TYR179     -0.0009
    100  CD2      -31.2510   81.4460   -9.1480 C.ar  179  TYR179     -0.0009
    101  CE1      -28.9400   79.9930   -8.6700 C.ar  179  TYR179      0.0417
    102  CE2      -30.1280   82.0790   -8.6140 C.ar  179  TYR179      0.0417
    103  CZ       -28.9760   81.3460   -8.3700 C.ar  179  TYR179      0.1957
    104  OH       -27.8680   81.9660   -7.8440 O.3   179  TYR179     -0.2866
    105  N        -29.4120   82.3850   -4.7820 N.3   245  PHE245     -0.1241
    106  CA       -30.7660   81.9040   -5.0240 C.3   245  PHE245      0.1605
    107  C        -31.7050   82.3990   -3.9270 C.2   245  PHE245      0.2264
    108  O        -32.7640   82.9170   -4.2650 O.2   245  PHE245     -0.2867
    109  CB       -30.7810   80.3700   -5.1360 C.3   245  PHE245      0.0534
    110  CG       -32.1380   79.7090   -5.2050 C.ar  245  PHE245     -0.0203
    111  CD1      -32.8490   79.6630   -6.3990 C.ar  245  PHE245     -0.0042
    112  CD2      -32.6790   79.0780   -4.0900 C.ar  245  PHE245     -0.0042
    113  CE1      -34.0930   79.0320   -6.4680 C.ar  245  PHE245     -0.0003
    114  CE2      -33.9320   78.4600   -4.1550 C.ar  245  PHE245     -0.0003
    115  CZ       -34.6260   78.4340   -5.3470 C.ar  245  PHE245     -0.0000
    116  N        -32.2950   86.0850   -4.4740 N.3   248  ALA248     -0.1231
    117  CA       -33.1760   86.2540   -5.6350 C.3   248  ALA248      0.1694
    118  C        -34.6320   85.8690   -5.3100 C.2   248  ALA248      0.2592
    119  O        -35.5530   86.5610   -5.7450 O.2   248  ALA248     -0.2718
    120  CB       -32.6700   85.4190   -6.8000 C.3   248  ALA248      0.0304
    121  N        -34.8300   84.7760   -4.5460 N.am  249  THR249     -0.1953
    122  CA       -36.1440   84.2840   -4.1260 C.3   249  THR249      0.1897
    123  C        -36.8000   85.3160   -3.1820 C.2   249  THR249      0.2313
    124  O        -37.9730   85.6520   -3.3710 O.2   249  THR249     -0.2863
    125  CB       -35.9910   82.8810   -3.4960 C.3   249  THR249      0.1794
    126  OG1      -35.6230   81.9720   -4.5300 O.3   249  THR249     -0.2208
    127  CG2      -37.2640   82.3800   -2.8130 C.3   249  THR249      0.0378
    128  N        -37.6170   88.7900   -5.0820 N.3   252  SER252     -0.1217
    129  CA       -38.7850   88.5530   -5.9330 C.3   252  SER252      0.1889
    130  C        -40.0640   88.4920   -5.1070 C.2   252  SER252      0.2288
    131  O        -41.0240   89.1820   -5.4410 O.2   252  SER252     -0.2866
    132  CB       -38.6210   87.2700   -6.7410 C.3   252  SER252      0.2089
    133  OG       -37.4930   87.3410   -7.5950 O.3   252  SER252     -0.2183
    134  N        -49.8920   98.8580   -6.6880 N.3   263  LYS263     -0.1245
    135  CA       -50.9810   98.8430   -7.6780 C.3   263  LYS263      0.1561
    136  C        -52.3330   98.9810   -6.9860 C.2   263  LYS263      0.2260
    137  O        -53.1640   99.7800   -7.4390 O.2   263  LYS263     -0.2867
    138  CB       -50.9370   97.5770   -8.5410 C.3   263  LYS263      0.0271
    139  CG       -51.7540   97.6740   -9.8110 C.3   263  LYS263      0.0035
    140  CD       -51.0890   96.9050  -10.9240 C.3   263  LYS263      0.0206
    141  CE       -52.0280   96.6240  -12.0630 C.3   263  LYS263      0.1093
    142  NZ       -52.4610   97.8710  -12.7300 N.3   263  LYS263     -0.1314
@<TRIPOS>BOND
     1    71    70    1
     2    71    72    1
     3    33    31    1
     4    57    54    1
     5    57    58    1
     6    70    67    1
     7    56    55    2
     8    54    55    1
     9    54    53    1
    10    67    66    1
    11    67    68    1
    12    87    85    1
    13    85    84    1
    14    72    66    1
    15    32    31    1
    16    31    28    1
    17    52    50    1
    18    55    59   am
    19    48    47    2
    20    69    68    2
    21    30    29    2
    22    53    47   am
    23    68    73   am
    24    26    24   am
    25    50    49    1
    26    50    51    1
    27    47    46    1
    28    80    81    1
    29    28    29    1
    30    28    27    1
    31    84    81    1
    32    84    86    1
    33    29    34   am
    34    81    82    1
    35    59    60    1
    36    49    46    1
    37     9    11   ar
    38     9     7   ar
    39    73    74    1
    40    24    23    1
    41    24    25    2
    42    11    10   ar
    43    34    35    1
    44    46    45    1
    45    15    14    2
    46    60    61    1
    47    60    63    1
    48    16    17    1
    49    16    13    1
    50   142   141    1
    51    35    36    1
    52    35    38    1
    53    20    23    1
    54    20    19    1
    55    20    21    1
    56    37    36    2
    57     7     6   ar
    58    62    61    2
    59    82    83    2
    60    82    88   am
    61    65    63    1
    62    40    42   ar
    63    40    39   ar
    64    22    21    2
    65    14    19   am
    66    14    13    1
    67   141   140    1
    68    42    44   ar
    69    17    18    1
    70    38    39    1
    71    74    75    1
    72    74    77    1
    73    10     8   ar
    74    13    12    1
    75    93    94    1
    76    63    64    1
    77    39    41   ar
    78    75    76    2
    79    88    89    1
    80     6     8   ar
    81     6     5    1
    82    79    77    1
    83   140   139    1
    84    18    12    1
    85    77    78    1
    86    94    97    1
    87    94    95    1
    88    44    43   ar
    89     5     2    1
    90    41    43   ar
    91    90    89    1
    92    90    91    2
    93    97    98    1
    94    89    92    1
    95   139   138    1
    96     4     3    2
    97    95    96    2
    98    98    99   ar
    99    98   100   ar
   100     2     3    1
   101     2     1    1
   102    99   101   ar
   103   100   102   ar
   104   101   103   ar
   105   102   103   ar
   106   138   135    1
   107   103   104    1
   108   135   136    1
   109   135   134    1
   110   133   132    1
   111   137   136    2
   112   120   117    1
   113   132   129    1
   114   113   111   ar
   115   113   115   ar
   116   111   110   ar
   117   129   130    1
   118   129   128    1
   119   119   118    2
   120   117   118    1
   121   117   116    1
   122   131   130    2
   123   115   114   ar
   124   118   121   am
   125   110   109    1
   126   110   112   ar
   127   109   106    1
   128   106   105    1
   129   106   107    1
   130   121   122    1
   131   126   125    1
   132   108   107    2
   133   114   112   ar
   134   122   125    1
   135   122   123    1
   136   125   127    1
   137   124   123    2
