@<TRIPOS>MOLECULE
tmp/4ayxA03.pdb
 114 106 0 0 0
SMALL
GASTEIGER

@<TRIPOS>ATOM
      1  N        -58.5680   93.1420  -12.1060 N.3   160  ASN160     -0.1240
      2  CA       -57.3400   93.8280  -12.5360 C.3   160  ASN160      0.1653
      3  C        -56.1220   93.3570  -11.7310 C.2   160  ASN160      0.2266
      4  O        -55.1310   92.9290  -12.3360 O.2   160  ASN160     -0.2867
      5  CB       -57.4750   95.3360  -12.4320 C.3   160  ASN160      0.1155
      6  CG       -56.2680   96.0800  -12.9350 C.2   160  ASN160      0.2627
      7  OD1      -55.2910   96.2920  -12.2140 O.2   160  ASN160     -0.2716
      8  ND2      -56.3140   96.4990  -14.1810 N.am  160  ASN160     -0.0877
      9  N        -52.9040   90.8650  -12.9120 N.3   164  PHE164     -0.1241
     10  CA       -51.5590   91.3950  -12.6950 C.3   164  PHE164      0.1605
     11  C        -50.6830   90.3340  -11.9890 C.2   164  PHE164      0.2264
     12  O        -49.6010   90.0120  -12.4810 O.2   164  PHE164     -0.2867
     13  CB       -51.6170   92.7260  -11.9030 C.3   164  PHE164      0.0534
     14  CG       -50.2710   93.2330  -11.4530 C.ar  164  PHE164     -0.0203
     15  CD1      -49.3980   93.8290  -12.3550 C.ar  164  PHE164     -0.0042
     16  CD2      -49.8580   93.0800  -10.1350 C.ar  164  PHE164     -0.0042
     17  CE1      -48.1320   94.2530  -11.9490 C.ar  164  PHE164     -0.0003
     18  CE2      -48.5940   93.5080   -9.7300 C.ar  164  PHE164     -0.0003
     19  CZ       -47.7400   94.0910  -10.6400 C.ar  164  PHE164     -0.0000
     20  N        -47.2750   88.1050  -13.4560 N.3   168  VAL168     -0.1245
     21  CA       -45.9910   88.2940  -12.7780 C.3   168  VAL168      0.1561
     22  C        -45.4400   86.9900  -12.1690 C.2   168  VAL168      0.2260
     23  O        -44.2790   86.6680  -12.4200 O.2   168  VAL168     -0.2867
     24  CB       -46.1230   89.4220  -11.7060 C.3   168  VAL168      0.0252
     25  CG1      -44.9200   89.4740  -10.7710 C.3   168  VAL168      0.0019
     26  CG2      -46.3360   90.7770  -12.3620 C.3   168  VAL168      0.0019
     27  N        -41.5980   84.4890  -13.0510 N.3   172  VAL172     -0.1245
     28  CA       -40.6910   84.4740  -11.8970 C.3   172  VAL172      0.1561
     29  C        -40.5080   83.0160  -11.4070 C.2   172  VAL172      0.2260
     30  O        -39.3700   82.5930  -11.1910 O.2   172  VAL172     -0.2867
     31  CB       -41.1980   85.4290  -10.7780 C.3   172  VAL172      0.0252
     32  CG1      -40.5020   85.1790   -9.4420 C.3   172  VAL172      0.0019
     33  CG2      -41.0360   86.8850  -11.1950 C.3   172  VAL172      0.0019
     34  N        -37.6170   88.7900   -5.0820 N.3   252  SER252     -0.1217
     35  CA       -38.7850   88.5530   -5.9330 C.3   252  SER252      0.1889
     36  C        -40.0640   88.4920   -5.1070 C.2   252  SER252      0.2288
     37  O        -41.0240   89.1820   -5.4410 O.2   252  SER252     -0.2866
     38  CB       -38.6210   87.2700   -6.7410 C.3   252  SER252      0.2089
     39  OG       -37.4930   87.3410   -7.5950 O.3   252  SER252     -0.2183
     40  N        -40.7620   92.0810   -3.7240 N.3   255  LEU255     -0.1231
     41  CA       -41.1120   92.9840   -4.8230 C.3   255  LEU255      0.1693
     42  C        -42.4570   92.6260   -5.4640 C.2   255  LEU255      0.2591
     43  O        -43.0670   93.5000   -6.0690 O.2   255  LEU255     -0.2718
     44  CB       -40.0180   93.0280   -5.9030 C.3   255  LEU255      0.0284
     45  CG       -38.6230   93.5540   -5.5200 C.3   255  LEU255      0.0019
     46  CD1      -37.6970   93.4680   -6.6970 C.3   255  LEU255      0.0001
     47  CD2      -38.6540   94.9930   -5.0080 C.3   255  LEU255      0.0001
     48  N        -42.9240   91.3660   -5.3410 N.am  256  ILE256     -0.1980
     49  CA       -44.2330   90.9650   -5.8770 C.3   256  ILE256      0.1595
     50  C        -45.3070   91.5410   -4.9340 C.2   256  ILE256      0.2287
     51  O        -46.2360   92.2040   -5.4060 O.2   256  ILE256     -0.2864
     52  CB       -44.3630   89.4240   -6.1170 C.3   256  ILE256      0.0276
     53  CG1      -43.5710   89.0210   -7.3840 C.3   256  ILE256      0.0022
     54  CG2      -45.8330   88.9990   -6.2590 C.3   256  ILE256      0.0022
     55  CD1      -43.1810   87.5830   -7.5120 C.3   256  ILE256      0.0001
     56  N        -45.5000   95.2630   -5.3030 N.3   259  SER259     -0.1217
     57  CA       -46.2100   95.5960   -6.5410 C.3   259  SER259      0.1889
     58  C        -47.7140   95.5950   -6.3320 C.2   259  SER259      0.2288
     59  O        -48.4070   96.4430   -6.8850 O.2   259  SER259     -0.2866
     60  CB       -45.8610   94.6020   -7.6400 C.3   259  SER259      0.2089
     61  OG       -44.5240   94.7620   -8.0770 O.3   259  SER259     -0.2183
     62  N        -48.6060   98.5900   -4.0470 N.3   262  TYR262     -0.1227
     63  CA       -48.4990   99.7840   -4.8670 C.3   262  TYR262      0.1736
     64  C        -49.6620   99.8880   -5.8460 C.2   262  TYR262      0.2595
     65  O        -50.3500  100.8970   -5.8250 O.2   262  TYR262     -0.2718
     66  CB       -47.1680   99.8100   -5.6130 C.3   262  TYR262      0.0548
     67  CG       -46.9900  101.0240   -6.4980 C.ar  262  TYR262     -0.0200
     68  CD1      -46.9290  102.3050   -5.9560 C.ar  262  TYR262     -0.0009
     69  CD2      -46.8310  100.8890   -7.8750 C.ar  262  TYR262     -0.0009
     70  CE1      -46.7550  103.4250   -6.7670 C.ar  262  TYR262      0.0417
     71  CE2      -46.6480  102.0010   -8.6940 C.ar  262  TYR262      0.0417
     72  CZ       -46.6150  103.2680   -8.1360 C.ar  262  TYR262      0.1957
     73  OH       -46.4400  104.3660   -8.9420 O.3   262  TYR262     -0.2866
     74  N        -49.8920   98.8580   -6.6880 N.am  263  LYS263     -0.1980
     75  CA       -50.9810   98.8430   -7.6780 C.3   263  LYS263      0.1596
     76  C        -52.3330   98.9810   -6.9860 C.2   263  LYS263      0.2287
     77  O        -53.1640   99.7800   -7.4390 O.2   263  LYS263     -0.2864
     78  CB       -50.9370   97.5770   -8.5410 C.3   263  LYS263      0.0298
     79  CG       -51.7540   97.6740   -9.8110 C.3   263  LYS263      0.0038
     80  CD       -51.0890   96.9050  -10.9240 C.3   263  LYS263      0.0206
     81  CE       -52.0280   96.6240  -12.0630 C.3   263  LYS263      0.1093
     82  NZ       -52.4610   97.8710  -12.7300 N.3   263  LYS263     -0.1314
     83  N        -52.7700  102.5480   -5.5080 N.3   266  LEU266     -0.1231
     84  CA       -53.1250  103.4680   -6.5990 C.3   266  LEU266      0.1693
     85  C        -54.6000  103.3250   -6.9580 C.2   266  LEU266      0.2591
     86  O        -55.2720  104.3350   -7.1880 O.2   266  LEU266     -0.2718
     87  CB       -52.2770  103.2340   -7.8710 C.3   266  LEU266      0.0284
     88  CG       -50.7930  103.5590   -7.8550 C.3   266  LEU266      0.0019
     89  CD1      -50.1660  103.1440   -9.1550 C.3   266  LEU266      0.0001
     90  CD2      -50.5330  105.0220   -7.6190 C.3   266  LEU266      0.0001
     91  N        -55.0970  102.0570   -7.0150 N.am  267  LEU267     -0.1980
     92  CA       -56.4920  101.7410   -7.3360 C.3   267  LEU267      0.1596
     93  C        -57.4330  102.2500   -6.2400 C.2   267  LEU267      0.2287
     94  O        -58.5640  102.6270   -6.5440 O.2   267  LEU267     -0.2864
     95  CB       -56.6930  100.2380   -7.5660 C.3   267  LEU267      0.0297
     96  CG       -56.1760   99.6530   -8.8820 C.3   267  LEU267      0.0022
     97  CD1      -56.0920   98.1500   -8.8000 C.3   267  LEU267      0.0001
     98  CD2      -57.0660  100.0330  -10.0440 C.3   267  LEU267      0.0001
     99  N        -57.8340  106.0400   -6.7350 N.3   270  SER270     -0.1217
    100  CA       -58.5940  106.2310   -7.9740 C.3   270  SER270      0.1889
    101  C        -60.0970  105.9080   -7.7780 C.2   270  SER270      0.2288
    102  O        -60.8990  106.1490   -8.6890 O.2   270  SER270     -0.2866
    103  CB       -58.0160  105.3520   -9.0810 C.3   270  SER270      0.2089
    104  OG       -56.6180  105.5240   -9.2570 O.3   270  SER270     -0.2183
    105  N        -61.2940  102.8350   -7.2460 N.3   272  HIS272     -0.1241
    106  CA       -61.5780  101.5240   -7.8350 C.3   272  HIS272      0.1621
    107  C        -61.6770  100.4710   -6.7480 C.2   272  HIS272      0.2264
    108  O        -62.2930   99.4320   -6.9790 O.2   272  HIS272     -0.2867
    109  CB       -60.5080  101.1160   -8.8620 C.3   272  HIS272      0.0745
    110  CG       -60.5710  101.8810  -10.1510 C.ar  272  HIS272      0.0817
    111  ND1      -59.7410  102.9650  -10.3910 N.ar  272  HIS272     -0.2268
    112  CD2      -61.3530  101.6850  -11.2380 C.ar  272  HIS272      0.1154
    113  CE1      -60.0420  103.3890  -11.6070 C.ar  272  HIS272      0.1986
    114  NE2      -61.0070  102.6520  -12.1560 N.ar  272  HIS272     -0.2212
@<TRIPOS>BOND
     1     8     6   am
     2    20    21    1
     3    27    28    1
     4     6     5    1
     5     6     7    2
     6     9    10    1
     7    21    22    1
     8    21    24    1
     9    82    81    1
    10    10    11    1
    11    10    13    1
    12     2     5    1
    13     2     1    1
    14     2     3    1
    15    12    11    2
    16    23    22    2
    17    26    24    1
    18    15    17   ar
    19    15    14   ar
    20     4     3    2
    21   114   113   ar
    22   114   112   ar
    23    81    80    1
    24    17    19   ar
    25    13    14    1
    26    28    29    1
    27    28    31    1
    28    24    25    1
    29   113   111   ar
    30    14    16   ar
    31    29    30    2
    32   112   110   ar
    33    33    31    1
    34    80    79    1
    35    31    32    1
    36    19    18   ar
    37   111   110   ar
    38   110   109    1
    39    16    18   ar
    40    98    96    1
    41    79    78    1
    42   104   103    1
    43    89    88    1
    44   103   100    1
    45    73    72    1
    46    96    97    1
    47    96    95    1
    48   109   106    1
    49    71    72   ar
    50    71    69   ar
    51   102   101    2
    52    78    75    1
    53    72    70   ar
    54    61    60    1
    55   100   101    1
    56   100    99    1
    57    69    67   ar
    58    87    88    1
    59    87    84    1
    60    88    90    1
    61   106   105    1
    62   106   107    1
    63    75    76    1
    64    75    74    1
    65    60    57    1
    66    39    38    1
    67    95    92    1
    68    55    53    1
    69    77    76    2
    70    53    52    1
    71    92    91    1
    72    92    93    1
    73    86    85    2
    74    91    85   am
    75   108   107    2
    76    85    84    1
    77    59    58    2
    78    70    68   ar
    79    38    35    1
    80    46    45    1
    81    74    64   am
    82    84    83    1
    83    94    93    2
    84    57    58    1
    85    57    56    1
    86    67    68   ar
    87    67    66    1
    88    54    52    1
    89    52    49    1
    90    43    42    2
    91    35    36    1
    92    35    34    1
    93    44    45    1
    94    44    41    1
    95    49    48    1
    96    49    50    1
    97    64    65    2
    98    64    63    1
    99    66    63    1
   100    45    47    1
   101    42    48   am
   102    42    41    1
   103    37    36    2
   104    51    50    2
   105    63    62    1
   106    41    40    1
