@<TRIPOS>MOLECULE
tmp/4ayxA04.pdb
 80 75 0 0 0
SMALL
GASTEIGER

@<TRIPOS>ATOM
      1  N        -66.4680   71.6520    4.7900 N.3    27  MET27      -0.1230
      2  CA       -67.1420   72.6590    5.6120 C.3    27  MET27       0.1702
      3  C        -66.1100   73.6140    6.2280 C.2    27  MET27       0.2593
      4  O        -66.1430   74.8020    5.9140 O.2    27  MET27      -0.2718
      5  CB       -67.9830   71.9600    6.6980 C.3    27  MET27       0.0401
      6  CG       -68.7110   72.9020    7.6310 C.3    27  MET27       0.0596
      7  SD       -69.1320   72.1260    9.2160 S.3    27  MET27      -0.1393
      8  CE       -70.5790   71.1640    8.7420 C.3    27  MET27       0.0692
      9  N        -65.1630   73.0820    7.0380 N.am   28  SER28      -0.1952
     10  CA       -64.0950   73.8300    7.7120 C.3    28  SER28       0.1924
     11  C        -63.2940   74.7260    6.7550 C.2    28  SER28       0.2314
     12  O        -63.0520   75.8830    7.0910 O.2    28  SER28      -0.2863
     13  CB       -63.1420   72.8790    8.4270 C.3    28  SER28       0.2116
     14  OG       -63.6800   72.4530    9.6670 O.3    28  SER28      -0.2180
     15  N        -66.0210   77.5350    5.1410 N.3    31  ILE31      -0.1231
     16  CA       -66.4260   78.5310    6.1550 C.3    31  ILE31       0.1692
     17  C        -65.2160   79.4380    6.5080 C.2    31  ILE31       0.2592
     18  O        -65.3950   80.6380    6.6950 O.2    31  ILE31      -0.2718
     19  CB       -67.0580   77.8880    7.4390 C.3    31  ILE31       0.0266
     20  CG1      -68.2120   76.8640    7.1530 C.3    31  ILE31       0.0019
     21  CG2      -67.4730   78.9360    8.4890 C.3    31  ILE31       0.0020
     22  CD1      -69.4240   77.3000    6.2960 C.3    31  ILE31       0.0001
     23  N        -63.9980   78.8640    6.5560 N.am   32  SER32      -0.1952
     24  CA       -62.7540   79.5680    6.8610 C.3    32  SER32       0.1924
     25  C        -62.3940   80.5940    5.7810 C.2    32  SER32       0.2314
     26  O        -61.8890   81.6650    6.1220 O.2    32  SER32      -0.2863
     27  CB       -61.6110   78.5720    7.0250 C.3    32  SER32       0.2116
     28  OG       -60.4550   79.1770    7.5780 O.3    32  SER32      -0.2180
     29  N        -68.7800   79.4320   16.8420 N.3    68  VAL68      -0.1231
     30  CA       -68.3240   78.9660   15.5230 C.3    68  VAL68       0.1692
     31  C        -66.9820   78.2340   15.6940 C.2    68  VAL68       0.2592
     32  O        -66.8000   77.1740   15.0910 O.2    68  VAL68      -0.2718
     33  CB       -68.2460   80.1020   14.4620 C.3    68  VAL68       0.0266
     34  CG1      -67.6660   79.5960   13.1380 C.3    68  VAL68       0.0020
     35  CG2      -69.6180   80.7360   14.2310 C.3    68  VAL68       0.0020
     36  N        -66.0780   78.7620   16.5570 N.am   69  PHE69      -0.1976
     37  CA       -64.7860   78.1340   16.8510 C.3    69  PHE69       0.1639
     38  C        -64.9760   76.8130   17.6110 C.2    69  PHE69       0.2290
     39  O        -64.3240   75.8400   17.2610 O.2    69  PHE69      -0.2864
     40  CB       -63.8520   79.0830   17.6170 C.3    69  PHE69       0.0560
     41  CG       -63.3270   80.2490   16.8080 C.ar   69  PHE69      -0.0200
     42  CD1      -63.1200   80.1320   15.4360 C.ar   69  PHE69      -0.0042
     43  CD2      -63.0120   81.4530   17.4190 C.ar   69  PHE69      -0.0042
     44  CE1      -62.6460   81.2130   14.6880 C.ar   69  PHE69      -0.0003
     45  CE2      -62.5360   82.5340   16.6700 C.ar   69  PHE69      -0.0003
     46  CZ       -62.3510   82.4060   15.3110 C.ar   69  PHE69      -0.0000
     47  N        -67.5420   74.8030   17.3810 N.3    71  CYS71      -0.1221
     48  CA       -68.0400   73.8860   16.3520 C.3    71  CYS71       0.1808
     49  C        -66.8860   73.4840   15.4440 C.2    71  CYS71       0.2601
     50  O        -66.7630   72.3090   15.1170 O.2    71  CYS71      -0.2717
     51  CB       -69.1750   74.5210   15.5550 C.3    71  CYS71       0.0970
     52  SG       -70.6490   74.8930   16.5350 S.3    71  CYS71      -0.0800
     53  N        -66.0500   74.4600   15.0720 N.am   72  GLY72      -0.1957
     54  CA       -64.8750   74.2700   14.2280 C.3    72  GLY72       0.1869
     55  C        -63.8440   73.3410   14.8430 C.2    72  GLY72       0.2309
     56  O        -63.2310   72.5400   14.1280 O.2    72  GLY72      -0.2863
     57  N        -65.4540   69.7930   14.8950 N.3    75  ALA75      -0.1231
     58  CA       -65.4100   69.2960   13.5160 C.3    75  ALA75       0.1694
     59  C        -64.0020   68.8020   13.1690 C.2    75  ALA75       0.2592
     60  O        -63.8600   67.7040   12.6220 O.2    75  ALA75      -0.2718
     61  CB       -65.8360   70.3830   12.5420 C.3    75  ALA75       0.0304
     62  N        -62.9660   69.5910   13.5270 N.am   76  ASN76      -0.1974
     63  CA       -61.5700   69.2400   13.2780 C.3    76  ASN76       0.1688
     64  C        -61.1370   68.0080   14.0930 C.2    76  ASN76       0.2292
     65  O        -60.4270   67.1550   13.5610 O.2    76  ASN76      -0.2864
     66  CB       -60.6540   70.4160   13.5730 C.3    76  ASN76       0.1181
     67  CG       -59.3020   70.2570   12.9290 C.2    76  ASN76       0.2629
     68  OD1      -59.1690   70.2740   11.7000 O.2    76  ASN76      -0.2716
     69  ND2      -58.2720   70.0780   13.7440 N.am   76  ASN76      -0.0877
     70  N        -57.9180   69.7140    0.5440 N.3   142  ARG142     -0.1245
     71  CA       -58.0400   70.9890    1.2500 C.3   142  ARG142      0.1563
     72  C        -57.2980   72.0580    0.4620 C.2   142  ARG142      0.2260
     73  O        -57.9180   73.0480    0.0880 O.2   142  ARG142     -0.2867
     74  CB       -57.5070   70.8670    2.6890 C.3   142  ARG142      0.0307
     75  CG       -57.1910   72.1860    3.3990 C.3   142  ARG142      0.0489
     76  CD       -56.9640   72.0080    4.8900 C.3   142  ARG142      0.2205
     77  NE       -56.0750   70.8800    5.1930 N.pl3 142  ARG142     -0.0865
     78  CZ       -56.1090   70.1740    6.3210 C.cat 142  ARG142      0.5346
     79  NH1      -56.9720   70.4840    7.2830 N.pl3 142  ARG142      0.1354
     80  NH2      -55.2770   69.1540    6.4980 N.pl3 142  ARG142      0.1354
@<TRIPOS>BOND
     1    73    72    2
     2    72    71    1
     3    70    71    1
     4    71    74    1
     5    74    75    1
     6    75    76    1
     7     1     2    1
     8    76    77    1
     9    15    16    1
    10    77    78    2
    11     2     3    1
    12     2     5    1
    13    25    26    2
    14    25    24    1
    15     4     3    2
    16    16    17    1
    17    16    19    1
    18     3     9   am
    19    22    20    1
    20    78    80    1
    21    78    79    1
    22    17    23   am
    23    17    18    2
    24    23    24    1
    25     5     6    1
    26    11    12    2
    27    11    10    1
    28    24    27    1
    29    27    28    1
    30     9    10    1
    31    20    19    1
    32    19    21    1
    33     6     7    1
    34    10    13    1
    35    13    14    1
    36     8     7    1
    37    68    67    2
    38    61    58    1
    39    60    59    2
    40    67    66    1
    41    67    69   am
    42    34    33    1
    43    59    58    1
    44    59    62   am
    45    63    62    1
    46    63    66    1
    47    63    64    1
    48    58    57    1
    49    65    64    2
    50    56    55    2
    51    54    55    1
    52    54    53    1
    53    35    33    1
    54    33    30    1
    55    44    46   ar
    56    44    42   ar
    57    53    49   am
    58    32    31    2
    59    50    49    2
    60    46    45   ar
    61    42    41   ar
    62    49    48    1
    63    30    31    1
    64    30    29    1
    65    51    48    1
    66    51    52    1
    67    31    36   am
    68    48    47    1
    69    36    37    1
    70    45    43   ar
    71    41    43   ar
    72    41    40    1
    73    37    38    1
    74    37    40    1
    75    39    38    2
