@<TRIPOS>MOLECULE
tmp/4ayyB00.pdb
 226 228 0 0 0
SMALL
GASTEIGER

@<TRIPOS>ATOM
      1  N         39.7480   10.2800   20.0620 N.3    43  HIS43      -0.1241
      2  CA        38.3590    9.8920   19.8990 C.3    43  HIS43       0.1621
      3  C         37.7040   10.4480   18.6170 C.2    43  HIS43       0.2264
      4  O         36.6220    9.9940   18.2300 O.2    43  HIS43      -0.2867
      5  CB        37.5500   10.2590   21.1500 C.3    43  HIS43       0.0745
      6  CG        37.0380   11.6620   21.1460 C.ar   43  HIS43       0.0817
      7  ND1       37.7210   12.7060   21.7350 N.ar   43  HIS43      -0.2268
      8  CD2       35.9060   12.1950   20.6240 C.ar   43  HIS43       0.1154
      9  CE1       37.0330   13.8220   21.5710 C.ar   43  HIS43       0.1986
     10  NE2       35.9270   13.5380   20.9050 N.ar   43  HIS43      -0.2212
     11  N         36.6410    5.3780   18.1310 N.3    47  TYR47      -0.1241
     12  CA        35.7780    5.1650   19.2850 C.3    47  TYR47       0.1605
     13  C         34.8740    3.9580   19.0100 C.2    47  TYR47       0.2264
     14  O         33.8050    4.1180   18.4140 O.2    47  TYR47      -0.2867
     15  CB        34.9600    6.4210   19.5970 C.3    47  TYR47       0.0534
     16  CG        34.1860    6.3450   20.8850 C.ar   47  TYR47      -0.0201
     17  CD1       34.8460    6.3300   22.1120 C.ar   47  TYR47      -0.0009
     18  CD2       32.7910    6.2770   20.8810 C.ar   47  TYR47      -0.0009
     19  CE1       34.1430    6.2550   23.3020 C.ar   47  TYR47       0.0417
     20  CE2       32.0710    6.2060   22.0690 C.ar   47  TYR47       0.0417
     21  CZ        32.7570    6.1970   23.2790 C.ar   47  TYR47       0.1957
     22  OH        32.0710    6.1280   24.4710 O.3    47  TYR47      -0.2866
     23  N         30.7640    3.3760   19.3030 N.3    50  TRP50      -0.1241
     24  CA        29.9050    3.8290   18.1960 C.3    50  TRP50       0.1605
     25  C         30.4860    3.4420   16.8450 C.2    50  TRP50       0.2264
     26  O         30.3110    4.1580   15.8540 O.2    50  TRP50      -0.2867
     27  CB        29.6840    5.3390   18.2050 C.3    50  TRP50       0.0550
     28  CG        29.1390    5.9110   19.4540 C.ar   50  TRP50       0.0003
     29  CD1       28.5900    5.2370   20.5090 C.ar   50  TRP50       0.0946
     30  CD2       29.0550    7.3030   19.7740 C.ar   50  TRP50       0.0152
     31  NE1       28.1880    6.1260   21.4800 N.ar   50  TRP50      -0.2442
     32  CE2       28.4590    7.4020   21.0550 C.ar   50  TRP50       0.0810
     33  CE3       29.4360    8.4790   19.1060 C.ar   50  TRP50       0.0012
     34  CZ2       28.2320    8.6360   21.6900 C.ar   50  TRP50       0.0191
     35  CZ3       29.2080    9.7080   19.7310 C.ar   50  TRP50       0.0001
     36  CH2       28.6090    9.7740   21.0150 C.ar   50  TRP50       0.0015
     37  N         33.1920    3.7450   15.3580 N.3    52  LYS52      -0.1245
     38  CA        33.9970    4.7660   14.6930 C.3    52  LYS52       0.1561
     39  C         35.4520    4.2970   14.6210 C.2    52  LYS52       0.2260
     40  O         36.0900    4.0410   15.6450 O.2    52  LYS52      -0.2867
     41  CB        33.8810    6.0890   15.4550 C.3    52  LYS52       0.0271
     42  CG        34.5190    7.2880   14.7690 C.3    52  LYS52       0.0035
     43  CD        34.7230    8.4550   15.7270 C.3    52  LYS52       0.0206
     44  CE        33.5250    9.3860   15.7700 C.3    52  LYS52       0.1093
     45  NZ        33.9840   10.7630   16.1140 N.3    52  LYS52      -0.1314
     46  N         39.4930    4.3410   25.8600 N.3    92  TRP92      -0.1227
     47  CA        38.1290    4.6480   25.4020 C.3    92  TRP92       0.1737
     48  C         37.0240    3.9620   26.2240 C.2    92  TRP92       0.2595
     49  O         35.8620    4.3910   26.1880 O.2    92  TRP92      -0.2718
     50  CB        37.9640    4.3430   23.9050 C.3    92  TRP92       0.0564
     51  CG        38.3340    2.9380   23.4900 C.ar   92  TRP92       0.0003
     52  CD1       39.5230    2.5260   22.9450 C.ar   92  TRP92       0.0946
     53  CD2       37.5070    1.7710   23.5680 C.ar   92  TRP92       0.0152
     54  NE1       39.4880    1.1770   22.6880 N.ar   92  TRP92      -0.2442
     55  CE2       38.2630    0.6870   23.0610 C.ar   92  TRP92       0.0810
     56  CE3       36.2010    1.5320   24.0260 C.ar   92  TRP92       0.0012
     57  CZ2       37.7560   -0.6190   22.9970 C.ar   92  TRP92       0.0191
     58  CZ3       35.6940    0.2290   23.9630 C.ar   92  TRP92       0.0001
     59  CH2       36.4720   -0.8280   23.4490 C.ar   92  TRP92       0.0015
     60  N         37.3960    2.9150   26.9640 N.am   93  ARG93      -0.1966
     61  CA        36.4560    2.1330   27.7770 C.3    93  ARG93       0.1729
     62  C         35.8150    2.9140   28.9190 C.2    93  ARG93       0.2616
     63  O         34.6030    2.8780   29.0770 O.2    93  ARG93      -0.2715
     64  CB        37.1270    0.8730   28.3290 C.3    93  ARG93       0.0348
     65  CG        37.2820   -0.2400   27.3030 C.3    93  ARG93       0.0492
     66  CD        38.1540   -1.3760   27.8400 C.3    93  ARG93       0.2205
     67  NE        38.2970   -2.4370   26.8410 N.pl3  93  ARG93      -0.0865
     68  CZ        39.3560   -2.5970   26.0430 C.cat  93  ARG93       0.5346
     69  NH1       40.4050   -1.7740   26.1170 N.pl3  93  ARG93       0.1354
     70  NH2       39.3710   -3.5950   25.1660 N.pl3  93  ARG93       0.1354
     71  N         36.6060    3.6330   29.7070 N.am   94  GLU94      -0.1963
     72  CA        36.0260    4.2840   30.8840 C.3    94  GLU94       0.1733
     73  C         36.0980    5.8030   31.0180 C.2    94  GLU94       0.2616
     74  O         35.1530    6.4080   31.5210 O.2    94  GLU94      -0.2715
     75  CB        36.4950    3.6150   32.1810 C.3    94  GLU94       0.0429
     76  CG        37.9430    3.1760   32.1840 C.3    94  GLU94       0.1163
     77  CD        38.5190    3.1040   33.5850 C.2    94  GLU94       0.3649
     78  OE1       38.1180    3.9220   34.4580 O.co2  94  GLU94      -0.2457
     79  OE2       39.3780    2.2210   33.8040 O.co2  94  GLU94      -0.2457
     80  N         37.1870    6.4380   30.6010 N.am   95  ASN95      -0.1958
     81  CA        37.2890    7.8840   30.8480 C.3    95  ASN95       0.1819
     82  C         37.9610    8.7590   29.7800 C.2    95  ASN95       0.2621
     83  O         38.1450    9.9530   30.0030 O.2    95  ASN95      -0.2715
     84  CB        37.9320    8.1360   32.2170 C.3    95  ASN95       0.1195
     85  CG        39.3210    7.5410   32.3250 C.2    95  ASN95       0.2630
     86  OD1       39.8130    6.8520   31.4110 O.2    95  ASN95      -0.2716
     87  ND2       39.9660    7.8000   33.4510 N.am   95  ASN95      -0.0877
     88  N         38.3150    8.1770   28.6360 N.am   96  LEU96      -0.1977
     89  CA        39.0000    8.9120   27.5520 C.3    96  LEU96       0.1596
     90  C         40.3730    9.4250   27.9800 C.2    96  LEU96       0.2287
     91  O         40.8000   10.5200   27.5950 O.2    96  LEU96      -0.2864
     92  CB        38.1330   10.0570   26.9940 C.3    96  LEU96       0.0297
     93  CG        37.0200    9.7110   26.0020 C.3    96  LEU96       0.0022
     94  CD1       36.3360   10.9910   25.5620 C.3    96  LEU96       0.0001
     95  CD2       37.5380    8.9330   24.7970 C.3    96  LEU96       0.0001
     96  N         32.6750   10.7260   36.4460 N.3   179  ILE179     -0.1245
     97  CA        33.7270   10.0560   35.6800 C.3   179  ILE179      0.1561
     98  C         35.0440   10.1960   36.4320 C.2   179  ILE179      0.2260
     99  O         35.2670   11.2060   37.1130 O.2   179  ILE179     -0.2867
    100  CB        33.7980   10.5990   34.2260 C.3   179  ILE179      0.0252
    101  CG1       32.6600   10.0020   33.3900 C.3   179  ILE179      0.0019
    102  CG2       35.1210   10.2630   33.5520 C.3   179  ILE179      0.0019
    103  CD1       31.9480   11.0240   32.5350 C.3   179  ILE179      0.0001
    104  N         31.5710   27.4860   26.2890 N.3   199  ASP199     -0.1225
    105  CA        32.0260   26.0930   26.2600 C.3   199  ASP199      0.1805
    106  C         32.3260   25.6460   24.8200 C.2   199  ASP199      0.2598
    107  O         31.9350   26.3080   23.8590 O.2   199  ASP199     -0.2718
    108  CB        30.9620   25.1900   26.8980 C.3   199  ASP199      0.1424
    109  CG        31.4970   23.8270   27.2910 C.2   199  ASP199      0.3668
    110  OD1       32.7370   23.6160   27.3060 O.co2 199  ASP199     -0.2456
    111  OD2       30.6600   22.9430   27.5880 O.co2 199  ASP199     -0.2456
    112  N         33.0360   24.5340   24.6770 N.am  200  ALA200     -0.1966
    113  CA        33.1360   23.8550   23.3960 C.3   200  ALA200      0.1728
    114  C         31.8740   22.9950   23.2490 C.2   200  ALA200      0.2616
    115  O         31.1170   22.8520   24.2190 O.2   200  ALA200     -0.2715
    116  CB        34.3930   22.9960   23.3550 C.3   200  ALA200      0.0334
    117  N         31.6400   22.4340   22.0570 N.am  201  CYS201     -0.1954
    118  CA        30.4470   21.6160   21.7960 C.3   201  CYS201      0.1843
    119  C         30.7200   20.6930   20.6040 C.2   201  CYS201      0.2625
    120  O         31.8310   20.7250   20.0490 O.2   201  CYS201     -0.2714
    121  CB        29.2350   22.5290   21.5500 C.3   201  CYS201      0.0997
    122  SG        27.6180   21.7670   21.8470 S.3   201  CYS201     -0.0797
    123  N         29.7240   19.8900   20.2090 N.am  202  GLU202     -0.1977
    124  CA        29.8830   18.9000   19.1210 C.3   202  GLU202      0.1602
    125  C         30.5320   19.4890   17.8640 C.2   202  GLU202      0.2287
    126  O         30.0850   20.5210   17.3440 O.2   202  GLU202     -0.2864
    127  CB        28.5510   18.2050   18.7730 C.3   202  GLU202      0.0415
    128  CG        28.5670   17.4710   17.4290 C.3   202  GLU202      0.1163
    129  CD        27.5630   16.3230   17.3310 C.2   202  GLU202      0.3649
    130  OE1       26.9440   15.9580   18.3540 O.co2 202  GLU202     -0.2457
    131  OE2       27.3990   15.7670   16.2210 O.co2 202  GLU202     -0.2457
    132  N         35.5970   19.1420   19.0970 N.3   205  SER205     -0.1217
    133  CA        36.5250   18.1270   19.5930 C.3   205  SER205      0.1889
    134  C         37.7890   18.0980   18.7680 C.2   205  SER205      0.2288
    135  O         37.7330   18.2650   17.5450 O.2   205  SER205     -0.2866
    136  CB        35.8920   16.7350   19.5360 C.3   205  SER205      0.2089
    137  OG        34.9760   16.5660   20.5870 O.3   205  SER205     -0.2183
    138  N         40.5910   19.8290   22.9840 N.3   225  VAL225     -0.1231
    139  CA        39.1770   19.6230   23.3390 C.3   225  VAL225      0.1692
    140  C         38.8830   18.1160   23.3230 C.2   225  VAL225      0.2593
    141  O         39.0330   17.4420   22.2870 O.2   225  VAL225     -0.2718
    142  CB        38.2040   20.3790   22.4010 C.3   225  VAL225      0.0266
    143  CG1       36.7700   20.1550   22.8390 C.3   225  VAL225      0.0020
    144  CG2       38.5260   21.8630   22.3530 C.3   225  VAL225      0.0020
    145  N         38.4900   17.5980   24.4840 N.am  226  SER226     -0.1938
    146  CA        38.3490   16.1590   24.6810 C.3   226  SER226      0.2055
    147  C         36.9130   15.7300   24.9560 C.2   226  SER226      0.2643
    148  O         36.3260   15.0180   24.1450 O.2   226  SER226     -0.2714
    149  CB        39.2570   15.6660   25.8080 C.3   226  SER226      0.2130
    150  OG        39.2230   14.2570   25.8840 O.3   226  SER226     -0.2179
    151  N         36.3510   16.1350   26.0940 N.am  227  TRP227     -0.1959
    152  CA        34.9810   15.7300   26.4220 C.3   227  TRP227      0.1771
    153  C         34.3030   16.6680   27.4140 C.2   227  TRP227      0.2620
    154  O         34.9410   17.5330   28.0270 O.2   227  TRP227     -0.2715
    155  CB        34.9240   14.2660   26.9130 C.3   227  TRP227      0.0590
    156  CG        35.6450   14.0180   28.2360 C.ar  227  TRP227      0.0006
    157  CD1       36.9690   13.7120   28.4090 C.ar  227  TRP227      0.0946
    158  CD2       35.0720   14.0610   29.5540 C.ar  227  TRP227      0.0152
    159  NE1       37.2560   13.5770   29.7480 N.ar  227  TRP227     -0.2442
    160  CE2       36.1110   13.7790   30.4720 C.ar  227  TRP227      0.0810
    161  CE3       33.7790   14.3180   30.0500 C.ar  227  TRP227      0.0012
    162  CZ2       35.8990   13.7500   31.8600 C.ar  227  TRP227      0.0191
    163  CZ3       33.5680   14.2830   31.4280 C.ar  227  TRP227      0.0001
    164  CH2       34.6220   14.0050   32.3140 C.ar  227  TRP227      0.0015
    165  N         32.9970   16.4810   27.5520 N.am  228  GLY228     -0.1940
    166  CA        32.1480   17.2720   28.4360 C.3   228  GLY228      0.2014
    167  C         30.7790   16.6180   28.4950 C.2   228  GLY228      0.2639
    168  O         30.4830   15.7030   27.7140 O.2   228  GLY228     -0.2714
    169  N         29.9440   17.0650   29.4290 N.am  229  GLU229     -0.1963
    170  CA        28.5890   16.5170   29.5780 C.3   229  GLU229      0.1733
    171  C         27.5930   17.5850   29.1280 C.2   229  GLU229      0.2617
    172  O         27.2740   18.5180   29.8760 O.2   229  GLU229     -0.2715
    173  CB        28.3400   16.0530   31.0210 C.3   229  GLU229      0.0429
    174  CG        29.2610   14.9180   31.4860 C.3   229  GLU229      0.1163
    175  CD        29.1730   14.6580   32.9840 C.2   229  GLU229      0.3649
    176  OE1       29.7910   15.3810   33.7960 O.co2 229  GLU229     -0.2457
    177  OE2       28.4680   13.7160   33.3620 O.co2 229  GLU229     -0.2457
    178  N         27.1430   17.4660   27.8790 N.am  230  GLY230     -0.1940
    179  CA        26.3560   18.5280   27.2430 C.3   230  GLY230      0.2014
    180  C         27.2610   19.6960   26.8790 C.2   230  GLY230      0.2639
    181  O         28.4700   19.5240   26.7530 O.2   230  GLY230     -0.2714
    182  N         26.6860   20.8840   26.7050 N.am  231  CYS231     -0.1967
    183  CA        27.4720   22.0530   26.3270 C.3   231  CYS231      0.1712
    184  C         26.9780   23.2120   27.1330 C.2   231  CYS231      0.2296
    185  O         25.7950   23.4820   27.1310 O.2   231  CYS231     -0.2864
    186  CB        27.3260   22.3780   24.8310 C.3   231  CYS231      0.0983
    187  SG        27.7210   21.0010   23.7450 S.3   231  CYS231     -0.0798
    188  N         31.8310   21.4320   33.4240 N.3   237  TYR237     -0.1227
    189  CA        33.0710   21.9740   32.8170 C.3   237  TYR237      0.1736
    190  C         33.5510   21.1010   31.6810 C.2   237  TYR237      0.2596
    191  O         33.3980   19.8740   31.7240 O.2   237  TYR237     -0.2718
    192  CB        34.1900   22.1420   33.8720 C.3   237  TYR237      0.0548
    193  CG        33.7180   22.9240   35.0700 C.ar  237  TYR237     -0.0200
    194  CD1       33.0950   22.2770   36.1520 C.ar  237  TYR237     -0.0009
    195  CD2       33.8190   24.3070   35.1010 C.ar  237  TYR237     -0.0009
    196  CE1       32.6070   22.9920   37.2340 C.ar  237  TYR237      0.0417
    197  CE2       33.3430   25.0300   36.1870 C.ar  237  TYR237      0.0417
    198  CZ        32.7390   24.3640   37.2510 C.ar  237  TYR237      0.1957
    199  OH        32.2650   25.0790   38.3270 O.3   237  TYR237     -0.2866
    200  N         34.1240   21.7200   30.6550 N.am  238  GLY238     -0.1942
    201  CA        34.7540   20.9400   29.5870 C.3   238  GLY238      0.2014
    202  C         36.0880   20.3960   30.0650 C.2   238  GLY238      0.2639
    203  O         36.7460   20.9970   30.9030 O.2   238  GLY238     -0.2714
    204  N         36.4820   19.2510   29.5320 N.am  239  PHE239     -0.1959
    205  CA        37.7410   18.6150   29.8790 C.3   239  PHE239      0.1771
    206  C         38.6760   18.5580   28.6820 C.2   239  PHE239      0.2619
    207  O         38.2500   18.4060   27.5310 O.2   239  PHE239     -0.2715
    208  CB        37.4790   17.2160   30.4230 C.3   239  PHE239      0.0574
    209  CG        36.9650   17.2170   31.8270 C.ar  239  PHE239     -0.0200
    210  CD1       35.6200   17.4930   32.0950 C.ar  239  PHE239     -0.0042
    211  CD2       37.8300   16.9860   32.8960 C.ar  239  PHE239     -0.0042
    212  CE1       35.1480   17.5240   33.4040 C.ar  239  PHE239     -0.0003
    213  CE2       37.3570   17.0150   34.2030 C.ar  239  PHE239     -0.0003
    214  CZ        36.0180   17.2840   34.4560 C.ar  239  PHE239     -0.0000
    215  N         39.9640   18.6770   28.9640 N.am  240  TYR240     -0.1974
    216  CA        40.9640   18.8650   27.9320 C.3   240  TYR240      0.1639
    217  C         42.1240   17.9230   28.1840 C.2   240  TYR240      0.2290
    218  O         42.5610   17.7620   29.3270 O.2   240  TYR240     -0.2864
    219  CB        41.4320   20.3300   27.9340 C.3   240  TYR240      0.0560
    220  CG        40.3040   21.3090   27.6350 C.ar  240  TYR240     -0.0198
    221  CD1       39.4310   21.7340   28.6390 C.ar  240  TYR240     -0.0009
    222  CD2       40.0950   21.7840   26.3380 C.ar  240  TYR240     -0.0009
    223  CE1       38.3950   22.6110   28.3640 C.ar  240  TYR240      0.0417
    224  CE2       39.0650   22.6660   26.0500 C.ar  240  TYR240      0.0417
    225  CZ        38.2130   23.0700   27.0660 C.ar  240  TYR240      0.1957
    226  OH        37.1810   23.9330   26.7800 O.3   240  TYR240     -0.2866
@<TRIPOS>BOND
     1    39    38    1
     2    39    40    2
     3    38    37    1
     4    38    41    1
     5    42    41    1
     6    42    43    1
     7    43    44    1
     8    44    45    1
     9    26    25    2
    10   131   129   ar
    11    25    24    1
    12   129   128    1
    13   129   130   ar
    14   126   125    2
    15   128   127    1
    16   135   134    2
    17   125   124    1
    18    11    12    1
    19    24    27    1
    20    24    23    1
    21    27    28    1
    22     4     3    2
    23    14    13    2
    24     3     2    1
    25   134   133    1
    26   127   124    1
    27    13    12    1
    28   132   133    1
    29    33    35   ar
    30    33    30   ar
    31   124   123    1
    32    12    15    1
    33    28    30   ar
    34    28    29   ar
    35   136   133    1
    36   136   137    1
    37    15    16    1
    38    35    36   ar
    39    30    32   ar
    40     2     1    1
    41     2     5    1
    42   120   119    2
    43   123   119   am
    44    29    31   ar
    45   119   118    1
    46     8    10   ar
    47     8     6   ar
    48    18    16   ar
    49    18    20   ar
    50    16    17   ar
    51    10     9   ar
    52    36    34   ar
    53    32    31   ar
    54    32    34   ar
    55     6     5    1
    56     6     7   ar
    57   121   118    1
    58   121   122    1
    59     9     7   ar
    60   118   117    1
    61   122   187    1
    62   117   114   am
    63    20    21   ar
    64    17    19   ar
    65   141   140    2
    66   144   142    1
    67   142   143    1
    68   142   139    1
    69    54    52   ar
    70    54    55   ar
    71    52    51   ar
    72   138   139    1
    73    57    55   ar
    74    57    59   ar
    75    55    53   ar
    76   114   113    1
    77   114   115    2
    78    21    19   ar
    79    21    22    1
    80   140   139    1
    81   140   145   am
    82   116   113    1
    83   113   112    1
    84    59    58   ar
    85    51    53   ar
    86    51    50    1
    87    53    56   ar
    88   187   186    1
    89   107   106    2
    90    50    47    1
    91    58    56   ar
    92   148   147    2
    93   145   146    1
    94   112   106   am
    95   146   147    1
    96   146   149    1
    97    95    93    1
    98   106   105    1
    99   186   183    1
   100   147   151   am
   101    70    68    1
   102    47    46    1
   103    47    48    1
   104    94    93    1
   105   149   150    1
   106    93    92    1
   107    68    69    1
   108    68    67    2
   109   224   222   ar
   110   224   225   ar
   111   151   152    1
   112    49    48    2
   113    48    60   am
   114   105   104    1
   115   105   108    1
   116   183   182    1
   117   183   184    1
   118   222   220   ar
   119   152   155    1
   120   152   153    1
   121   182   180   am
   122   181   180    2
   123   226   225    1
   124    67    66    1
   125   180   179    1
   126   108   109    1
   127   155   156    1
   128    60    61    1
   129    92    89    1
   130   225   223   ar
   131   185   184    2
   132   179   178    1
   133   109   110   ar
   134   109   111   ar
   135    65    66    1
   136    65    64    1
   137   153   165   am
   138   153   154    2
   139   207   206    2
   140    89    90    1
   141    89    88    1
   142   165   166    1
   143    91    90    2
   144   220   219    1
   145   220   221   ar
   146   168   167    2
   147    61    64    1
   148    61    62    1
   149   178   171   am
   150   216   219    1
   151   216   217    1
   152   216   215    1
   153   217   218    2
   154   156   157   ar
   155   156   158   ar
   156   223   221   ar
   157   157   159   ar
   158   166   167    1
   159   167   169   am
   160    88    82   am
   161   206   215   am
   162   206   205    1
   163    62    63    2
   164    62    71   am
   165   171   170    1
   166   171   172    2
   167   169   170    1
   168   204   205    1
   169   204   202   am
   170   158   161   ar
   171   158   160   ar
   172   170   173    1
   173   201   202    1
   174   201   200    1
   175    71    72    1
   176   159   160   ar
   177    82    83    2
   178    82    81    1
   179   205   208    1
   180   161   163   ar
   181   202   203    2
   182   208   209    1
   183   160   162   ar
   184    80    81    1
   185    80    73   am
   186   200   190   am
   187    81    84    1
   188    72    73    1
   189    72    75    1
   190    73    74    2
   191   173   174    1
   192    86    85    2
   193   163   164   ar
   194   174   175    1
   195   190   191    2
   196   190   189    1
   197   209   210   ar
   198   209   211   ar
   199   162   164   ar
   200   210   212   ar
   201    75    76    1
   202    76    77    1
   203    84    85    1
   204    85    87   am
   205   103   101    1
   206   189   188    1
   207   189   192    1
   208   211   213   ar
   209   175   177   ar
   210   175   176   ar
   211   101   100    1
   212   212   214   ar
   213   102   100    1
   214    77    79   ar
   215    77    78   ar
   216   192   193    1
   217   213   214   ar
   218   100    97    1
   219   193   195   ar
   220   193   194   ar
   221   195   197   ar
   222    97    98    1
   223    97    96    1
   224   194   196   ar
   225   197   198   ar
   226    98    99    2
   227   196   198   ar
   228   198   199    1
