@<TRIPOS>MOLECULE
tmp/4az0A01.pdb
 74 72 0 0 0
SMALL
GASTEIGER

@<TRIPOS>ATOM
      1  N        -25.5920    9.3040   15.1170 N.3    56  ASN56      -0.1225
      2  CA       -27.0220    9.5950   15.1600 C.3    56  ASN56       0.1785
      3  C        -27.2020   10.8200   16.0740 C.2    56  ASN56       0.2598
      4  O        -26.2770   11.1670   16.8130 O.2    56  ASN56      -0.2718
      5  CB       -27.8450    8.3840   15.5980 C.3    56  ASN56       0.1169
      6  CG       -28.2390    7.5010   14.4350 C.2    56  ASN56       0.2627
      7  OD1      -27.6560    6.4440   14.2060 O.2    56  ASN56      -0.2716
      8  ND2      -29.2090    7.9330   13.6400 N.am   56  ASN56      -0.0877
      9  N        -28.3450   11.4930   15.9700 N.am   57  GLY57      -0.1942
     10  CA       -28.6030   12.7250   16.7070 C.3    57  GLY57       0.2014
     11  C        -29.1930   12.6050   18.0940 C.2    57  GLY57       0.2639
     12  O        -28.6490   11.9140   18.9630 O.2    57  GLY57      -0.2714
     13  N        -30.2860   13.3350   18.2960 N.am   58  GLY58      -0.1940
     14  CA       -31.0050   13.4190   19.5600 C.3    58  GLY58       0.1999
     15  C        -31.1040   14.8590   20.0340 C.2    58  GLY58       0.2481
     16  O        -32.0250   15.5640   19.6170 O.2    58  GLY58      -0.2729
     17  N        -30.1590   15.3710   20.8630 N.am   59  PRO59      -0.2715
     18  CA       -28.9920   14.6900   21.4660 C.3    59  PRO59       0.1536
     19  C        -29.4190   13.5660   22.4020 C.2    59  PRO59       0.2599
     20  O        -30.4780   13.6570   23.0190 O.2    59  PRO59      -0.2715
     21  CB       -28.2990   15.8100   22.2650 C.3    59  PRO59       0.0310
     22  CG       -28.8430   17.0930   21.7290 C.3    59  PRO59       0.0237
     23  CD       -30.2440   16.7720   21.3130 C.3    59  PRO59       0.0939
     24  N        -28.6150   12.5100   22.4700 N.am   60  GLY60      -0.1941
     25  CA       -28.9010   11.3720   23.3350 C.3    60  GLY60       0.2014
     26  C        -29.3140   10.0840   22.6540 C.2    60  GLY60       0.2639
     27  O        -29.5210    9.0820   23.3400 O.2    60  GLY60      -0.2714
     28  N        -29.4370   10.0800   21.3160 N.am   61  CYS61      -0.1953
     29  CA       -29.8290    8.8740   20.5830 C.3    61  CYS61       0.1843
     30  C        -28.6310    8.0760   20.0710 C.2    61  CYS61       0.2626
     31  O        -27.6000    8.6560   19.7250 O.2    61  CYS61      -0.2714
     32  CB       -30.8290    9.1900   19.4770 C.3    61  CYS61       0.0997
     33  SG       -32.3830    9.9180   20.0680 S.3    61  CYS61      -0.0797
     34  N        -28.7640    6.7410   20.0540 N.am   62  SER62      -0.1950
     35  CA       -27.7070    5.8060   19.6770 C.3    62  SER62       0.1924
     36  C        -27.4270    5.6380   18.1890 C.2    62  SER62       0.2314
     37  O        -28.3520    5.4460   17.3970 O.2    62  SER62      -0.2863
     38  CB       -27.9480    4.4470   20.3240 C.3    62  SER62       0.2116
     39  OG       -27.0010    3.4920   19.8750 O.3    62  SER62      -0.2180
     40  N        -28.7580    2.5430   16.0400 N.3    65  ASP65      -0.1239
     41  CA       -30.0160    2.6720   15.2970 C.3    65  ASP65       0.1674
     42  C        -29.6460    2.7220   13.8250 C.2    65  ASP65       0.2266
     43  O        -30.2730    2.0430   13.0160 O.2    65  ASP65      -0.2867
     44  CB       -30.7530    3.9710   15.6720 C.3    65  ASP65       0.1410
     45  CG       -31.8980    4.3310   14.7390 C.2    65  ASP65       0.3668
     46  OD1      -32.9890    3.7340   14.8790 O.co2  65  ASP65      -0.2456
     47  OD2      -31.6950    5.1950   13.8550 O.co2  65  ASP65      -0.2456
     48  N        -26.6110   12.1790   11.2020 N.3   150  GLU150     -0.1231
     49  CA       -28.0270   12.4810   11.0440 C.3   150  GLU150      0.1699
     50  C        -28.5920   13.3770   12.1490 C.2   150  GLU150      0.2592
     51  O        -28.1760   13.2770   13.3050 O.2   150  GLU150     -0.2718
     52  CB       -28.7880   11.1490   11.0260 C.3   150  GLU150      0.0402
     53  CG       -30.2220   11.2160   10.5460 C.3   150  GLU150      0.1161
     54  CD       -30.7990    9.8300   10.3760 C.2   150  GLU150      0.3649
     55  OE1      -30.4370    9.1620    9.3820 O.co2 150  GLU150     -0.2457
     56  OE2      -31.5580    9.3870   11.2670 O.co2 150  GLU150     -0.2457
     57  N        -29.5980   14.2010   11.7880 N.am  151  SER151     -0.1952
     58  CA       -30.3730   15.0710   12.6790 C.3   151  SER151      0.1924
     59  C        -29.5070   16.0470   13.4820 C.2   151  SER151      0.2314
     60  O        -28.9080   16.9320   12.8700 O.2   151  SER151     -0.2863
     61  CB       -31.3040   14.2340   13.5560 C.3   151  SER151      0.2116
     62  OG       -32.4720   14.9440   13.9320 O.3   151  SER151     -0.2180
     63  N        -41.3990   12.4960   11.4380 N.3   248  TYR248     -0.1241
     64  CA       -40.2310   11.9390   10.7610 C.3   248  TYR248      0.1605
     65  C        -40.4940   11.4930    9.3200 C.2   248  TYR248      0.2264
     66  O        -39.5520   11.3880    8.5390 O.2   248  TYR248     -0.2867
     67  CB       -39.5740   10.8510   11.6220 C.3   248  TYR248      0.0534
     68  CG       -39.2050   11.3520   13.0040 C.ar  248  TYR248     -0.0201
     69  CD1      -38.1810   12.2790   13.1810 C.ar  248  TYR248     -0.0009
     70  CD2      -39.9080   10.9340   14.1300 C.ar  248  TYR248     -0.0009
     71  CE1      -37.8490   12.7590   14.4470 C.ar  248  TYR248      0.0417
     72  CE2      -39.5750   11.3940   15.4040 C.ar  248  TYR248      0.0417
     73  CZ       -38.5520   12.3160   15.5560 C.ar  248  TYR248      0.1957
     74  OH       -38.2260   12.7850   16.8060 O.3   248  TYR248     -0.2866
@<TRIPOS>BOND
     1    66    65    2
     2    65    64    1
     3    55    54   ar
     4    54    53    1
     5    54    56   ar
     6    53    52    1
     7    64    63    1
     8    64    67    1
     9    52    49    1
    10    49    48    1
    11    49    50    1
    12    67    68    1
    13    57    50   am
    14    57    58    1
    15    50    51    2
    16    58    59    1
    17    58    61    1
    18    60    59    2
    19    68    69   ar
    20    68    70   ar
    21    43    42    2
    22    69    71   ar
    23    61    62    1
    24     8     6   am
    25    42    41    1
    26    47    45   ar
    27    70    72   ar
    28     7     6    2
    29     6     5    1
    30    71    73   ar
    31    45    46   ar
    32    45    44    1
    33     1     2    1
    34     2     5    1
    35     2     3    1
    36    41    44    1
    37    41    40    1
    38    72    73   ar
    39    73    74    1
    40     9     3   am
    41     9    10    1
    42     3     4    2
    43    10    11    1
    44    37    36    2
    45    11    13   am
    46    11    12    2
    47    36    35    1
    48    13    14    1
    49    32    33    1
    50    32    29    1
    51    14    15    1
    52    16    15    2
    53    35    34    1
    54    35    38    1
    55    31    30    2
    56    39    38    1
    57    15    17   am
    58    34    30   am
    59    30    29    1
    60    29    28    1
    61    17    23    1
    62    17    18    1
    63    23    22    1
    64    28    26   am
    65    18    21    1
    66    18    19    1
    67    22    21    1
    68    19    24   am
    69    19    20    2
    70    24    25    1
    71    26    25    1
    72    26    27    2
