@<TRIPOS>MOLECULE
tmp/4az0B00.pdb
 103 99 0 0 0
SMALL
GASTEIGER

@<TRIPOS>ATOM
      1  N        -38.5990    8.8980   20.9580 N.3     1  PRO1       -0.2103
      2  CA       -39.2450    9.9220   20.1260 C.3     1  PRO1        0.1489
      3  C        -40.6420    9.5110   19.6530 C.2     1  PRO1        0.2417
      4  O        -40.8600    8.3250   19.4010 O.2     1  PRO1       -0.2734
      5  CB       -38.2660   10.1140   18.9630 C.3     1  PRO1        0.0282
      6  CG       -37.4430    8.8740   18.9420 C.3     1  PRO1        0.0208
      7  CD       -37.3450    8.4080   20.3560 C.3     1  PRO1        0.0893
      8  N        -41.6000   10.4650   19.5210 N.am    2  PRO2       -0.2729
      9  CA       -42.9670   10.0960   19.0990 C.3     2  PRO2        0.1401
     10  C        -43.0880    9.5010   17.6980 C.2     2  PRO2        0.2269
     11  O        -42.2620    9.7790   16.8250 O.2     2  PRO2       -0.2865
     12  CB       -43.7460   11.4120   19.2150 C.3     2  PRO2        0.0296
     13  CG       -42.9310   12.2670   20.1300 C.3     2  PRO2        0.0237
     14  CD       -41.5140   11.9100   19.8100 C.3     2  PRO2        0.0939
     15  N        -42.4430    6.6190   16.5740 N.3     4  THR4       -0.1218
     16  CA       -41.3960    5.6580   16.2220 C.3     4  THR4        0.1862
     17  C        -41.4850    4.4250   17.1040 C.2     4  THR4        0.2287
     18  O        -41.7410    4.5360   18.3060 O.2     4  THR4       -0.2866
     19  CB       -39.9900    6.2820   16.3130 C.3     4  THR4        0.1770
     20  OG1      -39.7070    6.6380   17.6680 O.3     4  THR4       -0.2211
     21  CG2      -39.8080    7.4820   15.3920 C.3     4  THR4        0.0375
     22  N        -39.1560    1.4740   18.3430 N.3     6  THR6       -0.1218
     23  CA       -37.7620    1.0470   18.4950 C.3     6  THR6        0.1862
     24  C        -37.6060   -0.3150   19.1930 C.2     6  THR6        0.2287
     25  O        -36.4730   -0.7490   19.4280 O.2     6  THR6       -0.2866
     26  CB       -36.9490    2.1600   19.1940 C.3     6  THR6        0.1770
     27  OG1      -37.3680    2.2780   20.5550 O.3     6  THR6       -0.2211
     28  CG2      -37.0610    3.5120   18.4840 C.3     6  THR6        0.0375
     29  N        -32.7260    3.2740   23.0360 N.3    33  MET33      -0.1230
     30  CA       -32.5010    3.9060   21.7290 C.3    33  MET33       0.1702
     31  C        -32.0740    5.3670   21.9020 C.2    33  MET33       0.2592
     32  O        -31.0990    5.8010   21.2880 O.2    33  MET33      -0.2718
     33  CB       -33.7690    3.8000   20.8590 C.3    33  MET33       0.0401
     34  CG       -33.6250    4.4000   19.4730 C.3    33  MET33       0.0596
     35  SD       -32.4410    3.5340   18.4220 S.3    33  MET33      -0.1393
     36  CE       -33.4540    2.1840   17.8240 C.3    33  MET33       0.0692
     37  N        -32.7850    6.0960   22.7740 N.am   34  CYS34      -0.1956
     38  CA       -32.5220    7.4910   23.0910 C.3    34  CYS34       0.1843
     39  C        -32.4810    7.6710   24.6090 C.2    34  CYS34       0.2625
     40  O        -33.3950    7.2250   25.3050 O.2    34  CYS34      -0.2714
     41  CB       -33.5660    8.3940   22.4380 C.3    34  CYS34       0.0997
     42  SG       -33.5600    8.3500   20.6250 S.3    34  CYS34      -0.0797
     43  N        -31.4060    8.2900   25.1220 N.am   35  ASN35      -0.1958
     44  CA       -31.2370    8.5310   26.5560 C.3    35  ASN35       0.1819
     45  C        -31.8470    9.8800   26.9360 C.2    35  ASN35       0.2621
     46  O        -31.2680   10.9330   26.6440 O.2    35  ASN35      -0.2715
     47  CB       -29.7610    8.4390   26.9660 C.3    35  ASN35       0.1195
     48  CG       -29.5360    8.3310   28.4600 C.2    35  ASN35       0.2630
     49  OD1      -29.9660    9.1750   29.2540 O.2    35  ASN35      -0.2716
     50  ND2      -28.7980    7.3170   28.8730 N.am   35  ASN35      -0.0877
     51  N        -33.0270    9.8360   27.5820 N.am   36  PHE36      -0.1974
     52  CA       -33.7900   11.0090   28.0230 C.3    36  PHE36       0.1639
     53  C        -33.0020   11.9240   28.9620 C.2    36  PHE36       0.2290
     54  O        -33.0820   13.1470   28.8250 O.2    36  PHE36      -0.2864
     55  CB       -35.1340   10.5750   28.6410 C.3    36  PHE36       0.0560
     56  CG       -35.9140   11.6390   29.3810 C.ar   36  PHE36      -0.0200
     57  CD1      -36.4230   12.7470   28.7110 C.ar   36  PHE36      -0.0042
     58  CD2      -36.1730   11.5140   30.7400 C.ar   36  PHE36      -0.0042
     59  CE1      -37.1470   13.7290   29.3960 C.ar   36  PHE36      -0.0003
     60  CE2      -36.9040   12.4910   31.4220 C.ar   36  PHE36      -0.0003
     61  CZ       -37.3870   13.5900   30.7450 C.ar   36  PHE36      -0.0000
     62  N        -30.3460   13.9900   27.0200 N.3    39  ASN39      -0.1240
     63  CA       -31.0460   15.0520   26.2870 C.3    39  ASN39       0.1653
     64  C        -31.4370   16.2060   27.2110 C.2    39  ASN39       0.2266
     65  O        -31.2060   17.3640   26.8650 O.2    39  ASN39      -0.2867
     66  CB       -32.2890   14.4940   25.5890 C.3    39  ASN39       0.1155
     67  CG       -32.9710   15.4730   24.6640 C.2    39  ASN39       0.2627
     68  OD1      -32.6660   15.5560   23.4720 O.2    39  ASN39      -0.2716
     69  ND2      -33.9260   16.2240   25.1880 N.am   39  ASN39      -0.0877
     70  N        -27.3340   23.1680   24.6780 N.3    44  ARG44      -0.1245
     71  CA       -27.1720   23.5300   23.2700 C.3    44  ARG44       0.1563
     72  C        -26.4490   24.8760   23.2310 C.2    44  ARG44       0.2260
     73  O        -26.8750   25.8150   23.9050 O.2    44  ARG44      -0.2867
     74  CB       -28.5400   23.6120   22.5720 C.3    44  ARG44       0.0307
     75  CG       -29.2380   22.2660   22.4210 C.3    44  ARG44       0.0489
     76  CD       -30.7410   22.4390   22.3780 C.3    44  ARG44       0.2205
     77  NE       -31.4450   21.1560   22.3990 N.pl3  44  ARG44      -0.0865
     78  CZ       -31.9050   20.5330   21.3180 C.cat  44  ARG44       0.5346
     79  NH1      -31.7410   21.0680   20.1130 N.pl3  44  ARG44       0.1354
     80  NH2      -32.5370   19.3730   21.4330 N.pl3  44  ARG44       0.1354
     81  N        -39.1810   17.0650   10.9000 N.3    74  ALA74      -0.1245
     82  CA       -38.2720   17.3950   12.0110 C.3    74  ALA74       0.1562
     83  C        -37.1440   18.3260   11.5350 C.2    74  ALA74       0.2260
     84  O        -36.9740   19.4110   12.0910 O.2    74  ALA74      -0.2867
     85  CB       -37.7040   16.1250   12.6280 C.3    74  ALA74       0.0290
     86  N        -37.0590   11.2630    7.6390 N.3   129  HIS129     -0.1226
     87  CA       -35.9320   11.5510    8.5270 C.3   129  HIS129      0.1752
     88  C        -34.7870   10.5470    8.4140 C.2   129  HIS129      0.2595
     89  O        -33.6240   10.9460    8.4610 O.2   129  HIS129     -0.2718
     90  CB       -36.4240   11.6270    9.9730 C.3   129  HIS129      0.0759
     91  CG       -35.5290   12.3980   10.8880 C.ar  129  HIS129      0.0818
     92  ND1      -35.2930   13.7490   10.6990 N.ar  129  HIS129     -0.2268
     93  CD2      -34.8910   11.9940   12.0100 C.ar  129  HIS129      0.1154
     94  CE1      -34.4960   14.1130   11.6890 C.ar  129  HIS129      0.1986
     95  NE2      -34.2380   13.0930   12.5100 N.ar  129  HIS129     -0.2212
     96  N        -35.1180    9.2530    8.2860 N.am  130  MET130     -0.1979
     97  CA       -34.1330    8.1820    8.1490 C.3   130  MET130      0.1605
     98  C        -34.0980    7.7280    6.7010 C.2   130  MET130      0.2287
     99  O        -34.7240    6.7360    6.3310 O.2   130  MET130     -0.2864
    100  CB       -34.4170    7.0330    9.1280 C.3   130  MET130      0.0413
    101  CG       -34.1550    7.4130   10.5760 C.3   130  MET130      0.0598
    102  SD       -34.4080    6.0720   11.7560 S.3   130  MET130     -0.1393
    103  CE       -36.1990    6.0200   11.8000 C.3   130  MET130      0.0692
@<TRIPOS>BOND
     1    99    98    2
     2    98    97    1
     3    86    87    1
     4    97    96    1
     5    97   100    1
     6    96    88   am
     7    88    89    2
     8    88    87    1
     9    87    90    1
    10   100   101    1
    11    90    91    1
    12   101   102    1
    13    92    91   ar
    14    92    94   ar
    15    91    93   ar
    16    81    82    1
    17    83    82    1
    18    83    84    2
    19    94    95   ar
    20   102   103    1
    21    93    95   ar
    22    82    85    1
    23    21    19    1
    24    16    19    1
    25    16    15    1
    26    16    17    1
    27    19    20    1
    28    11    10    2
    29    17    18    2
    30    10     9    1
    31    36    35    1
    32    22    23    1
    33    35    34    1
    34    28    26    1
    35    23    24    1
    36    23    26    1
    37     6     5    1
    38     6     7    1
    39     5     2    1
    40     9    12    1
    41     9     8    1
    42    24    25    2
    43    26    27    1
    44    12    13    1
    45     4     3    2
    46    34    33    1
    47     8     3   am
    48     8    14    1
    49     3     2    1
    50    14    13    1
    51    79    78    1
    52     2     1    1
    53     7     1    1
    54    42    41    1
    55    33    30    1
    56    32    31    2
    57    78    80    1
    58    78    77    2
    59    30    31    1
    60    30    29    1
    61    31    37   am
    62    76    77    1
    63    76    75    1
    64    75    74    1
    65    41    38    1
    66    74    71    1
    67    37    38    1
    68    38    39    1
    69    72    71    1
    70    72    73    2
    71    71    70    1
    72    68    67    2
    73    39    43   am
    74    39    40    2
    75    67    69   am
    76    67    66    1
    77    43    44    1
    78    66    63    1
    79    63    62    1
    80    63    64    1
    81    44    45    1
    82    44    47    1
    83    46    45    2
    84    65    64    2
    85    45    51   am
    86    47    48    1
    87    51    52    1
    88    52    55    1
    89    52    53    1
    90    48    50   am
    91    48    49    2
    92    55    56    1
    93    57    56   ar
    94    57    59   ar
    95    54    53    2
    96    56    58   ar
    97    59    61   ar
    98    58    60   ar
    99    61    60   ar
