@<TRIPOS>MOLECULE
tmp/4az2B00.pdb
 217 220 0 0 0
SMALL
GASTEIGER

@<TRIPOS>ATOM
      1  N         39.7110   10.2660   20.2430 N.3    43  HIS43      -0.1241
      2  CA        38.3260    9.8700   20.0900 C.3    43  HIS43       0.1621
      3  C         37.6600   10.4500   18.8150 C.2    43  HIS43       0.2264
      4  O         36.5830    9.9990   18.4200 O.2    43  HIS43      -0.2867
      5  CB        37.5200   10.1600   21.3660 C.3    43  HIS43       0.0745
      6  CG        36.9100   11.5220   21.3890 C.ar   43  HIS43       0.0817
      7  ND1       37.5790   12.6320   21.8790 N.ar   43  HIS43      -0.2268
      8  CD2       35.7020   11.9620   20.9550 C.ar   43  HIS43       0.1154
      9  CE1       36.7990   13.6930   21.7510 C.ar   43  HIS43       0.1986
     10  NE2       35.6570   13.3140   21.1930 N.ar   43  HIS43      -0.2212
     11  N         36.6540    5.2140   18.2170 N.3    47  TYR47      -0.1241
     12  CA        35.7920    4.9580   19.3580 C.3    47  TYR47       0.1605
     13  C         34.9240    3.7020   19.0880 C.2    47  TYR47       0.2264
     14  O         33.8220    3.8230   18.5370 O.2    47  TYR47      -0.2867
     15  CB        34.9320    6.1820   19.6480 C.3    47  TYR47       0.0534
     16  CG        34.1540    6.0590   20.9150 C.ar   47  TYR47      -0.0201
     17  CD1       34.8130    6.0360   22.1500 C.ar   47  TYR47      -0.0009
     18  CD2       32.7590    5.9380   20.8950 C.ar   47  TYR47      -0.0009
     19  CE1       34.1080    5.9060   23.3350 C.ar   47  TYR47       0.0417
     20  CE2       32.0290    5.8160   22.0810 C.ar   47  TYR47       0.0417
     21  CZ        32.7190    5.7970   23.3010 C.ar   47  TYR47       0.1957
     22  OH        32.0390    5.6810   24.4960 O.3    47  TYR47      -0.2866
     23  N         30.8210    3.0280   19.3340 N.3    50  TRP50      -0.1241
     24  CA        29.9710    3.4230   18.1930 C.3    50  TRP50       0.1605
     25  C         30.5910    3.0310   16.8580 C.2    50  TRP50       0.2264
     26  O         30.4070    3.7250   15.8630 O.2    50  TRP50      -0.2867
     27  CB        29.6550    4.9190   18.1800 C.3    50  TRP50       0.0550
     28  CG        29.0410    5.4310   19.4240 C.ar   50  TRP50       0.0003
     29  CD1       28.3110    4.7240   20.3330 C.ar   50  TRP50       0.0946
     30  CD2       29.0890    6.7810   19.9030 C.ar   50  TRP50       0.0152
     31  NE1       27.9130    5.5460   21.3610 N.ar   50  TRP50      -0.2442
     32  CE2       28.3730    6.8150   21.1230 C.ar   50  TRP50       0.0810
     33  CE3       29.6830    7.9650   19.4280 C.ar   50  TRP50       0.0012
     34  CZ2       28.2280    7.9910   21.8810 C.ar   50  TRP50       0.0191
     35  CZ3       29.5400    9.1350   20.1780 C.ar   50  TRP50       0.0001
     36  CH2       28.8170    9.1370   21.3950 C.ar   50  TRP50       0.0015
     37  N         39.4780    4.3180   25.9600 N.3    92  TRP92      -0.1227
     38  CA        38.1290    4.6520   25.4890 C.3    92  TRP92       0.1737
     39  C         37.0020    3.9770   26.2870 C.2    92  TRP92       0.2595
     40  O         35.8330    4.3720   26.1650 O.2    92  TRP92      -0.2718
     41  CB        37.9950    4.3480   23.9900 C.3    92  TRP92       0.0564
     42  CG        38.4080    2.9590   23.5990 C.ar   92  TRP92       0.0003
     43  CD1       39.6090    2.5750   23.0500 C.ar   92  TRP92       0.0946
     44  CD2       37.6260    1.7660   23.7240 C.ar   92  TRP92       0.0152
     45  NE1       39.6170    1.2150   22.8230 N.ar   92  TRP92      -0.2442
     46  CE2       38.4120    0.6940   23.2240 C.ar   92  TRP92       0.0810
     47  CE3       36.3340    1.4950   24.2050 C.ar   92  TRP92       0.0012
     48  CZ2       37.9450   -0.6330   23.1950 C.ar   92  TRP92       0.0191
     49  CZ3       35.8670    0.1720   24.1740 C.ar   92  TRP92       0.0001
     50  CH2       36.6740   -0.8730   23.6730 C.ar   92  TRP92       0.0015
     51  N         37.3650    2.9700   27.0940 N.am   93  ARG93      -0.1966
     52  CA        36.4170    2.2040   27.9300 C.3    93  ARG93       0.1729
     53  C         35.7960    3.0340   29.0540 C.2    93  ARG93       0.2616
     54  O         34.5830    3.0610   29.1880 O.2    93  ARG93      -0.2715
     55  CB        37.0630    0.9260   28.5050 C.3    93  ARG93       0.0348
     56  CG        37.5410   -0.0640   27.4460 C.3    93  ARG93       0.0492
     57  CD        38.2320   -1.2980   28.0180 C.3    93  ARG93       0.2205
     58  NE        38.2750   -2.3920   27.0390 N.pl3  93  ARG93      -0.0865
     59  CZ        39.2490   -2.5740   26.1470 C.cat  93  ARG93       0.5346
     60  NH1       40.2860   -1.7440   26.0920 N.pl3  93  ARG93       0.1354
     61  NH2       39.1880   -3.5910   25.3040 N.pl3  93  ARG93       0.1354
     62  N         36.5930    3.7300   29.8560 N.am   94  GLU94      -0.1963
     63  CA        35.9750    4.4340   30.9860 C.3    94  GLU94       0.1733
     64  C         36.0390    5.9640   31.0580 C.2    94  GLU94       0.2616
     65  O         35.1170    6.5850   31.5970 O.2    94  GLU94      -0.2715
     66  CB        36.3750    3.8080   32.3310 C.3    94  GLU94       0.0429
     67  CG        37.8680    3.7070   32.5700 C.3    94  GLU94       0.1163
     68  CD        38.2370    3.5830   34.0420 C.2    94  GLU94       0.3649
     69  OE1       37.6650    4.3100   34.9020 O.co2  94  GLU94      -0.2457
     70  OE2       39.1240    2.7510   34.3300 O.co2  94  GLU94      -0.2457
     71  N         37.0950    6.5920   30.5410 N.am   95  ASN95      -0.1958
     72  CA        37.2050    8.0380   30.7510 C.3    95  ASN95       0.1819
     73  C         37.8710    8.8670   29.6560 C.2    95  ASN95       0.2621
     74  O         38.0590   10.0700   29.8320 O.2    95  ASN95      -0.2715
     75  CB        37.8440    8.3360   32.1200 C.3    95  ASN95       0.1195
     76  CG        39.2010    7.6790   32.2880 C.2    95  ASN95       0.2630
     77  OD1       39.6760    6.9200   31.4240 O.2    95  ASN95      -0.2716
     78  ND2       39.8370    7.9660   33.4070 N.am   95  ASN95      -0.0877
     79  N         38.2040    8.2510   28.5270 N.am   96  LEU96      -0.1977
     80  CA        38.9240    8.9690   27.4490 C.3    96  LEU96       0.1596
     81  C         40.2850    9.4880   27.9260 C.2    96  LEU96       0.2287
     82  O         40.7160   10.5870   27.5680 O.2    96  LEU96      -0.2864
     83  CB        38.0750   10.1020   26.8240 C.3    96  LEU96       0.0297
     84  CG        36.8800    9.7210   25.9560 C.3    96  LEU96       0.0022
     85  CD1       36.3900   10.9680   25.2420 C.3    96  LEU96       0.0001
     86  CD2       37.2240    8.6090   24.9600 C.3    96  LEU96       0.0001
     87  N         32.5620   10.8610   36.4250 N.3   179  ILE179     -0.1245
     88  CA        33.5790   10.1870   35.6160 C.3   179  ILE179      0.1561
     89  C         34.9090   10.3280   36.3460 C.2   179  ILE179      0.2260
     90  O         35.1370   11.3420   37.0170 O.2   179  ILE179     -0.2867
     91  CB        33.5740   10.7060   34.1590 C.3   179  ILE179      0.0252
     92  CG1       32.3370   10.1520   33.4400 C.3   179  ILE179      0.0019
     93  CG2       34.8250   10.2810   33.4060 C.3   179  ILE179      0.0019
     94  CD1       31.6100   11.1610   32.5720 C.3   179  ILE179      0.0001
     95  N         31.4830   27.3820   26.3140 N.3   199  ASP199     -0.1225
     96  CA        31.9660   25.9960   26.3020 C.3   199  ASP199      0.1805
     97  C         32.2630   25.5630   24.8620 C.2   199  ASP199      0.2598
     98  O         31.8640   26.2350   23.9020 O.2   199  ASP199     -0.2718
     99  CB        30.9480   25.0660   26.9780 C.3   199  ASP199      0.1424
    100  CG        31.5280   23.7070   27.3350 C.2   199  ASP199      0.3668
    101  OD1       32.7710   23.5330   27.3100 O.co2 199  ASP199     -0.2456
    102  OD2       30.7370   22.7840   27.6330 O.co2 199  ASP199     -0.2456
    103  N         33.0060   24.4780   24.7080 N.am  200  ALA200     -0.1966
    104  CA        33.1230   23.8400   23.4060 C.3   200  ALA200      0.1728
    105  C         31.8730   22.9760   23.2610 C.2   200  ALA200      0.2616
    106  O         31.1710   22.7470   24.2510 O.2   200  ALA200     -0.2715
    107  CB        34.3940   22.9910   23.3410 C.3   200  ALA200      0.0334
    108  N         31.5840   22.4980   22.0510 N.am  201  CYS201     -0.1954
    109  CA        30.4170   21.6440   21.8260 C.3   201  CYS201      0.1843
    110  C         30.7130   20.6760   20.6850 C.2   201  CYS201      0.2625
    111  O         31.8270   20.6940   20.1470 O.2   201  CYS201     -0.2714
    112  CB        29.1890   22.5110   21.5170 C.3   201  CYS201      0.0997
    113  SG        27.5910   21.7010   21.8350 S.3   201  CYS201     -0.0797
    114  N         29.7310   19.8510   20.3130 N.am  202  GLU202     -0.1977
    115  CA        29.8610   18.9020   19.1960 C.3   202  GLU202      0.1602
    116  C         30.5530   19.4990   17.9510 C.2   202  GLU202      0.2287
    117  O         30.1980   20.5920   17.4950 O.2   202  GLU202     -0.2864
    118  CB        28.4780   18.3510   18.8300 C.3   202  GLU202      0.0415
    119  CG        28.4800   17.0320   18.0740 C.3   202  GLU202      0.1163
    120  CD        29.3230   15.9510   18.7560 C.2   202  GLU202      0.3649
    121  OE1       29.3930   15.8750   20.0160 O.co2 202  GLU202     -0.2457
    122  OE2       29.9400   15.1600   18.0130 O.co2 202  GLU202     -0.2457
    123  N         35.6030   19.1230   19.1090 N.3   205  SER205     -0.1217
    124  CA        36.5590   18.1930   19.6850 C.3   205  SER205      0.1889
    125  C         37.7880   18.1040   18.8230 C.2   205  SER205      0.2288
    126  O         37.6980   18.2330   17.5910 O.2   205  SER205     -0.2866
    127  CB        35.9580   16.8040   19.8670 C.3   205  SER205      0.2089
    128  OG        34.8100   16.8790   20.6910 O.3   205  SER205     -0.2183
    129  N         40.6700   19.8960   23.0020 N.3   225  VAL225     -0.1231
    130  CA        39.2590   19.6930   23.3740 C.3   225  VAL225      0.1692
    131  C         38.9750   18.1790   23.3770 C.2   225  VAL225      0.2593
    132  O         39.0540   17.5040   22.3360 O.2   225  VAL225     -0.2718
    133  CB        38.2840   20.4490   22.4380 C.3   225  VAL225      0.0266
    134  CG1       36.8360   20.2010   22.8500 C.3   225  VAL225      0.0020
    135  CG2       38.6080   21.9360   22.3970 C.3   225  VAL225      0.0020
    136  N         38.6660   17.6550   24.5590 N.am  226  SER226     -0.1938
    137  CA        38.5180   16.2140   24.7340 C.3   226  SER226      0.2055
    138  C         37.0730   15.8030   24.9910 C.2   226  SER226      0.2643
    139  O         36.4460   15.1610   24.1420 O.2   226  SER226     -0.2714
    140  CB        39.4110   15.7150   25.8730 C.3   226  SER226      0.2130
    141  OG        39.3840   14.3200   25.9340 O.3   226  SER226     -0.2179
    142  N         36.5380   16.1480   26.1530 N.am  227  TRP227     -0.1959
    143  CA        35.2080   15.6560   26.4910 C.3   227  TRP227      0.1771
    144  C         34.4750   16.5710   27.4480 C.2   227  TRP227      0.2620
    145  O         35.0300   17.5630   27.9480 O.2   227  TRP227     -0.2715
    146  CB        35.2510   14.2000   27.0150 C.3   227  TRP227      0.0590
    147  CG        35.9600   14.0240   28.3550 C.ar  227  TRP227      0.0006
    148  CD1       37.2990   13.8280   28.5530 C.ar  227  TRP227      0.0946
    149  CD2       35.3590   14.0300   29.6680 C.ar  227  TRP227      0.0152
    150  NE1       37.5770   13.7320   29.8990 N.ar  227  TRP227     -0.2442
    151  CE2       36.4090   13.8350   30.6080 C.ar  227  TRP227      0.0810
    152  CE3       34.0350   14.1780   30.1430 C.ar  227  TRP227      0.0012
    153  CZ2       36.1800   13.7990   32.0050 C.ar  227  TRP227      0.0191
    154  CZ3       33.8040   14.1450   31.5340 C.ar  227  TRP227      0.0001
    155  CH2       34.8770   13.9580   32.4450 C.ar  227  TRP227      0.0015
    156  N         33.2080   16.2350   27.6660 N.am  228  GLY228     -0.1940
    157  CA        32.3110   16.9610   28.5620 C.3   228  GLY228      0.2014
    158  C         30.9660   16.2470   28.5910 C.2   228  GLY228      0.2639
    159  O         30.7930   15.1520   28.0040 O.2   228  GLY228     -0.2714
    160  N         30.0100   16.8660   29.2780 N.am  229  GLU229     -0.1963
    161  CA        28.6540   16.3160   29.4140 C.3   229  GLU229      0.1733
    162  C         27.6600   17.4110   29.0120 C.2   229  GLU229      0.2617
    163  O         27.3680   18.3300   29.8010 O.2   229  GLU229     -0.2715
    164  CB        28.3990   15.8140   30.8360 C.3   229  GLU229      0.0429
    165  CG        29.2500   14.6120   31.2470 C.3   229  GLU229      0.1163
    166  CD        29.2760   14.4320   32.7620 C.2   229  GLU229      0.3649
    167  OE1       30.0480   15.1030   33.4730 O.co2 229  GLU229     -0.2457
    168  OE2       28.4900   13.6260   33.2690 O.co2 229  GLU229     -0.2457
    169  N         27.1800   17.3150   27.7630 N.am  230  GLY230     -0.1940
    170  CA        26.4100   18.3930   27.1340 C.3   230  GLY230      0.2014
    171  C         27.2730   19.5950   26.7900 C.2   230  GLY230      0.2639
    172  O         28.4890   19.4710   26.6310 O.2   230  GLY230     -0.2714
    173  N         26.6550   20.7650   26.6700 N.am  231  CYS231     -0.1967
    174  CA        27.4160   21.9530   26.3200 C.3   231  CYS231      0.1712
    175  C         26.9190   23.1100   27.1370 C.2   231  CYS231      0.2296
    176  O         25.7340   23.4050   27.1180 O.2   231  CYS231     -0.2864
    177  CB        27.3050   22.2940   24.8110 C.3   231  CYS231      0.0983
    178  SG        27.7120   20.9170   23.7340 S.3   231  CYS231     -0.0798
    179  N         31.8380   21.4440   33.4780 N.3   237  TYR237     -0.1227
    180  CA        33.1020   21.9940   32.8990 C.3   237  TYR237      0.1736
    181  C         33.5870   21.1570   31.7290 C.2   237  TYR237      0.2596
    182  O         33.4140   19.9400   31.7280 O.2   237  TYR237     -0.2718
    183  CB        34.2200   22.1340   33.9740 C.3   237  TYR237      0.0548
    184  CG        33.7480   22.9280   35.1610 C.ar  237  TYR237     -0.0200
    185  CD1       33.8110   24.3120   35.1540 C.ar  237  TYR237     -0.0009
    186  CD2       33.1450   22.2910   36.2630 C.ar  237  TYR237     -0.0009
    187  CE1       33.3250   25.0500   36.2230 C.ar  237  TYR237      0.0417
    188  CE2       32.6440   23.0190   37.3340 C.ar  237  TYR237      0.0417
    189  CZ        32.7460   24.3950   37.3130 C.ar  237  TYR237      0.1957
    190  OH        32.2690   25.1370   38.3670 O.3   237  TYR237     -0.2866
    191  N         34.1910   21.7980   30.7320 N.am  238  GLY238     -0.1942
    192  CA        34.8090   21.0420   29.6370 C.3   238  GLY238      0.2014
    193  C         36.1360   20.4720   30.0990 C.2   238  GLY238      0.2639
    194  O         36.8460   21.0940   30.9040 O.2   238  GLY238     -0.2714
    195  N         36.4620   19.2830   29.6080 N.am  239  PHE239     -0.1959
    196  CA        37.7330   18.6410   29.9210 C.3   239  PHE239      0.1771
    197  C         38.6680   18.6190   28.7260 C.2   239  PHE239      0.2619
    198  O         38.2490   18.4570   27.5670 O.2   239  PHE239     -0.2715
    199  CB        37.5020   17.2300   30.4780 C.3   239  PHE239      0.0574
    200  CG        37.0130   17.2360   31.8910 C.ar  239  PHE239     -0.0200
    201  CD1       35.6700   17.4910   32.1790 C.ar  239  PHE239     -0.0042
    202  CD2       37.9060   17.0770   32.9530 C.ar  239  PHE239     -0.0042
    203  CE1       35.2240   17.5520   33.5030 C.ar  239  PHE239     -0.0003
    204  CE2       37.4650   17.1340   34.2770 C.ar  239  PHE239     -0.0003
    205  CZ        36.1240   17.3680   34.5500 C.ar  239  PHE239     -0.0000
    206  N         39.9470   18.7850   29.0230 N.am  240  TYR240     -0.1974
    207  CA        40.9790   18.9510   28.0040 C.3   240  TYR240      0.1639
    208  C         42.1400   18.0020   28.2250 C.2   240  TYR240      0.2290
    209  O         42.5790   17.8060   29.3610 O.2   240  TYR240     -0.2864
    210  CB        41.4520   20.4150   27.9950 C.3   240  TYR240      0.0560
    211  CG        40.3140   21.3650   27.6700 C.ar  240  TYR240     -0.0198
    212  CD1       39.4230   21.7830   28.6690 C.ar  240  TYR240     -0.0009
    213  CD2       40.1000   21.8180   26.3540 C.ar  240  TYR240     -0.0009
    214  CE1       38.3740   22.6340   28.3850 C.ar  240  TYR240      0.0417
    215  CE2       39.0490   22.6880   26.0580 C.ar  240  TYR240      0.0417
    216  CZ        38.1810   23.0750   27.0790 C.ar  240  TYR240      0.1957
    217  OH        37.1140   23.9030   26.8120 O.3   240  TYR240     -0.2866
@<TRIPOS>BOND
     1    26    25    2
     2    25    24    1
     3   117   116    2
     4   126   125    2
     5   116   115    1
     6   122   120   ar
     7   119   120    1
     8   119   118    1
     9    27    24    1
    10    27    28    1
    11    24    23    1
    12    11    12    1
    13     4     3    2
    14    14    13    2
    15   120   121   ar
    16     3     2    1
    17   125   124    1
    18   118   115    1
    19    13    12    1
    20   123   124    1
    21   115   114    1
    22    12    15    1
    23    28    30   ar
    24    28    29   ar
    25    33    30   ar
    26    33    35   ar
    27    15    16    1
    28   124   127    1
    29   127   128    1
    30    30    32   ar
    31     2     1    1
    32     2     5    1
    33   111   110    2
    34    35    36   ar
    35   114   110   am
    36    29    31   ar
    37   110   109    1
    38    18    16   ar
    39    18    20   ar
    40    16    17   ar
    41     8    10   ar
    42     8     6   ar
    43    32    31   ar
    44    32    34   ar
    45    10     9   ar
    46     5     6    1
    47     6     7   ar
    48    36    34   ar
    49   112   109    1
    50   112   113    1
    51     9     7   ar
    52   109   108    1
    53   113   178    1
    54   108   105   am
    55    20    21   ar
    56    17    19   ar
    57   132   131    2
    58   135   133    1
    59   133   134    1
    60   133   130    1
    61    45    43   ar
    62    45    46   ar
    63   129   130    1
    64    43    42   ar
    65    48    46   ar
    66    48    50   ar
    67    46    44   ar
    68   105   104    1
    69   105   106    2
    70    21    19   ar
    71    21    22    1
    72   107   104    1
    73   130   131    1
    74   131   136   am
    75   104   103    1
    76    42    44   ar
    77    42    41    1
    78    50    49   ar
    79    44    47   ar
    80   178   177    1
    81    98    97    2
    82    41    38    1
    83   139   138    2
    84    49    47   ar
    85   136   137    1
    86   103    97   am
    87   137   138    1
    88   137   140    1
    89   177   174    1
    90    97    96    1
    91    86    84    1
    92   138   142   am
    93    85    84    1
    94    61    59    1
    95    38    37    1
    96    38    39    1
    97   140   141    1
    98    84    83    1
    99   215   213   ar
   100   215   216   ar
   101    60    59    1
   102    59    58    2
   103   142   143    1
   104    40    39    2
   105    39    51   am
   106    96    95    1
   107    96    99    1
   108   174   173    1
   109   174   175    1
   110   213   211   ar
   111   143   146    1
   112   143   144    1
   113   172   171    2
   114   173   171   am
   115   171   170    1
   116   217   216    1
   117    83    80    1
   118    99   100    1
   119   146   147    1
   120    58    57    1
   121   216   214   ar
   122    51    52    1
   123   176   175    2
   124   170   169    1
   125   101   100   ar
   126   100   102   ar
   127    56    57    1
   128    56    55    1
   129   144   156   am
   130   144   145    2
   131    80    81    1
   132    80    79    1
   133   198   197    2
   134    82    81    2
   135   156   157    1
   136   211   210    1
   137   211   212   ar
   138   169   162   am
   139    52    55    1
   140    52    53    1
   141   210   207    1
   142   159   158    2
   143   207   208    1
   144   207   206    1
   145   208   209    2
   146   147   148   ar
   147   147   149   ar
   148   214   212   ar
   149    79    73   am
   150   148   150   ar
   151   157   158    1
   152   158   160   am
   153   197   206   am
   154   197   196    1
   155   162   161    1
   156   162   163    2
   157    53    54    2
   158    53    62   am
   159   160   161    1
   160   161   164    1
   161   195   196    1
   162   195   193   am
   163   192   193    1
   164   192   191    1
   165    73    74    2
   166    73    72    1
   167   149   152   ar
   168   149   151   ar
   169    62    63    1
   170   150   151   ar
   171   196   199    1
   172   193   194    2
   173   152   154   ar
   174   199   200    1
   175    71    72    1
   176    71    64   am
   177   151   153   ar
   178   191   181   am
   179    72    75    1
   180   164   165    1
   181    63    64    1
   182    63    66    1
   183    64    65    2
   184   165   166    1
   185    77    76    2
   186   154   155   ar
   187   182   181    2
   188   181   180    1
   189   200   201   ar
   190   200   202   ar
   191   153   155   ar
   192    75    76    1
   193   201   203   ar
   194    76    78   am
   195    66    67    1
   196    67    68    1
   197    94    92    1
   198   166   168   ar
   199   166   167   ar
   200   180   179    1
   201   180   183    1
   202   202   204   ar
   203    93    91    1
   204    92    91    1
   205   203   205   ar
   206   183   184    1
   207    68    70   ar
   208    68    69   ar
   209    91    88    1
   210   204   205   ar
   211   185   184   ar
   212   185   187   ar
   213   184   186   ar
   214    88    89    1
   215    88    87    1
   216   187   189   ar
   217   186   188   ar
   218    89    90    2
   219   189   188   ar
   220   189   190    1
