@<TRIPOS>MOLECULE
tmp/4az3B00.pdb
 119 115 0 0 0
SMALL
GASTEIGER

@<TRIPOS>ATOM
      1  N        -38.2970    7.3680   26.5620 N.3     1  MET1       -0.1230
      2  CA       -37.0960    6.8780   25.8850 C.3     1  MET1        0.1702
      3  C        -37.2200    6.8670   24.3530 C.2     1  MET1        0.2592
      4  O        -36.2010    6.8700   23.6610 O.2     1  MET1       -0.2718
      5  CB       -36.6710    5.4920   26.4180 C.3     1  MET1        0.0401
      6  CG       -37.6750    4.3800   26.1520 C.3     1  MET1        0.0596
      7  SD       -36.9070    2.7450   26.1750 S.3     1  MET1       -0.1393
      8  CE       -38.3220    1.7270   25.8370 C.3     1  MET1        0.0692
      9  N        -38.4590    6.8310   23.8320 N.am    2  ASP2       -0.1960
     10  CA       -38.7240    6.7920   22.3960 C.3     2  ASP2        0.1825
     11  C        -39.2900    8.1070   21.8600 C.2     2  ASP2        0.2464
     12  O        -40.2610    8.6190   22.4270 O.2     2  ASP2       -0.2730
     13  CB       -39.6740    5.6280   22.0470 C.3     2  ASP2        0.1450
     14  CG       -39.0320    4.2540   21.9390 C.2     2  ASP2        0.3671
     15  OD1      -37.8580    4.1060   22.3530 O.co2   2  ASP2       -0.2456
     16  OD2      -39.7060    3.3230   21.4470 O.co2   2  ASP2       -0.2456
     17  N        -38.7370    8.6410   20.7390 N.am    3  PRO3       -0.2716
     18  CA       -39.2970    9.8740   20.1500 C.3     3  PRO3        0.1521
     19  C        -40.7370    9.6580   19.6560 C.2     3  PRO3        0.2440
     20  O        -41.0860    8.5140   19.3530 O.2     3  PRO3       -0.2731
     21  CB       -38.3420   10.1760   18.9860 C.3     3  PRO3        0.0310
     22  CG       -37.1050    9.3920   19.2780 C.3     3  PRO3        0.0237
     23  CD       -37.5910    8.1530   19.9480 C.3     3  PRO3        0.0939
     24  N        -41.6030   10.7030   19.5950 N.am    4  PRO4       -0.2727
     25  CA       -43.0000   10.4790   19.1660 C.3     4  PRO4        0.1402
     26  C        -43.1610    9.8480   17.7860 C.2     4  PRO4        0.2269
     27  O        -42.3430   10.0910   16.8950 O.2     4  PRO4       -0.2865
     28  CB       -43.6230   11.8770   19.2270 C.3     4  PRO4        0.0296
     29  CG       -42.7690   12.6300   20.1900 C.3     4  PRO4        0.0237
     30  CD       -41.3800   12.1210   19.9460 C.3     4  PRO4        0.0939
     31  N        -42.5350    6.9200   16.7500 N.3     6  THR6       -0.1218
     32  CA       -41.4910    5.9540   16.4030 C.3     6  THR6        0.1862
     33  C        -41.5760    4.7030   17.2640 C.2     6  THR6        0.2287
     34  O        -41.9450    4.7790   18.4390 O.2     6  THR6       -0.2866
     35  CB       -40.0890    6.5770   16.5020 C.3     6  THR6        0.1770
     36  OG1      -39.7630    6.8160   17.8690 O.3     6  THR6       -0.2211
     37  CG2      -39.9370    7.8490   15.6780 C.3     6  THR6        0.0375
     38  N        -39.0420    1.6010   18.3030 N.3     8  THR8       -0.1218
     39  CA       -37.6770    1.0760   18.3160 C.3     8  THR8        0.1862
     40  C        -37.5410   -0.2300   19.1170 C.2     8  THR8        0.2287
     41  O        -36.4350   -0.5680   19.5480 O.2     8  THR8       -0.2866
     42  CB       -36.6970    2.1690   18.7790 C.3     8  THR8        0.1770
     43  OG1      -36.9470    2.4970   20.1470 O.3     8  THR8       -0.2211
     44  CG2      -36.7310    3.4240   17.9000 C.3     8  THR8        0.0375
     45  N        -32.6170    3.2930   22.9970 N.3    35  MET35      -0.1230
     46  CA       -32.3710    3.9550   21.7120 C.3    35  MET35       0.1702
     47  C        -31.9610    5.4000   21.8880 C.2    35  MET35       0.2592
     48  O        -31.0170    5.8590   21.2460 O.2    35  MET35      -0.2718
     49  CB       -33.6240    3.9030   20.8420 C.3    35  MET35       0.0401
     50  CG       -33.5380    2.8890   19.7810 C.3    35  MET35       0.0596
     51  SD       -32.5460    3.3980   18.3690 S.3    35  MET35      -0.1393
     52  CE       -32.9410    2.0720   17.2760 C.3    35  MET35       0.0692
     53  N        -32.6930    6.1140   22.7470 N.am   36  CYS36      -0.1956
     54  CA       -32.4620    7.5150   23.0480 C.3    36  CYS36       0.1843
     55  C        -32.4760    7.6970   24.5600 C.2    36  CYS36       0.2625
     56  O        -33.4110    7.2460   25.2260 O.2    36  CYS36      -0.2714
     57  CB       -33.5060    8.3900   22.3580 C.3    36  CYS36       0.0997
     58  SG       -33.4960    8.2830   20.5480 S.3    36  CYS36      -0.0797
     59  N        -31.4170    8.3130   25.1050 N.am   37  ASN37      -0.1958
     60  CA       -31.2970    8.5540   26.5400 C.3    37  ASN37       0.1819
     61  C        -31.9710    9.8770   26.8920 C.2    37  ASN37       0.2621
     62  O        -31.4950   10.9390   26.4810 O.2    37  ASN37      -0.2715
     63  CB       -29.8270    8.5380   26.9800 C.3    37  ASN37       0.1195
     64  CG       -29.6210    8.4420   28.4760 C.2    37  ASN37       0.2630
     65  OD1      -30.0850    9.2780   29.2570 O.2    37  ASN37      -0.2716
     66  ND2      -28.8580    7.4540   28.9070 N.am   37  ASN37      -0.0877
     67  N        -33.0820    9.8080   27.6490 N.am   38  PHE38      -0.1974
     68  CA       -33.8410   10.9870   28.0720 C.3    38  PHE38       0.1639
     69  C        -33.0240   11.9250   28.9650 C.2    38  PHE38       0.2290
     70  O        -33.1050   13.1420   28.7900 O.2    38  PHE38      -0.2864
     71  CB       -35.1730   10.5910   28.7420 C.3    38  PHE38       0.0560
     72  CG       -36.0200   11.7630   29.1860 C.ar   38  PHE38      -0.0200
     73  CD1      -36.6790   12.5600   28.2550 C.ar   38  PHE38      -0.0042
     74  CD2      -36.1560   12.0720   30.5340 C.ar   38  PHE38      -0.0042
     75  CE1      -37.4520   13.6510   28.6670 C.ar   38  PHE38      -0.0003
     76  CE2      -36.9300   13.1620   30.9440 C.ar   38  PHE38      -0.0003
     77  CZ       -37.5730   13.9430   30.0080 C.ar   38  PHE38      -0.0000
     78  N        -30.4550   14.0040   26.9530 N.3    41  ASN41      -0.1240
     79  CA       -31.2020   15.0370   26.2340 C.3    41  ASN41       0.1653
     80  C        -31.6320   16.1870   27.1470 C.2    41  ASN41       0.2266
     81  O        -31.4500   17.3460   26.7760 O.2    41  ASN41      -0.2867
     82  CB       -32.4180   14.4290   25.5380 C.3    41  ASN41       0.1155
     83  CG       -33.1440   15.3820   24.6250 C.2    41  ASN41       0.2627
     84  OD1      -34.0730   16.0790   25.0320 O.2    41  ASN41      -0.2716
     85  ND2      -32.7330   15.4390   23.3720 N.am   41  ASN41      -0.0877
     86  N        -27.4350   23.1630   24.5460 N.3    46  ARG46      -0.1245
     87  CA       -27.2480   23.5470   23.1460 C.3    46  ARG46       0.1563
     88  C        -26.5390   24.9010   23.1420 C.2    46  ARG46       0.2260
     89  O        -26.9900   25.8240   23.8240 O.2    46  ARG46      -0.2867
     90  CB       -28.6050   23.6370   22.4230 C.3    46  ARG46       0.0307
     91  CG       -29.3330   22.2990   22.3090 C.3    46  ARG46       0.0489
     92  CD       -30.8170   22.4920   22.0740 C.3    46  ARG46       0.2205
     93  NE       -31.5490   21.2290   22.1630 N.pl3  46  ARG46      -0.0865
     94  CZ       -31.9720   20.5260   21.1170 C.cat  46  ARG46       0.5346
     95  NH1      -31.7460   20.9580   19.8810 N.pl3  46  ARG46       0.1354
     96  NH2      -32.6290   19.3880   21.2970 N.pl3  46  ARG46       0.1354
     97  N        -39.0820   17.2240   10.8670 N.3    76  ALA76      -0.1245
     98  CA       -38.1750   17.4920   11.9960 C.3    76  ALA76       0.1562
     99  C        -37.0400   18.4330   11.5770 C.2    76  ALA76       0.2260
    100  O        -36.7870   19.4270   12.2580 O.2    76  ALA76      -0.2867
    101  CB       -37.6180   16.1880   12.5530 C.3    76  ALA76       0.0290
    102  N        -37.0980   11.5040    7.6100 N.3   131  HIS131     -0.1226
    103  CA       -35.9560   11.8240    8.4710 C.3   131  HIS131      0.1752
    104  C        -34.8270   10.8010    8.3720 C.2   131  HIS131      0.2595
    105  O        -33.6600   11.1650    8.5340 O.2   131  HIS131     -0.2718
    106  CB       -36.4390   11.9300    9.9200 C.3   131  HIS131      0.0759
    107  CG       -35.5340   12.7060   10.8190 C.ar  131  HIS131      0.0818
    108  ND1      -35.3170   14.0590   10.6350 N.ar  131  HIS131     -0.2268
    109  CD2      -34.8700   12.3010   11.9230 C.ar  131  HIS131      0.1154
    110  CE1      -34.5010   14.4240   11.6100 C.ar  131  HIS131      0.1986
    111  NE2      -34.2120   13.3990   12.4130 N.ar  131  HIS131     -0.2212
    112  N        -35.1690    9.5310    8.1120 N.am  132  MET132     -0.1979
    113  CA       -34.1960    8.4520    7.9870 C.3   132  MET132      0.1605
    114  C        -34.1020    7.9590    6.5470 C.2   132  MET132      0.2287
    115  O        -34.6410    6.9050    6.2020 O.2   132  MET132     -0.2864
    116  CB       -34.4900    7.3320    8.9910 C.3   132  MET132      0.0413
    117  CG       -34.2300    7.7540   10.4130 C.3   132  MET132      0.0598
    118  SD       -33.9690    6.3710   11.5350 S.3   132  MET132     -0.1393
    119  CE       -35.6320    5.9070   11.8350 C.3   132  MET132      0.0692
@<TRIPOS>BOND
     1   115   114    2
     2   114   113    1
     3   102   103    1
     4   113   112    1
     5   113   116    1
     6   112   104   am
     7   104   103    1
     8   104   105    2
     9   103   106    1
    10   116   117    1
    11   106   107    1
    12   117   118    1
    13   108   107   ar
    14   108   110   ar
    15   107   109   ar
    16    97    98    1
    17   118   119    1
    18    99    98    1
    19    99   100    2
    20   110   111   ar
    21   109   111   ar
    22    98   101    1
    23    37    35    1
    24    32    35    1
    25    32    31    1
    26    32    33    1
    27    35    36    1
    28    27    26    2
    29    33    34    2
    30    52    51    1
    31    26    25    1
    32    44    42    1
    33    38    39    1
    34    39    42    1
    35    39    40    1
    36    51    50    1
    37    42    43    1
    38    21    22    1
    39    21    18    1
    40    40    41    2
    41    25    28    1
    42    25    24    1
    43    28    29    1
    44    22    23    1
    45    20    19    2
    46    24    19   am
    47    24    30    1
    48    19    18    1
    49    50    49    1
    50    95    94    1
    51    30    29    1
    52    23    17    1
    53    18    17    1
    54    58    57    1
    55    17    11   am
    56    49    46    1
    57    94    96    1
    58    94    93    2
    59    48    47    2
    60    16    14   ar
    61    46    47    1
    62    46    45    1
    63    11    10    1
    64    11    12    2
    65    47    53   am
    66    14    13    1
    67    14    15   ar
    68    13    10    1
    69    92    93    1
    70    92    91    1
    71    91    90    1
    72    57    54    1
    73    10     9    1
    74    90    87    1
    75    53    54    1
    76    54    55    1
    77    88    87    1
    78    88    89    2
    79    87    86    1
    80    85    83   am
    81     4     3    2
    82     9     3   am
    83     3     2    1
    84    55    59   am
    85    55    56    2
    86    83    84    2
    87    83    82    1
    88    59    60    1
    89    82    79    1
    90     8     7    1
    91     2     5    1
    92     2     1    1
    93     6     7    1
    94     6     5    1
    95    79    78    1
    96    79    80    1
    97    62    61    2
    98    60    61    1
    99    60    63    1
   100    81    80    2
   101    61    67   am
   102    63    64    1
   103    67    68    1
   104    68    71    1
   105    68    69    1
   106    73    75   ar
   107    73    72   ar
   108    64    66   am
   109    64    65    2
   110    75    77   ar
   111    71    72    1
   112    70    69    2
   113    72    74   ar
   114    77    76   ar
   115    74    76   ar
