@<TRIPOS>MOLECULE
tmp/4az3A00.pdb
 86 84 0 0 0
SMALL
GASTEIGER

@<TRIPOS>ATOM
      1  N        -25.6450    9.2980   15.0210 N.3    56  ASN56      -0.1225
      2  CA       -27.0690    9.6160   15.0430 C.3    56  ASN56       0.1785
      3  C        -27.2420   10.8510   15.9490 C.2    56  ASN56       0.2598
      4  O        -26.2890   11.2410   16.6330 O.2    56  ASN56      -0.2718
      5  CB       -27.9230    8.4210   15.4630 C.3    56  ASN56       0.1169
      6  CG       -28.3030    7.5470   14.2870 C.2    56  ASN56       0.2627
      7  OD1      -27.6370    6.5600   13.9710 O.2    56  ASN56      -0.2716
      8  ND2      -29.3640    7.9100   13.5820 N.am   56  ASN56      -0.0877
      9  N        -28.4100   11.4850   15.9000 N.am   57  GLY57      -0.1942
     10  CA       -28.6680   12.7140   16.6440 C.3    57  GLY57       0.2014
     11  C        -29.2790   12.5750   18.0200 C.2    57  GLY57       0.2639
     12  O        -28.7460   11.8720   18.8840 O.2    57  GLY57      -0.2714
     13  N        -30.3780   13.2960   18.2160 N.am   58  GLY58      -0.1940
     14  CA       -31.1180   13.3650   19.4690 C.3    58  GLY58       0.1999
     15  C        -31.2390   14.8050   19.9430 C.2    58  GLY58       0.2481
     16  O        -32.1730   15.4970   19.5320 O.2    58  GLY58      -0.2729
     17  N        -30.2950   15.3350   20.7590 N.am   59  PRO59      -0.2715
     18  CA       -29.1100   14.6800   21.3530 C.3    59  PRO59       0.1536
     19  C        -29.5060   13.5660   22.3130 C.2    59  PRO59       0.2599
     20  O        -30.5480   13.6600   22.9570 O.2    59  PRO59      -0.2715
     21  CB       -28.4260   15.8200   22.1290 C.3    59  PRO59       0.0310
     22  CG       -29.0020   17.0890   21.5860 C.3    59  PRO59       0.0237
     23  CD       -30.4030   16.7360   21.2060 C.3    59  PRO59       0.0939
     24  N        -28.6890   12.5180   22.3720 N.am   60  GLY60      -0.1941
     25  CA       -28.9280   11.3820   23.2530 C.3    60  GLY60       0.2014
     26  C        -29.3200   10.0850   22.5740 C.2    60  GLY60       0.2639
     27  O        -29.5240    9.0800   23.2580 O.2    60  GLY60      -0.2714
     28  N        -29.4280   10.0840   21.2340 N.am   61  CYS61      -0.1953
     29  CA       -29.7980    8.8800   20.4900 C.3    61  CYS61       0.1843
     30  C        -28.5940    8.1030   19.9750 C.2    61  CYS61       0.2626
     31  O        -27.5790    8.6970   19.6090 O.2    61  CYS61      -0.2714
     32  CB       -30.7920    9.1940   19.3800 C.3    61  CYS61       0.0997
     33  SG       -32.3660    9.8750   19.9630 S.3    61  CYS61      -0.0797
     34  N        -28.7160    6.7670   19.9660 N.am   62  SER62      -0.1950
     35  CA       -27.6730    5.8190   19.5830 C.3    62  SER62       0.1924
     36  C        -27.4390    5.6740   18.0900 C.2    62  SER62       0.2314
     37  O        -28.3930    5.5190   17.3240 O.2    62  SER62      -0.2863
     38  CB       -27.9460    4.4570   20.2140 C.3    62  SER62       0.2116
     39  OG       -27.1260    3.4350   19.6720 O.3    62  SER62      -0.2180
     40  N        -28.7560    2.6920   15.7410 N.3    65  ASP65      -0.1239
     41  CA       -30.0010    2.8540   14.9870 C.3    65  ASP65       0.1674
     42  C        -29.6020    2.8810   13.5150 C.2    65  ASP65       0.2266
     43  O        -30.2650    2.2540   12.6890 O.2    65  ASP65      -0.2867
     44  CB       -30.6980    4.1780   15.3480 C.3    65  ASP65       0.1410
     45  CG       -31.8330    4.5390   14.4080 C.2    65  ASP65       0.3668
     46  OD1      -32.9390    3.9810   14.5690 O.co2  65  ASP65      -0.2456
     47  OD2      -31.6030    5.3490   13.4920 O.co2  65  ASP65      -0.2456
     48  N        -26.6670   12.2450   11.1960 N.3   150  GLU150     -0.1231
     49  CA       -28.0990   12.4990   11.0570 C.3   150  GLU150      0.1699
     50  C        -28.6740   13.3970   12.1640 C.2   150  GLU150      0.2592
     51  O        -28.2810   13.2690   13.3220 O.2   150  GLU150     -0.2718
     52  CB       -28.8330   11.1540   11.0680 C.3   150  GLU150      0.0402
     53  CG       -30.2690   11.1970   10.5810 C.3   150  GLU150      0.1161
     54  CD       -30.8150    9.8090   10.3410 C.2   150  GLU150      0.3649
     55  OE1      -30.4910    9.2240    9.2850 O.co2 150  GLU150     -0.2457
     56  OE2      -31.4990    9.2750   11.2410 O.co2 150  GLU150     -0.2457
     57  N        -29.6650   14.2450   11.8020 N.am  151  SER151     -0.1952
     58  CA       -30.4280   15.1300   12.6960 C.3   151  SER151      0.1924
     59  C        -29.5520   16.0870   13.5130 C.2   151  SER151      0.2314
     60  O        -28.9380   16.9690   12.9090 O.2   151  SER151     -0.2863
     61  CB       -31.3800   14.3160   13.5670 C.3   151  SER151      0.2116
     62  OG       -32.4720   15.0930   14.0290 O.3   151  SER151     -0.2180
     63  N        -31.3690   26.9120   13.4540 N.3   184  TYR184     -0.1241
     64  CA       -32.6780   26.9120   14.1060 C.3   184  TYR184      0.1605
     65  C        -33.6370   27.8650   13.3970 C.2   184  TYR184      0.2264
     66  O        -34.7880   27.5000   13.1770 O.2   184  TYR184     -0.2867
     67  CB       -32.5520   27.2830   15.5900 C.3   184  TYR184      0.0534
     68  CG       -31.9280   26.1980   16.4370 C.ar  184  TYR184     -0.0201
     69  CD1      -30.5530   26.1490   16.6370 C.ar  184  TYR184     -0.0009
     70  CD2      -32.7150   25.2400   17.0690 C.ar  184  TYR184     -0.0009
     71  CE1      -29.9710   25.1600   17.4280 C.ar  184  TYR184      0.0417
     72  CE2      -32.1450   24.2450   17.8630 C.ar  184  TYR184      0.0417
     73  CZ       -30.7720   24.2140   18.0440 C.ar  184  TYR184      0.1957
     74  OH       -30.2000   23.2300   18.8130 O.3   184  TYR184     -0.2866
     75  N        -41.3490   12.7440   11.5510 N.3   248  TYR248     -0.1241
     76  CA       -40.2050   12.1770   10.8480 C.3   248  TYR248      0.1605
     77  C        -40.5080   11.7590    9.4170 C.2   248  TYR248      0.2264
     78  O        -39.5910   11.6620    8.6070 O.2   248  TYR248     -0.2867
     79  CB       -39.5780   11.0500   11.6760 C.3   248  TYR248      0.0534
     80  CG       -39.1840   11.5160   13.0620 C.ar  248  TYR248     -0.0201
     81  CD1      -38.1160   12.3900   13.2490 C.ar  248  TYR248     -0.0009
     82  CD2      -39.9240   11.1440   14.1790 C.ar  248  TYR248     -0.0009
     83  CE1      -37.7740   12.8550   14.5180 C.ar  248  TYR248      0.0417
     84  CE2      -39.5780   11.5830   15.4560 C.ar  248  TYR248      0.0417
     85  CZ       -38.5110   12.4500   15.6190 C.ar  248  TYR248      0.1957
     86  OH       -38.1770   12.8930   16.8750 O.3   248  TYR248     -0.2866
@<TRIPOS>BOND
     1    78    77    2
     2    55    54   ar
     3    77    76    1
     4    54    53    1
     5    54    56   ar
     6    53    52    1
     7    76    75    1
     8    76    79    1
     9    49    52    1
    10    49    48    1
    11    49    50    1
    12    79    80    1
    13    57    50   am
    14    57    58    1
    15    50    51    2
    16    43    42    2
    17    58    59    1
    18    58    61    1
    19    60    59    2
    20    80    81   ar
    21    80    82   ar
    22    66    65    2
    23    81    83   ar
    24    65    64    1
    25    63    64    1
    26    47    45   ar
    27    42    41    1
    28    61    62    1
    29     8     6   am
    30     7     6    2
    31    64    67    1
    32    82    84   ar
    33     6     5    1
    34    45    46   ar
    35    45    44    1
    36    83    85   ar
    37    41    44    1
    38    41    40    1
    39     1     2    1
    40     2     5    1
    41     2     3    1
    42    84    85   ar
    43    67    68    1
    44    85    86    1
    45     9     3   am
    46     9    10    1
    47     3     4    2
    48    68    69   ar
    49    68    70   ar
    50    69    71   ar
    51    10    11    1
    52    70    72   ar
    53    37    36    2
    54    71    73   ar
    55    72    73   ar
    56    11    13   am
    57    11    12    2
    58    73    74    1
    59    36    35    1
    60    13    14    1
    61    32    33    1
    62    32    29    1
    63    14    15    1
    64    16    15    2
    65    35    34    1
    66    35    38    1
    67    31    30    2
    68    39    38    1
    69    15    17   am
    70    34    30   am
    71    30    29    1
    72    29    28    1
    73    17    23    1
    74    17    18    1
    75    23    22    1
    76    28    26   am
    77    18    21    1
    78    18    19    1
    79    22    21    1
    80    19    24   am
    81    19    20    2
    82    24    25    1
    83    26    25    1
    84    26    27    2
