@<TRIPOS>MOLECULE
tmp/4az5A00.pdb
 135 131 0 0 0
SMALL
GASTEIGER

@<TRIPOS>ATOM
      1  N          6.1990   33.2820   25.2790 N.3    16  ARG16      -0.1245
      2  CA         6.0220   32.9440   26.6880 C.3    16  ARG16       0.1563
      3  C          5.3170   34.0620   27.4580 C.2    16  ARG16       0.2260
      4  O          4.5480   33.7950   28.3890 O.2    16  ARG16      -0.2867
      5  CB         7.3790   32.6940   27.3300 C.3    16  ARG16       0.0307
      6  CG         8.0130   31.3610   26.8590 C.3    16  ARG16       0.0489
      7  CD         9.2670   31.1060   27.6850 C.3    16  ARG16       0.2205
      8  NE         9.9740   29.8700   27.3770 N.pl3  16  ARG16      -0.0865
      9  CZ        11.0880   29.8070   26.6550 C.cat  16  ARG16       0.5346
     10  NH1       11.5570   30.9080   26.0430 N.pl3  16  ARG16       0.1354
     11  NH2       11.6890   28.6260   26.4810 N.pl3  16  ARG16       0.1354
     12  N          5.7790   30.2990   21.2160 N.3    45  ASN45      -0.1240
     13  CA         6.9960   29.8270   21.8600 C.3    45  ASN45       0.1653
     14  C          6.5920   29.5080   23.2950 C.2    45  ASN45       0.2266
     15  O          6.5220   30.4130   24.1520 O.2    45  ASN45      -0.2867
     16  CB         8.1090   30.8850   21.7740 C.3    45  ASN45       0.1155
     17  CG         9.4370   30.3830   22.3370 C.2    45  ASN45       0.2627
     18  OD1       10.0240   30.9840   23.2750 O.2    45  ASN45      -0.2716
     19  ND2        9.9020   29.2730   21.8120 N.am   45  ASN45      -0.0877
     20  N          8.5350   23.3970   22.1200 N.3   117  HIS117     -0.1241
     21  CA         8.0900   24.7180   22.5760 C.3   117  HIS117      0.1621
     22  C          6.6930   25.0650   22.0480 C.2   117  HIS117      0.2264
     23  O          6.4540   26.1580   21.5470 O.2   117  HIS117     -0.2867
     24  CB         9.1170   25.7790   22.1440 C.3   117  HIS117      0.0745
     25  CG        10.4160   25.6710   22.8900 C.ar  117  HIS117      0.0817
     26  ND1       10.5340   26.0120   24.2200 N.ar  117  HIS117     -0.2268
     27  CD2       11.6400   25.2310   22.5040 C.ar  117  HIS117      0.1154
     28  CE1       11.7770   25.7980   24.6230 C.ar  117  HIS117      0.1986
     29  NE2       12.4740   25.3400   23.5950 N.ar  117  HIS117     -0.2212
     30  N         13.6620   24.0200   17.6590 N.3   180  ASP180     -0.1225
     31  CA        14.6670   23.8420   18.7060 C.3   180  ASP180      0.1805
     32  C         14.2140   22.9120   19.8000 C.2   180  ASP180      0.2597
     33  O         13.0290   22.8860   20.1640 O.2   180  ASP180     -0.2718
     34  CB        15.1430   25.1730   19.3430 C.3   180  ASP180      0.1424
     35  CG        14.0010   25.9920   19.9590 C.2   180  ASP180      0.3668
     36  OD1       12.9500   26.0670   19.3290 O.co2 180  ASP180     -0.2456
     37  OD2       14.1590   26.5790   21.0580 O.co2 180  ASP180     -0.2456
     38  N         15.1880   22.2230   20.3850 N.am  181  GLU181     -0.1979
     39  CA        15.0350   21.5550   21.6990 C.3   181  GLU181      0.1602
     40  C         13.8860   20.5500   21.8000 C.2   181  GLU181      0.2287
     41  O         13.0500   20.6460   22.6970 O.2   181  GLU181     -0.2864
     42  CB        14.8920   22.6140   22.8150 C.3   181  GLU181      0.0415
     43  CG        16.1380   23.5210   22.9260 C.3   181  GLU181      0.1163
     44  CD        16.1240   24.4390   24.1130 C.2   181  GLU181      0.3649
     45  OE1       15.1020   25.1090   24.3250 O.co2 181  GLU181     -0.2457
     46  OE2       17.1700   24.5170   24.8040 O.co2 181  GLU181     -0.2457
     47  N         16.0480   27.0400   14.1120 N.3   235  PHE235     -0.1241
     48  CA        17.1920   27.0360   15.0320 C.3   235  PHE235      0.1605
     49  C         18.0370   25.7970   14.7380 C.2   235  PHE235      0.2264
     50  O         17.5200   24.7950   14.2770 O.2   235  PHE235     -0.2867
     51  CB        16.6790   27.0140   16.4630 C.3   235  PHE235      0.0534
     52  CG        15.9980   28.3020   16.8630 C.ar  235  PHE235     -0.0203
     53  CD1       16.6880   29.5100   16.7750 C.ar  235  PHE235     -0.0042
     54  CD2       14.6540   28.3090   17.2680 C.ar  235  PHE235     -0.0042
     55  CE1       16.0440   30.7430   17.1470 C.ar  235  PHE235     -0.0003
     56  CE2       13.9900   29.5240   17.6340 C.ar  235  PHE235     -0.0003
     57  CZ        14.6900   30.7300   17.5730 C.ar  235  PHE235     -0.0000
     58  N         22.4020   29.2310   17.0890 N.3   259  TRP259     -0.1241
     59  CA        22.2780   29.8040   18.4470 C.3   259  TRP259      0.1605
     60  C         23.1820   29.1330   19.4620 C.2   259  TRP259      0.2264
     61  O         23.6130   29.7750   20.4370 O.2   259  TRP259     -0.2867
     62  CB        20.8250   29.7580   18.9200 C.3   259  TRP259      0.0550
     63  CG        20.2740   28.4020   19.2960 C.ar  259  TRP259      0.0003
     64  CD1       19.6830   27.4860   18.4680 C.ar  259  TRP259      0.0946
     65  CD2       20.2540   27.8290   20.6110 C.ar  259  TRP259      0.0152
     66  NE1       19.2810   26.3800   19.1960 N.ar  259  TRP259     -0.2442
     67  CE2       19.6240   26.5630   20.5080 C.ar  259  TRP259      0.0810
     68  CE3       20.6930   28.2790   21.8710 C.ar  259  TRP259      0.0012
     69  CZ2       19.4220   25.7170   21.6280 C.ar  259  TRP259      0.0191
     70  CZ3       20.5150   27.4230   22.9870 C.ar  259  TRP259      0.0001
     71  CH2       19.8810   26.1730   22.8500 C.ar  259  TRP259      0.0015
     72  N         22.7020   36.5040   24.9900 N.3   289  TYR289     -0.1241
     73  CA        21.3270   36.3920   25.5100 C.3   289  TYR289      0.1605
     74  C         21.0830   37.1010   26.8310 C.2   289  TYR289      0.2264
     75  O         21.9860   37.2250   27.6760 O.2   289  TYR289     -0.2867
     76  CB        20.9310   34.9390   25.7180 C.3   289  TYR289      0.0534
     77  CG        20.6840   34.1240   24.4760 C.ar  289  TYR289     -0.0201
     78  CD1       20.7140   34.6980   23.1860 C.ar  289  TYR289     -0.0009
     79  CD2       20.3710   32.7700   24.5970 C.ar  289  TYR289     -0.0009
     80  CE1       20.4900   33.8930   22.0500 C.ar  289  TYR289      0.0417
     81  CE2       20.1210   31.9740   23.4660 C.ar  289  TYR289      0.0417
     82  CZ        20.2000   32.5510   22.2130 C.ar  289  TYR289      0.1957
     83  OH        19.9910   31.7620   21.1160 O.3   289  TYR289     -0.2866
     84  N         17.8760   36.6860   29.6200 N.3   291  VAL291     -0.1245
     85  CA        16.5950   36.1630   30.1040 C.3   291  VAL291      0.1561
     86  C         16.0280   37.1940   31.0880 C.2   291  VAL291      0.2260
     87  O         16.6690   37.5190   32.1010 O.2   291  VAL291     -0.2867
     88  CB        16.7540   34.7910   30.7920 C.3   291  VAL291      0.0252
     89  CG1       15.4670   34.4090   31.5840 C.3   291  VAL291      0.0019
     90  CG2       17.0810   33.6890   29.7270 C.3   291  VAL291      0.0019
     91  N         16.7110   38.1060   35.0090 N.3   294  ARG294     -0.1245
     92  CA        18.0470   37.7050   35.4570 C.3   294  ARG294      0.1563
     93  C         18.9280   38.8880   35.1460 C.2   294  ARG294      0.2260
     94  O         19.4940   38.9880   34.0620 O.2   294  ARG294     -0.2867
     95  CB        18.4940   36.4170   34.7640 C.3   294  ARG294      0.0307
     96  CG        17.5430   35.2610   35.0110 C.3   294  ARG294      0.0489
     97  CD        18.0900   33.9500   34.3890 C.3   294  ARG294      0.2205
     98  NE        17.0990   32.9020   34.5430 N.pl3 294  ARG294     -0.0865
     99  CZ        17.0570   31.7850   33.8260 C.cat 294  ARG294      0.5346
    100  NH1       18.0030   31.5270   32.9460 N.pl3 294  ARG294      0.1354
    101  NH2       16.0690   30.9100   34.0060 N.pl3 294  ARG294      0.1354
    102  N         22.3900   33.2960   31.2730 N.3   302  TYR302     -0.1241
    103  CA        21.9360   34.3850   30.3920 C.3   302  TYR302      0.1605
    104  C         21.4270   35.5980   31.1740 C.2   302  TYR302      0.2264
    105  O         20.4610   36.2810   30.7600 O.2   302  TYR302     -0.2867
    106  CB        20.8470   33.8720   29.4380 C.3   302  TYR302      0.0534
    107  CG        21.2170   32.6890   28.5800 C.ar  302  TYR302     -0.0201
    108  CD1       22.4670   32.6110   27.9310 C.ar  302  TYR302     -0.0009
    109  CD2       20.2950   31.6320   28.3870 C.ar  302  TYR302     -0.0009
    110  CE1       22.7680   31.4970   27.0940 C.ar  302  TYR302      0.0417
    111  CE2       20.5870   30.5400   27.5570 C.ar  302  TYR302      0.0417
    112  CZ        21.8160   30.4950   26.9170 C.ar  302  TYR302      0.1957
    113  OH        22.0500   29.4090   26.1130 O.3   302  TYR302     -0.2866
    114  N         14.8350   36.6710   26.0740 N.3   337  TRP337     -0.1241
    115  CA        13.9600   35.5250   26.2680 C.3   337  TRP337      0.1605
    116  C         13.1850   35.6770   27.5710 C.2   337  TRP337      0.2264
    117  O         13.6610   36.3470   28.5050 O.2   337  TRP337     -0.2867
    118  CB        14.8090   34.2410   26.3680 C.3   337  TRP337      0.0550
    119  CG        15.5940   33.9710   25.1310 C.ar  337  TRP337      0.0003
    120  CD1       16.9010   34.2430   24.9270 C.ar  337  TRP337      0.0946
    121  CD2       15.0970   33.3850   23.9240 C.ar  337  TRP337      0.0152
    122  NE1       17.2840   33.8400   23.6620 N.ar  337  TRP337     -0.2442
    123  CE2       16.1840   33.3290   23.0140 C.ar  337  TRP337      0.0810
    124  CE3       13.8370   32.9130   23.5190 C.ar  337  TRP337      0.0012
    125  CZ2       16.0520   32.8150   21.7140 C.ar  337  TRP337      0.0191
    126  CZ3       13.6980   32.3740   22.2230 C.ar  337  TRP337      0.0001
    127  CH2       14.7990   32.3370   21.3350 C.ar  337  TRP337      0.0015
    128  N         11.9420   33.0050   29.7030 N.3   339  ASP339     -0.1239
    129  CA        11.8800   31.6760   30.3260 C.3   339  ASP339      0.1674
    130  C         11.0430   31.6830   31.6030 C.2   339  ASP339      0.2266
    131  O         10.3570   30.6920   31.8950 O.2   339  ASP339     -0.2867
    132  CB        13.2850   31.1700   30.7080 C.3   339  ASP339      0.1410
    133  CG        14.2150   30.9710   29.4970 C.2   339  ASP339      0.3668
    134  OD1       14.1140   31.7240   28.5030 O.co2 339  ASP339     -0.2456
    135  OD2       15.0850   30.0730   29.5840 O.co2 339  ASP339     -0.2456
@<TRIPOS>BOND
     1    47    48    1
     2    50    49    2
     3    49    48    1
     4    48    51    1
     5    51    52    1
     6    53    52   ar
     7    53    55   ar
     8    52    54   ar
     9    58    59    1
    10    55    57   ar
    11    54    56   ar
    12    57    56   ar
    13    30    31    1
    14    59    62    1
    15    59    60    1
    16    64    66   ar
    17    64    63   ar
    18    31    34    1
    19    31    32    1
    20    62    63    1
    21    66    67   ar
    22    63    65   ar
    23    36    35   ar
    24    34    35    1
    25    60    61    2
    26    32    33    2
    27    32    38   am
    28    35    37   ar
    29    38    39    1
    30    67    65   ar
    31    67    69   ar
    32    65    68   ar
    33    83    82    1
    34    12    13    1
    35   127   125   ar
    36   127   126   ar
    37    23    22    2
    38    69    71   ar
    39    39    40    1
    40    39    42    1
    41   125   123   ar
    42    16    13    1
    43    16    17    1
    44    40    41    2
    45    19    17   am
    46    13    14    1
    47    68    70   ar
    48    22    21    1
    49    80    82   ar
    50    80    78   ar
    51    20    21    1
    52    24    21    1
    53    24    25    1
    54    82    81   ar
    55   126   124   ar
    56    17    18    2
    57    27    25   ar
    58    27    29   ar
    59    42    43    1
    60    71    70   ar
    61    25    26   ar
    62    43    44    1
    63   123   122   ar
    64   123   121   ar
    65    78    77   ar
    66    14    15    2
    67    81    79   ar
    68   124   121   ar
    69    29    28   ar
    70   122   120   ar
    71   121   119   ar
    72    44    45   ar
    73    44    46   ar
    74    26    28   ar
    75    77    79   ar
    76    77    76    1
    77   120   119   ar
    78    72    73    1
    79   119   118    1
    80     1     2    1
    81    73    76    1
    82    73    74    1
    83    10     9    1
    84   114   115    1
    85   113   112    1
    86   115   118    1
    87   115   116    1
    88    11     9    1
    89     9     8    2
    90     2     5    1
    91     2     3    1
    92    74    75    2
    93     6     5    1
    94     6     7    1
    95   112   110   ar
    96   112   111   ar
    97   110   108   ar
    98     8     7    1
    99     3     4    2
   100   111   109   ar
   101   116   117    2
   102   108   107   ar
   103   109   107   ar
   104   134   133   ar
   105   107   106    1
   106   106   103    1
   107   133   135   ar
   108   133   132    1
   109    84    85    1
   110   128   129    1
   111    90    88    1
   112    85    88    1
   113    85    86    1
   114   129   132    1
   115   129   130    1
   116   103   104    1
   117   103   102    1
   118   105   104    2
   119    88    89    1
   120    86    87    2
   121   130   131    2
   122   100    99    1
   123    99   101    1
   124    99    98    2
   125    94    93    2
   126    97    98    1
   127    97    96    1
   128    95    96    1
   129    95    92    1
   130    91    92    1
   131    93    92    1
