@<TRIPOS>MOLECULE
tmp/4az6A01.pdb
 90 86 0 0 0
SMALL
GASTEIGER

@<TRIPOS>ATOM
      1  N          8.2450    9.7900   27.0920 N.3   139  TYR139     -0.1227
      2  CA         9.4980    9.0520   27.1300 C.3   139  TYR139      0.1736
      3  C          9.5180    8.1800   28.3700 C.2   139  TYR139      0.2595
      4  O          9.6670    8.6790   29.4790 O.2   139  TYR139     -0.2718
      5  CB        10.6800   10.0250   27.1590 C.3   139  TYR139      0.0548
      6  CG        12.0430    9.3570   27.1220 C.ar  139  TYR139     -0.0200
      7  CD1       12.4130    8.5770   26.0370 C.ar  139  TYR139     -0.0009
      8  CD2       12.9600    9.5400   28.1540 C.ar  139  TYR139     -0.0009
      9  CE1       13.6540    7.9740   25.9780 C.ar  139  TYR139      0.0417
     10  CE2       14.2150    8.9520   28.0980 C.ar  139  TYR139      0.0417
     11  CZ        14.5490    8.1680   27.0080 C.ar  139  TYR139      0.1957
     12  OH        15.7940    7.5770   26.9440 O.3   139  TYR139     -0.2866
     13  N          9.3740    6.8750   28.1620 N.am  140  PHE140     -0.1976
     14  CA         9.2900    5.8930   29.2590 C.3   140  PHE140      0.1639
     15  C          8.4270    6.3650   30.4320 C.2   140  PHE140      0.2290
     16  O          8.8490    6.3720   31.5890 O.2   140  PHE140     -0.2864
     17  CB        10.7010    5.4850   29.7030 C.3   140  PHE140      0.0560
     18  CG        11.4850    4.7680   28.6260 C.ar  140  PHE140     -0.0200
     19  CD1       11.3060    3.4090   28.3940 C.ar  140  PHE140     -0.0042
     20  CD2       12.3890    5.4520   27.8470 C.ar  140  PHE140     -0.0042
     21  CE1       12.0180    2.7620   27.3940 C.ar  140  PHE140     -0.0003
     22  CE2       13.1110    4.8120   26.8570 C.ar  140  PHE140     -0.0003
     23  CZ        12.9310    3.4610   26.6330 C.ar  140  PHE140     -0.0000
     24  N         12.9230   14.3090   28.5050 N.3   189  THR189     -0.1218
     25  CA        14.1500   13.5400   28.2840 C.3   189  THR189      0.1862
     26  C         15.3870   14.1370   28.9730 C.2   189  THR189      0.2287
     27  O         16.5160   13.6670   28.7300 O.2   189  THR189     -0.2866
     28  CB        14.4510   13.4230   26.7790 C.3   189  THR189      0.1770
     29  OG1       14.8160   14.7070   26.2660 O.3   189  THR189     -0.2211
     30  CG2       13.2780   12.8390   25.9810 C.3   189  THR189      0.0375
     31  N         17.8260   15.5430   26.2730 N.3   192  LYS192     -0.1245
     32  CA        18.4770   14.4960   25.4640 C.3   192  LYS192      0.1561
     33  C         17.5990   14.0730   24.2900 C.2   192  LYS192      0.2260
     34  O         17.7000   12.9600   23.7970 O.2   192  LYS192     -0.2867
     35  CB        18.7920   13.2600   26.3250 C.3   192  LYS192      0.0271
     36  CG        19.6100   13.5490   27.5620 C.3   192  LYS192      0.0035
     37  CD        21.0370   13.9130   27.2000 C.3   192  LYS192      0.0206
     38  CE        21.8040   12.6900   26.7230 C.3   192  LYS192      0.1093
     39  NZ        23.2630   12.9500   26.5700 N.3   192  LYS192     -0.1314
     40  N         19.0520   12.7640   20.7980 N.3   195  SER195     -0.1202
     41  CA        19.6310   11.4440   21.0560 C.3   195  SER195      0.2020
     42  C         18.5450   10.3810   21.1360 C.2   195  SER195      0.2618
     43  O         18.6820    9.3030   20.5680 O.2   195  SER195     -0.2717
     44  CB        20.4310   11.4520   22.3560 C.3   195  SER195      0.2103
     45  OG        21.5990   12.2520   22.2430 O.3   195  SER195     -0.2182
     46  N         17.4580   10.6950   21.8400 N.am  196  VAL196     -0.1979
     47  CA        16.3370    9.7740   21.9640 C.3   196  VAL196      0.1595
     48  C         15.7200    9.4600   20.6120 C.2   196  VAL196      0.2287
     49  O         15.4350    8.3020   20.3030 O.2   196  VAL196     -0.2864
     50  CB        15.2830   10.3300   22.9610 C.3   196  VAL196      0.0276
     51  CG1       13.9870    9.5760   22.8620 C.3   196  VAL196      0.0022
     52  CG2       15.8120   10.2920   24.3900 C.3   196  VAL196      0.0022
     53  N         18.0420    7.1270   18.7110 N.3   199  ALA199     -0.1245
     54  CA        18.5990    5.9900   19.4560 C.3   199  ALA199      0.1562
     55  C         18.1940    4.6400   18.8880 C.2   199  ALA199      0.2260
     56  O         19.0200    3.7150   18.8490 O.2   199  ALA199     -0.2867
     57  CB        18.1830    6.0570   20.9260 C.3   199  ALA199      0.0290
     58  N         20.4260    1.3830   18.7140 N.3   203  TYR203     -0.1241
     59  CA        20.1620    0.6350   19.9270 C.3   203  TYR203      0.1605
     60  C         18.7590    0.0620   19.8280 C.2   203  TYR203      0.2264
     61  O         17.8580    0.4710   20.5840 O.2   203  TYR203     -0.2867
     62  CB        20.3010    1.5280   21.1580 C.3   203  TYR203      0.0534
     63  CG        21.6240    2.2130   21.2490 C.ar  203  TYR203     -0.0201
     64  CD1       22.7470    1.5470   21.7240 C.ar  203  TYR203     -0.0009
     65  CD2       21.7670    3.5310   20.8180 C.ar  203  TYR203     -0.0009
     66  CE1       23.9750    2.1840   21.7820 C.ar  203  TYR203      0.0417
     67  CE2       22.9810    4.1740   20.8720 C.ar  203  TYR203      0.0417
     68  CZ        24.0830    3.4990   21.3560 C.ar  203  TYR203      0.1957
     69  OH        25.2980    4.1480   21.4200 O.3   203  TYR203     -0.2866
     70  N         15.2050   -1.6430   22.5180 N.3   206  GLU206     -0.1245
     71  CA        15.3650   -1.0620   23.8390 C.3   206  GLU206      0.1567
     72  C         14.2250   -0.1080   24.2060 C.2   206  GLU206      0.2260
     73  O         14.2880    0.5500   25.2400 O.2   206  GLU206     -0.2867
     74  CB        16.7080   -0.3490   23.9500 C.3   206  GLU206      0.0388
     75  CG        17.8970   -1.2930   23.8820 C.3   206  GLU206      0.1160
     76  CD        18.2220   -1.9890   25.2050 C.2   206  GLU206      0.3649
     77  OE1       17.3790   -2.0060   26.1320 O.co2 206  GLU206     -0.2457
     78  OE2       19.3470   -2.5340   25.3120 O.co2 206  GLU206     -0.2457
     79  N         13.1980    2.6150   22.4200 N.3   208  TYR208     -0.1241
     80  CA        13.3500    3.9880   21.9030 C.3   208  TYR208      0.1605
     81  C         12.3750    4.2020   20.7370 C.2   208  TYR208      0.2264
     82  O         11.9970    3.2490   20.0710 O.2   208  TYR208     -0.2867
     83  CB        14.7830    4.2220   21.4550 C.3   208  TYR208      0.0534
     84  CG        15.7900    4.1510   22.5800 C.ar  208  TYR208     -0.0201
     85  CD1       15.7450    5.0460   23.6500 C.ar  208  TYR208     -0.0009
     86  CD2       16.7980    3.1800   22.5770 C.ar  208  TYR208     -0.0009
     87  CE1       16.6790    4.9990   24.6710 C.ar  208  TYR208      0.0417
     88  CE2       17.7290    3.1290   23.5820 C.ar  208  TYR208      0.0417
     89  CZ        17.6680    4.0190   24.6350 C.ar  208  TYR208      0.1957
     90  OH        18.6130    3.9310   25.6300 O.3   208  TYR208     -0.2866
@<TRIPOS>BOND
     1    53    54    1
     2    58    59    1
     3    56    55    2
     4    55    54    1
     5    54    57    1
     6    60    59    1
     7    60    61    2
     8    59    62    1
     9    82    81    2
    10    49    48    2
    11    43    42    2
    12    48    47    1
    13    81    80    1
    14    40    41    1
    15    65    67   ar
    16    65    63   ar
    17    67    68   ar
    18    41    42    1
    19    41    44    1
    20    42    46   am
    21    62    63    1
    22    63    64   ar
    23    68    69    1
    24    68    66   ar
    25    83    80    1
    26    83    84    1
    27    64    66   ar
    28    46    47    1
    29    80    79    1
    30    47    50    1
    31    45    44    1
    32    70    71    1
    33    86    84   ar
    34    86    88   ar
    35    84    85   ar
    36    51    50    1
    37    50    52    1
    38    88    89   ar
    39    85    87   ar
    40    34    33    2
    41    71    74    1
    42    71    72    1
    43    75    74    1
    44    75    76    1
    45    72    73    2
    46    33    32    1
    47    89    87   ar
    48    89    90    1
    49    76    78   ar
    50    76    77   ar
    51    32    31    1
    52    32    35    1
    53     9     7   ar
    54     9    11   ar
    55    30    28    1
    56     7     6   ar
    57    29    28    1
    58    35    36    1
    59    39    38    1
    60    23    22   ar
    61    23    21   ar
    62    38    37    1
    63    28    25    1
    64    22    20   ar
    65    12    11    1
    66    11    10   ar
    67     1     2    1
    68     6     5    1
    69     6     8   ar
    70     2     5    1
    71     2     3    1
    72    37    36    1
    73    21    19   ar
    74    20    18   ar
    75    10     8   ar
    76    13     3   am
    77    13    14    1
    78    25    24    1
    79    25    26    1
    80     3     4    2
    81    19    18   ar
    82    18    17    1
    83    27    26    2
    84    14    17    1
    85    14    15    1
    86    15    16    2
