@<TRIPOS>MOLECULE
tmp/4az6A00.pdb
 179 176 0 0 0
SMALL
GASTEIGER

@<TRIPOS>ATOM
      1  N          6.0670   33.1110   25.4120 N.3    18  ARG18      -0.1245
      2  CA         5.8880   32.8020   26.8170 C.3    18  ARG18       0.1563
      3  C          5.1490   33.9050   27.5510 C.2    18  ARG18       0.2260
      4  O          4.4000   33.6420   28.5040 O.2    18  ARG18      -0.2867
      5  CB         7.2100   32.5330   27.5050 C.3    18  ARG18       0.0307
      6  CG         7.8900   31.2660   27.0370 C.3    18  ARG18       0.0489
      7  CD         9.1200   31.0160   27.8540 C.3    18  ARG18       0.2205
      8  NE         9.8350   29.7830   27.5370 N.pl3  18  ARG18      -0.0865
      9  CZ        10.9210   29.7050   26.7670 C.cat  18  ARG18       0.5346
     10  NH1       11.4190   30.7840   26.1950 N.pl3  18  ARG18       0.1354
     11  NH2       11.5270   28.5410   26.6160 N.pl3  18  ARG18       0.1354
     12  N          5.7490   30.0560   21.3300 N.3    47  ASN47      -0.1240
     13  CA         6.9580   29.5900   21.9990 C.3    47  ASN47       0.1653
     14  C          6.5180   29.2990   23.4290 C.2    47  ASN47       0.2266
     15  O          6.4340   30.2050   24.2690 O.2    47  ASN47      -0.2867
     16  CB         8.0790   30.6340   21.9250 C.3    47  ASN47       0.1155
     17  CG         9.3800   30.1240   22.4760 C.2    47  ASN47       0.2627
     18  OD1       10.0070   30.7650   23.3720 O.2    47  ASN47      -0.2716
     19  ND2        9.8140   29.0380   21.9380 N.am   47  ASN47      -0.0877
     20  N          8.4710   23.2070   22.2950 N.3   119  HIS119     -0.1241
     21  CA         8.0130   24.5230   22.7220 C.3   119  HIS119      0.1621
     22  C          6.6430   24.8720   22.2070 C.2   119  HIS119      0.2264
     23  O          6.4070   25.9910   21.7470 O.2   119  HIS119     -0.2867
     24  CB         9.0280   25.5890   22.3120 C.3   119  HIS119      0.0745
     25  CG        10.3290   25.4680   23.0470 C.ar  119  HIS119      0.0817
     26  ND1       10.4440   25.7100   24.3650 N.ar  119  HIS119     -0.2268
     27  CD2       11.5780   25.0570   22.6110 C.ar  119  HIS119      0.1154
     28  CE1       11.7180   25.5180   24.7520 C.ar  119  HIS119      0.1986
     29  NE2       12.4160   25.1160   23.6860 N.ar  119  HIS119     -0.2212
     30  N         13.6330   23.7150   17.8040 N.3   182  ASP182     -0.1225
     31  CA        14.6080   23.4990   18.8770 C.3   182  ASP182      0.1805
     32  C         14.1350   22.5590   19.9640 C.2   182  ASP182      0.2597
     33  O         12.9400   22.5200   20.3110 O.2   182  ASP182     -0.2718
     34  CB        15.0390   24.8290   19.5090 C.3   182  ASP182      0.1424
     35  CG        13.9060   25.6320   20.1250 C.2   182  ASP182      0.3668
     36  OD1       12.8680   25.7700   19.4670 O.co2 182  ASP182     -0.2456
     37  OD2       14.0930   26.1590   21.2430 O.co2 182  ASP182     -0.2456
     38  N         15.0910   21.8370   20.5440 N.am  183  GLU183     -0.1979
     39  CA        14.9310   21.2650   21.8910 C.3   183  GLU183      0.1602
     40  C         13.7690   20.2890   22.0120 C.2   183  GLU183      0.2287
     41  O         12.9700   20.3550   22.9280 O.2   183  GLU183     -0.2864
     42  CB        14.8340   22.3830   22.9360 C.3   183  GLU183      0.0415
     43  CG        16.1380   23.1590   22.9650 C.3   183  GLU183      0.1163
     44  CD        16.1890   24.2670   23.9670 C.2   183  GLU183      0.3649
     45  OE1       15.1420   24.8710   24.3200 O.co2 183  GLU183     -0.2457
     46  OE2       17.3530   24.5680   24.3460 O.co2 183  GLU183     -0.2457
     47  N         12.6230   18.4050   25.5730 N.3   186  ASN186     -0.1240
     48  CA        13.6740   18.6990   26.5370 C.3   186  ASN186      0.1653
     49  C         13.2510   18.4620   27.9720 C.2   186  ASN186      0.2266
     50  O         14.0930   18.1110   28.8070 O.2   186  ASN186     -0.2867
     51  CB        14.3550   20.0830   26.3080 C.3   186  ASN186      0.1155
     52  CG        13.4550   21.2810   26.5150 C.2   186  ASN186      0.2627
     53  OD1       12.2280   21.2140   26.4020 O.2   186  ASN186     -0.2716
     54  ND2       14.1030   22.4410   26.7540 N.am  186  ASN186     -0.0877
     55  N         15.9840   26.8810   14.3090 N.3   237  PHE237     -0.1241
     56  CA        17.1140   26.7970   15.2390 C.3   237  PHE237      0.1605
     57  C         17.9400   25.5540   14.9190 C.2   237  PHE237      0.2264
     58  O         17.4350   24.5500   14.4300 O.2   237  PHE237     -0.2867
     59  CB        16.6040   26.7790   16.6680 C.3   237  PHE237      0.0534
     60  CG        15.8940   28.0560   17.0620 C.ar  237  PHE237     -0.0203
     61  CD1       16.5700   29.2650   17.0220 C.ar  237  PHE237     -0.0042
     62  CD2       14.5750   28.0440   17.5150 C.ar  237  PHE237     -0.0042
     63  CE1       15.9600   30.4500   17.3860 C.ar  237  PHE237     -0.0003
     64  CE2       13.9540   29.2430   17.8590 C.ar  237  PHE237     -0.0003
     65  CZ        14.6550   30.4420   17.8060 C.ar  237  PHE237     -0.0000
     66  N         22.2580   29.1270   17.2550 N.3   261  TRP261     -0.1241
     67  CA        22.2270   29.6600   18.6120 C.3   261  TRP261      0.1605
     68  C         23.1360   28.9400   19.5720 C.2   261  TRP261      0.2264
     69  O         23.6070   29.5510   20.5330 O.2   261  TRP261     -0.2867
     70  CB        20.7920   29.7190   19.1610 C.3   261  TRP261      0.0550
     71  CG        20.2370   28.3790   19.5190 C.ar  261  TRP261      0.0003
     72  CD1       19.6520   27.4500   18.7010 C.ar  261  TRP261      0.0946
     73  CD2       20.2760   27.7870   20.8350 C.ar  261  TRP261      0.0152
     74  NE1       19.3020   26.3240   19.4240 N.ar  261  TRP261     -0.2442
     75  CE2       19.6520   26.4950   20.7280 C.ar  261  TRP261      0.0810
     76  CE3       20.7280   28.2160   22.0700 C.ar  261  TRP261      0.0012
     77  CZ2       19.5410   25.6520   21.8230 C.ar  261  TRP261      0.0191
     78  CZ3       20.6220   27.3610   23.1600 C.ar  261  TRP261      0.0001
     79  CH2       20.0380   26.0990   23.0260 C.ar  261  TRP261      0.0015
     80  N         26.6590   21.2280   24.1090 N.3   265  TRP265     -0.1241
     81  CA        27.2250   21.1160   25.4520 C.3   265  TRP265      0.1605
     82  C         27.5070   19.6460   25.7390 C.2   265  TRP265      0.2264
     83  O         27.4210   18.8160   24.8520 O.2   265  TRP265     -0.2867
     84  CB        26.3080   21.7590   26.4880 C.3   265  TRP265      0.0550
     85  CG        24.8660   21.2870   26.5010 C.ar  265  TRP265      0.0003
     86  CD1       24.3330   20.2640   27.2670 C.ar  265  TRP265      0.0946
     87  CD2       23.7360   21.8620   25.7790 C.ar  265  TRP265      0.0152
     88  NE1       22.9810   20.1490   27.0560 N.ar  265  TRP265     -0.2442
     89  CE2       22.5670   21.0970   26.1680 C.ar  265  TRP265      0.0810
     90  CE3       23.5860   22.9100   24.8780 C.ar  265  TRP265      0.0012
     91  CZ2       21.3030   21.3820   25.6690 C.ar  265  TRP265      0.0191
     92  CZ3       22.3010   23.1980   24.3850 C.ar  265  TRP265      0.0001
     93  CH2       21.1930   22.4360   24.7700 C.ar  265  TRP265      0.0015
     94  N         24.1830   32.3240   21.4790 N.3   288  ASP288     -0.1239
     95  CA        23.6440   32.4540   22.8380 C.3   288  ASP288      0.1674
     96  C         24.6000   33.1690   23.7970 C.2   288  ASP288      0.2266
     97  O         24.2170   33.4450   24.9340 O.2   288  ASP288     -0.2867
     98  CB        23.1610   31.1250   23.4230 C.3   288  ASP288      0.1410
     99  CG        24.2710   30.2050   23.8640 C.2   288  ASP288      0.3668
    100  OD1       25.3770   30.2970   23.3360 O.co2 288  ASP288     -0.2456
    101  OD2       23.9880   29.3340   24.7280 O.co2 288  ASP288     -0.2456
    102  N         22.4690   36.1480   24.7870 N.3   291  TYR291     -0.1241
    103  CA        21.1320   35.9530   25.3580 C.3   291  TYR291      0.1605
    104  C         20.9060   36.7020   26.6600 C.2   291  TYR291      0.2264
    105  O         21.7950   36.8470   27.4960 O.2   291  TYR291     -0.2867
    106  CB        20.8770   34.4620   25.6400 C.3   291  TYR291      0.0534
    107  CG        20.4160   33.6030   24.5000 C.ar  291  TYR291     -0.0201
    108  CD1       20.4690   34.0140   23.1690 C.ar  291  TYR291     -0.0009
    109  CD2       19.9190   32.3290   24.7710 C.ar  291  TYR291     -0.0009
    110  CE1       20.0170   33.1640   22.1510 C.ar  291  TYR291      0.0417
    111  CE2       19.4680   31.4950   23.7890 C.ar  291  TYR291      0.0417
    112  CZ        19.5130   31.9070   22.4650 C.ar  291  TYR291      0.1957
    113  OH        19.0000   31.1190   21.4570 O.3   291  TYR291     -0.2866
    114  N         17.7040   36.5310   29.6160 N.3   293  VAL293     -0.1245
    115  CA        16.4360   36.0700   30.1530 C.3   293  VAL293      0.1561
    116  C         15.8980   37.1230   31.1200 C.2   293  VAL293      0.2260
    117  O         16.5470   37.4730   32.1120 O.2   293  VAL293     -0.2867
    118  CB        16.5730   34.6970   30.8270 C.3   293  VAL293      0.0252
    119  CG1       15.3290   34.3620   31.6560 C.3   293  VAL293      0.0019
    120  CG2       16.8540   33.6230   29.7980 C.3   293  VAL293      0.0019
    121  N         16.5870   38.0490   35.0800 N.3   296  ARG296     -0.1245
    122  CA        17.9440   37.6440   35.4830 C.3   296  ARG296      0.1563
    123  C         18.8020   38.8420   35.1190 C.2   296  ARG296      0.2260
    124  O         19.3310   38.9500   34.0150 O.2   296  ARG296     -0.2867
    125  CB        18.3700   36.3430   34.7960 C.3   296  ARG296      0.0307
    126  CG        17.4280   35.1970   35.0410 C.3   296  ARG296      0.0489
    127  CD        17.9440   33.8910   34.4670 C.3   296  ARG296      0.2205
    128  NE        16.9200   32.8580   34.5650 N.pl3 296  ARG296     -0.0865
    129  CZ        16.9250   31.7190   33.8980 C.cat 296  ARG296      0.5346
    130  NH1       17.9180   31.4050   33.1020 N.pl3 296  ARG296      0.1354
    131  NH2       15.9110   30.8760   34.0350 N.pl3 296  ARG296      0.1354
    132  N         21.5760   31.7320   34.5270 N.3   303  TRP303     -0.1227
    133  CA        22.1350   31.6220   33.1950 C.3   303  TRP303      0.1737
    134  C         21.4270   32.5870   32.2750 C.2   303  TRP303      0.2595
    135  O         20.2100   32.7880   32.3710 O.2   303  TRP303     -0.2718
    136  CB        22.0250   30.1870   32.6690 C.3   303  TRP303      0.0564
    137  CG        23.0680   29.8750   31.6600 C.ar  303  TRP303      0.0003
    138  CD1       22.9000   29.6870   30.3140 C.ar  303  TRP303      0.0946
    139  CD2       24.4830   29.7770   31.9120 C.ar  303  TRP303      0.0152
    140  NE1       24.1210   29.4450   29.7050 N.ar  303  TRP303     -0.2442
    141  CE2       25.1090   29.5050   30.6440 C.ar  303  TRP303      0.0810
    142  CE3       25.2780   29.8830   33.0530 C.ar  303  TRP303      0.0012
    143  CZ2       26.4880   29.3350   30.5180 C.ar  303  TRP303      0.0191
    144  CZ3       26.6620   29.7280   32.9240 C.ar  303  TRP303      0.0001
    145  CH2       27.2480   29.4620   31.6780 C.ar  303  TRP303      0.0015
    146  N         22.1950   33.1830   31.3820 N.am  304  TYR304     -0.1976
    147  CA        21.7140   34.2170   30.4850 C.3   304  TYR304      0.1639
    148  C         21.2460   35.4640   31.2610 C.2   304  TYR304      0.2290
    149  O         20.3340   36.1700   30.8320 O.2   304  TYR304     -0.2864
    150  CB        20.6580   33.7080   29.5310 C.3   304  TYR304      0.0560
    151  CG        21.0280   32.4840   28.7380 C.ar  304  TYR304     -0.0198
    152  CD1       22.2040   32.4300   27.9830 C.ar  304  TYR304     -0.0009
    153  CD2       20.1260   31.4150   28.6080 C.ar  304  TYR304     -0.0009
    154  CE1       22.5230   31.3190   27.2100 C.ar  304  TYR304      0.0417
    155  CE2       20.4310   30.3120   27.8080 C.ar  304  TYR304      0.0417
    156  CZ        21.6110   30.2730   27.0970 C.ar  304  TYR304      0.1957
    157  OH        21.8660   29.1790   26.3040 O.3   304  TYR304     -0.2866
    158  N         14.5710   36.5830   26.1640 N.3   339  TRP339     -0.1241
    159  CA        13.6890   35.4460   26.4050 C.3   339  TRP339      0.1605
    160  C         12.9450   35.6210   27.7120 C.2   339  TRP339      0.2264
    161  O         13.4170   36.3070   28.6210 O.2   339  TRP339     -0.2867
    162  CB        14.5200   34.1690   26.5140 C.3   339  TRP339      0.0550
    163  CG        15.3200   33.8550   25.2800 C.ar  339  TRP339      0.0003
    164  CD1       16.6440   34.1300   25.0480 C.ar  339  TRP339      0.0946
    165  CD2       14.8320   33.2130   24.0770 C.ar  339  TRP339      0.0152
    166  NE1       17.0160   33.6770   23.8100 N.ar  339  TRP339     -0.2442
    167  CE2       15.9460   33.1060   23.1830 C.ar  339  TRP339      0.0810
    168  CE3       13.6100   32.6940   23.6850 C.ar  339  TRP339      0.0012
    169  CZ2       15.8270   32.5400   21.9350 C.ar  339  TRP339      0.0191
    170  CZ3       13.4960   32.1160   22.4430 C.ar  339  TRP339      0.0001
    171  CH2       14.5860   32.0230   21.5840 C.ar  339  TRP339      0.0015
    172  N         11.7340   32.9450   29.8630 N.3   341  ASP341     -0.1239
    173  CA        11.6690   31.6320   30.4900 C.3   341  ASP341      0.1674
    174  C         10.8580   31.6470   31.7800 C.2   341  ASP341      0.2266
    175  O         10.1890   30.6560   32.0870 O.2   341  ASP341     -0.2867
    176  CB        13.0670   31.1020   30.8430 C.3   341  ASP341      0.1410
    177  CG        13.9560   30.8900   29.6210 C.2   341  ASP341      0.3668
    178  OD1       13.9340   31.7040   28.6820 O.co2 341  ASP341     -0.2456
    179  OD2       14.7320   29.9070   29.6710 O.co2 341  ASP341     -0.2456
@<TRIPOS>BOND
     1    55    56    1
     2    58    57    2
     3    57    56    1
     4    56    59    1
     5    59    60    1
     6    61    60   ar
     7    61    63   ar
     8    60    62   ar
     9    66    67    1
    10    63    65   ar
    11    62    64   ar
    12    30    31    1
    13    65    64   ar
    14    67    70    1
    15    67    68    1
    16    72    74   ar
    17    72    71   ar
    18    31    34    1
    19    31    32    1
    20    70    71    1
    21    74    75   ar
    22    36    35   ar
    23    34    35    1
    24    71    73   ar
    25    68    69    2
    26    32    33    2
    27    32    38   am
    28    35    37   ar
    29    38    39    1
    30    75    73   ar
    31    75    77   ar
    32    73    76   ar
    33    12    13    1
    34   113   112    1
    35    94    95    1
    36   171   169   ar
    37   171   170   ar
    38    23    22    2
    39    77    79   ar
    40    39    40    1
    41    39    42    1
    42    16    13    1
    43    16    17    1
    44   169   167   ar
    45    19    17   am
    46    13    14    1
    47    40    41    2
    48    76    78   ar
    49   110   112   ar
    50   110   108   ar
    51    22    21    1
    52    20    21    1
    53    24    21    1
    54    24    25    1
    55   170   168   ar
    56   112   111   ar
    57    17    18    2
    58    27    25   ar
    59    27    29   ar
    60    95    98    1
    61    95    96    1
    62    42    43    1
    63    43    44    1
    64    79    78   ar
    65    25    26   ar
    66   108   107   ar
    67   167   166   ar
    68   167   165   ar
    69   100    99   ar
    70    98    99    1
    71    14    15    2
    72   168   165   ar
    73    29    28   ar
    74   111   109   ar
    75    96    97    2
    76   166   164   ar
    77    99   101   ar
    78    44    45   ar
    79    44    46   ar
    80   165   163   ar
    81    80    81    1
    82    26    28   ar
    83    92    93   ar
    84    92    90   ar
    85   107   109   ar
    86   107   106    1
    87    93    91   ar
    88   102   103    1
    89    83    82    2
    90    90    87   ar
    91   164   163   ar
    92   163   162    1
    93   103   106    1
    94   103   104    1
    95     1     2    1
    96    81    82    1
    97    81    84    1
    98    47    48    1
    99    91    89   ar
   100    87    89   ar
   101    87    85   ar
   102   158   159    1
   103    89    88   ar
   104    10     9    1
   105   157   156    1
   106    51    52    1
   107    51    48    1
   108    53    52    2
   109   159   162    1
   110   159   160    1
   111    84    85    1
   112    85    86   ar
   113    52    54   am
   114    48    49    1
   115    11     9    1
   116   104   105    2
   117     9     8    2
   118     2     5    1
   119     2     3    1
   120     6     5    1
   121     6     7    1
   122    88    86   ar
   123   156   154   ar
   124   156   155   ar
   125   154   152   ar
   126     8     7    1
   127     3     4    2
   128   160   161    2
   129   155   153   ar
   130    49    50    2
   131   152   151   ar
   132   153   151   ar
   133   178   177   ar
   134   151   150    1
   135   150   147    1
   136   114   115    1
   137   177   179   ar
   138   177   176    1
   139   140   138   ar
   140   140   141   ar
   141   120   118    1
   142   172   173    1
   143   115   118    1
   144   115   116    1
   145   138   137   ar
   146   147   148    1
   147   147   146    1
   148   173   176    1
   149   173   174    1
   150   143   141   ar
   151   143   145   ar
   152   141   139   ar
   153   118   119    1
   154   149   148    2
   155   116   117    2
   156   146   134   am
   157   137   139   ar
   158   137   136    1
   159   145   144   ar
   160   174   175    2
   161   139   142   ar
   162   134   135    2
   163   134   133    1
   164   136   133    1
   165   144   142   ar
   166   130   129    1
   167   133   132    1
   168   129   131    1
   169   129   128    2
   170   124   123    2
   171   127   128    1
   172   127   126    1
   173   125   126    1
   174   125   122    1
   175   121   122    1
   176   123   122    1
