@<TRIPOS>MOLECULE
tmp/4az7A00.pdb
 149 146 0 0 0
SMALL
GASTEIGER

@<TRIPOS>ATOM
      1  N          6.0330   33.1690   25.3890 N.3    16  ARG16      -0.1245
      2  CA         5.8750   32.8110   26.7840 C.3    16  ARG16       0.1563
      3  C          5.1350   33.9370   27.5320 C.2    16  ARG16       0.2260
      4  O          4.3880   33.6730   28.4780 O.2    16  ARG16      -0.2867
      5  CB         7.2330   32.5810   27.4520 C.3    16  ARG16       0.0307
      6  CG         7.8470   31.2280   27.0690 C.3    16  ARG16       0.0489
      7  CD         9.1150   31.0280   27.8790 C.3    16  ARG16       0.2205
      8  NE         9.8100   29.7990   27.5560 N.pl3  16  ARG16      -0.0865
      9  CZ        10.8930   29.7300   26.7870 C.cat  16  ARG16       0.5346
     10  NH1       11.3960   30.8210   26.2000 N.pl3  16  ARG16       0.1354
     11  NH2       11.4810   28.5480   26.6130 N.pl3  16  ARG16       0.1354
     12  N          5.6630   30.1310   21.3260 N.3    45  ASN45      -0.1240
     13  CA         6.8720   29.6530   22.0090 C.3    45  ASN45       0.1653
     14  C          6.4260   29.3350   23.4270 C.2    45  ASN45       0.2266
     15  O          6.3580   30.2340   24.2750 O.2    45  ASN45      -0.2867
     16  CB         7.9720   30.7240   21.9880 C.3    45  ASN45       0.1155
     17  CG         9.3040   30.1980   22.4790 C.2    45  ASN45       0.2627
     18  OD1        9.9470   30.7990   23.3700 O.2    45  ASN45      -0.2716
     19  ND2        9.7160   29.0740   21.9460 N.am   45  ASN45      -0.0877
     20  N          8.3380   23.2190   22.2470 N.3   117  HIS117     -0.1241
     21  CA         7.9060   24.5440   22.7130 C.3   117  HIS117      0.1621
     22  C          6.5410   24.8910   22.1760 C.2   117  HIS117      0.2264
     23  O          6.3240   25.9960   21.6560 O.2   117  HIS117     -0.2867
     24  CB         8.9420   25.6040   22.2930 C.3   117  HIS117      0.0745
     25  CG        10.2510   25.4730   23.0420 C.ar  117  HIS117      0.0817
     26  ND1       10.3640   25.7530   24.3620 N.ar  117  HIS117     -0.2268
     27  CD2       11.5150   25.0520   22.6190 C.ar  117  HIS117      0.1154
     28  CE1       11.6310   25.5300   24.7600 C.ar  117  HIS117      0.1986
     29  NE2       12.3360   25.1100   23.6950 N.ar  117  HIS117     -0.2212
     30  N         13.4990   23.7390   17.8210 N.3   180  ASP180     -0.1225
     31  CA        14.5190   23.5440   18.8370 C.3   180  ASP180      0.1805
     32  C         14.0510   22.6190   19.9470 C.2   180  ASP180      0.2597
     33  O         12.8600   22.5900   20.2670 O.2   180  ASP180     -0.2718
     34  CB        14.9780   24.9000   19.4540 C.3   180  ASP180      0.1424
     35  CG        13.8260   25.6970   20.0880 C.2   180  ASP180      0.3668
     36  OD1       12.7390   25.8070   19.4730 O.co2 180  ASP180     -0.2456
     37  OD2       14.0190   26.2450   21.1830 O.co2 180  ASP180     -0.2456
     38  N         15.0010   21.8860   20.5390 N.am  181  GLU181     -0.1979
     39  CA        14.8080   21.2830   21.8820 C.3   181  GLU181      0.1602
     40  C         13.6780   20.2880   21.9980 C.2   181  GLU181      0.2287
     41  O         12.8590   20.3820   22.9140 O.2   181  GLU181     -0.2864
     42  CB        14.6300   22.3880   22.9300 C.3   181  GLU181      0.0415
     43  CG        15.8860   23.2390   23.0080 C.3   181  GLU181      0.1163
     44  CD        15.8730   24.2420   24.1190 C.2   181  GLU181      0.3649
     45  OE1       14.8260   24.8680   24.3530 O.co2 181  GLU181     -0.2457
     46  OE2       16.9390   24.4160   24.7460 O.co2 181  GLU181     -0.2457
     47  N         15.8710   26.8850   14.3300 N.3   235  PHE235     -0.1241
     48  CA        17.0260   26.8530   15.2410 C.3   235  PHE235      0.1605
     49  C         17.8720   25.6170   14.9240 C.2   235  PHE235      0.2264
     50  O         17.3570   24.6240   14.3880 O.2   235  PHE235     -0.2867
     51  CB        16.5050   26.8120   16.6710 C.3   235  PHE235      0.0534
     52  CG        15.8190   28.0900   17.0820 C.ar  235  PHE235     -0.0203
     53  CD1       16.5150   29.3000   16.9880 C.ar  235  PHE235     -0.0042
     54  CD2       14.4870   28.1040   17.5130 C.ar  235  PHE235     -0.0042
     55  CE1       15.9040   30.4930   17.3500 C.ar  235  PHE235     -0.0003
     56  CE2       13.8710   29.3100   17.8600 C.ar  235  PHE235     -0.0003
     57  CZ        14.5720   30.5020   17.7830 C.ar  235  PHE235     -0.0000
     58  N         22.2100   29.1530   17.2410 N.3   259  TRP259     -0.1241
     59  CA        22.1460   29.7510   18.5830 C.3   259  TRP259      0.1605
     60  C         23.0230   29.0130   19.5580 C.2   259  TRP259      0.2264
     61  O         23.4810   29.6080   20.5400 O.2   259  TRP259     -0.2867
     62  CB        20.6910   29.7740   19.0850 C.3   259  TRP259      0.0550
     63  CG        20.1150   28.4200   19.4470 C.ar  259  TRP259      0.0003
     64  CD1       19.5390   27.4600   18.6020 C.ar  259  TRP259      0.0946
     65  CD2       20.0960   27.8210   20.7860 C.ar  259  TRP259      0.0152
     66  NE1       19.1510   26.3330   19.3430 N.ar  259  TRP259     -0.2442
     67  CE2       19.4840   26.5010   20.6510 C.ar  259  TRP259      0.0810
     68  CE3       20.5400   28.2400   22.0450 C.ar  259  TRP259      0.0012
     69  CZ2       19.3100   25.6460   21.7520 C.ar  259  TRP259      0.0191
     70  CZ3       20.3640   27.3770   23.1480 C.ar  259  TRP259      0.0001
     71  CH2       19.7610   26.1100   23.0020 C.ar  259  TRP259      0.0015
     72  N         26.6190   21.2510   24.1560 N.3   263  TRP263     -0.1241
     73  CA        27.2090   21.1650   25.5000 C.3   263  TRP263      0.1605
     74  C         27.4900   19.7010   25.7900 C.2   263  TRP263      0.2264
     75  O         27.3210   18.8630   24.9120 O.2   263  TRP263     -0.2867
     76  CB        26.2970   21.8210   26.5410 C.3   263  TRP263      0.0550
     77  CG        24.8580   21.3430   26.5260 C.ar  263  TRP263      0.0003
     78  CD1       24.3260   20.2310   27.1950 C.ar  263  TRP263      0.0946
     79  CD2       23.7060   21.9670   25.8480 C.ar  263  TRP263      0.0152
     80  NE1       22.9730   20.1120   26.9650 N.ar  263  TRP263     -0.2442
     81  CE2       22.5370   21.1310   26.1670 C.ar  263  TRP263      0.0810
     82  CE3       23.5360   23.0900   25.0150 C.ar  263  TRP263      0.0012
     83  CZ2       21.2640   21.4230   25.6820 C.ar  263  TRP263      0.0191
     84  CZ3       22.2450   23.3740   24.5440 C.ar  263  TRP263      0.0001
     85  CH2       21.1360   22.5620   24.8600 C.ar  263  TRP263      0.0015
     86  N         22.4490   36.1250   24.8130 N.3   289  TYR289     -0.1241
     87  CA        21.1080   35.9480   25.3710 C.3   289  TYR289      0.1605
     88  C         20.8720   36.7000   26.6720 C.2   289  TYR289      0.2264
     89  O         21.7780   36.8290   27.5020 O.2   289  TYR289     -0.2867
     90  CB        20.8740   34.4510   25.6720 C.3   289  TYR289      0.0534
     91  CG        20.3720   33.6050   24.5220 C.ar  289  TYR289     -0.0201
     92  CD1       20.3930   34.0600   23.1920 C.ar  289  TYR289     -0.0009
     93  CD2       19.8760   32.3260   24.7790 C.ar  289  TYR289     -0.0009
     94  CE1       19.9220   33.2430   22.1600 C.ar  289  TYR289      0.0417
     95  CE2       19.4040   31.5050   23.7680 C.ar  289  TYR289      0.0417
     96  CZ        19.4270   31.9700   22.4500 C.ar  289  TYR289      0.1957
     97  OH        18.9010   31.1730   21.4480 O.3   289  TYR289     -0.2866
     98  N         17.7260   36.5580   29.6510 N.3   291  VAL291     -0.1245
     99  CA        16.4290   36.0750   30.1570 C.3   291  VAL291      0.1561
    100  C         15.8500   37.1200   31.1260 C.2   291  VAL291      0.2260
    101  O         16.4720   37.4300   32.1420 O.2   291  VAL291     -0.2867
    102  CB        16.5830   34.7080   30.8750 C.3   291  VAL291      0.0252
    103  CG1       15.3120   34.3360   31.6670 C.3   291  VAL291      0.0019
    104  CG2       16.8600   33.6280   29.8310 C.3   291  VAL291      0.0019
    105  N         16.5540   38.0710   35.0820 N.3   294  ARG294     -0.1245
    106  CA        17.9070   37.6920   35.5270 C.3   294  ARG294      0.1563
    107  C         18.7650   38.8850   35.1650 C.2   294  ARG294      0.2260
    108  O         19.2900   38.9960   34.0760 O.2   294  ARG294     -0.2867
    109  CB        18.3630   36.3900   34.8670 C.3   294  ARG294      0.0307
    110  CG        17.4190   35.2450   35.1550 C.3   294  ARG294      0.0489
    111  CD        17.9000   33.9800   34.4730 C.3   294  ARG294      0.2205
    112  NE        16.9410   32.9160   34.7100 N.pl3 294  ARG294     -0.0865
    113  CZ        16.9610   31.7310   34.1010 C.cat 294  ARG294      0.5346
    114  NH1       17.9050   31.4310   33.2150 N.pl3 294  ARG294      0.1354
    115  NH2       16.0200   30.8340   34.3920 N.pl3 294  ARG294      0.1354
    116  N         22.1900   33.2060   31.3940 N.3   302  TYR302     -0.1241
    117  CA        21.7340   34.2580   30.4720 C.3   302  TYR302      0.1605
    118  C         21.2220   35.4830   31.2410 C.2   302  TYR302      0.2264
    119  O         20.2680   36.1690   30.8200 O.2   302  TYR302     -0.2867
    120  CB        20.6570   33.7440   29.5160 C.3   302  TYR302      0.0534
    121  CG        21.0230   32.5370   28.7060 C.ar  302  TYR302     -0.0201
    122  CD1       22.2450   32.4690   28.0140 C.ar  302  TYR302     -0.0009
    123  CD2       20.1160   31.4880   28.5660 C.ar  302  TYR302     -0.0009
    124  CE1       22.5430   31.3540   27.2250 C.ar  302  TYR302      0.0417
    125  CE2       20.3980   30.3580   27.7710 C.ar  302  TYR302      0.0417
    126  CZ        21.6120   30.3040   27.1140 C.ar  302  TYR302      0.1957
    127  OH        21.8720   29.2070   26.3070 O.3   302  TYR302     -0.2866
    128  N         14.5460   36.5990   26.2010 N.3   337  TRP337     -0.1241
    129  CA        13.6630   35.4680   26.4380 C.3   337  TRP337      0.1605
    130  C         12.9180   35.6440   27.7160 C.2   337  TRP337      0.2264
    131  O         13.3830   36.3550   28.6240 O.2   337  TRP337     -0.2867
    132  CB        14.5270   34.2180   26.5530 C.3   337  TRP337      0.0550
    133  CG        15.2960   33.9280   25.2910 C.ar  337  TRP337      0.0003
    134  CD1       16.6390   34.1760   25.0400 C.ar  337  TRP337      0.0946
    135  CD2       14.7980   33.2500   24.0880 C.ar  337  TRP337      0.0152
    136  NE1       16.9910   33.7300   23.7920 N.ar  337  TRP337     -0.2442
    137  CE2       15.9350   33.1720   23.1640 C.ar  337  TRP337      0.0810
    138  CE3       13.5530   32.7330   23.6890 C.ar  337  TRP337      0.0012
    139  CZ2       15.8260   32.5810   21.9070 C.ar  337  TRP337      0.0191
    140  CZ3       13.4510   32.1440   22.4250 C.ar  337  TRP337      0.0001
    141  CH2       14.5640   32.0830   21.5460 C.ar  337  TRP337      0.0015
    142  N         11.7150   32.9570   29.8190 N.3   339  ASP339     -0.1239
    143  CA        11.6280   31.6410   30.4670 C.3   339  ASP339      0.1674
    144  C         10.8000   31.6530   31.7580 C.2   339  ASP339      0.2266
    145  O         10.1400   30.6660   32.0730 O.2   339  ASP339     -0.2867
    146  CB        13.0320   31.1570   30.8440 C.3   339  ASP339      0.1410
    147  CG        13.9410   30.9650   29.6290 C.2   339  ASP339      0.3668
    148  OD1       13.8500   31.7460   28.6650 O.co2 339  ASP339     -0.2456
    149  OD2       14.7500   30.0050   29.6560 O.co2 339  ASP339     -0.2456
@<TRIPOS>BOND
     1    47    48    1
     2    50    49    2
     3    49    48    1
     4    48    51    1
     5    51    52    1
     6    53    52   ar
     7    53    55   ar
     8    52    54   ar
     9    58    59    1
    10    55    57   ar
    11    54    56   ar
    12    57    56   ar
    13    30    31    1
    14    59    62    1
    15    59    60    1
    16    64    66   ar
    17    64    63   ar
    18    31    34    1
    19    31    32    1
    20    62    63    1
    21    66    67   ar
    22    63    65   ar
    23    34    35    1
    24    36    35   ar
    25    60    61    2
    26    32    33    2
    27    32    38   am
    28    35    37   ar
    29    38    39    1
    30    67    65   ar
    31    67    69   ar
    32    65    68   ar
    33    12    13    1
    34    97    96    1
    35   141   139   ar
    36   141   140   ar
    37    23    22    2
    38    69    71   ar
    39    39    40    1
    40    39    42    1
    41   139   137   ar
    42    19    17   am
    43    16    13    1
    44    16    17    1
    45    40    41    2
    46    13    14    1
    47    68    70   ar
    48    94    96   ar
    49    94    92   ar
    50    22    21    1
    51    20    21    1
    52    24    21    1
    53    24    25    1
    54   140   138   ar
    55    96    95   ar
    56    17    18    2
    57    27    25   ar
    58    27    29   ar
    59    42    43    1
    60    71    70   ar
    61    43    44    1
    62    25    26   ar
    63   137   136   ar
    64   137   135   ar
    65    92    91   ar
    66    14    15    2
    67   138   135   ar
    68    29    28   ar
    69    95    93   ar
    70   136   134   ar
    71   135   133   ar
    72    44    45   ar
    73    44    46   ar
    74    72    73    1
    75    26    28   ar
    76    91    93   ar
    77    91    90    1
    78    84    85   ar
    79    84    82   ar
    80    86    87    1
    81    85    83   ar
    82    75    74    2
    83    82    79   ar
    84   134   133   ar
    85   133   132    1
    86    87    90    1
    87    87    88    1
    88     1     2    1
    89    73    74    1
    90    73    76    1
    91    83    81   ar
    92    79    81   ar
    93    79    77   ar
    94    81    80   ar
    95    10     9    1
    96   128   129    1
    97   127   126    1
    98   129   132    1
    99   129   130    1
   100    77    76    1
   101    77    78   ar
   102    11     9    1
   103    88    89    2
   104     2     5    1
   105     2     3    1
   106     9     8    2
   107    80    78   ar
   108     6     5    1
   109     6     7    1
   110   126   124   ar
   111   126   125   ar
   112   124   122   ar
   113     3     4    2
   114     8     7    1
   115   130   131    2
   116   125   123   ar
   117   122   121   ar
   118   123   121   ar
   119   148   147   ar
   120   121   120    1
   121   120   117    1
   122   147   149   ar
   123   147   146    1
   124    98    99    1
   125   142   143    1
   126   104   102    1
   127    99   102    1
   128    99   100    1
   129   143   146    1
   130   143   144    1
   131   117   118    1
   132   117   116    1
   133   119   118    2
   134   102   103    1
   135   100   101    2
   136   144   145    2
   137   114   113    1
   138   108   107    2
   139   113   115    1
   140   113   112    2
   141   111   112    1
   142   111   110    1
   143   109   110    1
   144   109   106    1
   145   105   106    1
   146   107   106    1
