@<TRIPOS>MOLECULE
tmp/4azcC00.pdb
 113 110 0 0 0
SMALL
GASTEIGER

@<TRIPOS>ATOM
      1  N          7.5130  -42.8560  -82.2670 N.3    19  ARG19      -0.1245
      2  CA         6.3690  -43.5180  -82.8940 C.3    19  ARG19       0.1563
      3  C          6.6200  -43.7550  -84.3770 C.2    19  ARG19       0.2260
      4  O          6.2800  -44.8170  -84.9010 O.2    19  ARG19      -0.2867
      5  CB         5.0770  -42.7210  -82.6940 C.3    19  ARG19       0.0307
      6  CG         4.5620  -42.7230  -81.2540 C.3    19  ARG19       0.0489
      7  CD         3.1160  -42.2540  -81.2470 C.3    19  ARG19       0.2205
      8  NE         2.4490  -42.2990  -79.9390 N.pl3  19  ARG19      -0.0865
      9  CZ         2.4490  -41.3050  -79.0590 C.cat  19  ARG19       0.5346
     10  NH1        3.1220  -40.1780  -79.3100 N.pl3  19  ARG19       0.1354
     11  NH2        1.7740  -41.4360  -77.9200 N.pl3  19  ARG19       0.1354
     12  N          9.5490  -43.9550  -77.7470 N.3    48  ASN48      -0.1240
     13  CA         8.2300  -43.4120  -77.4780 C.3    48  ASN48       0.1653
     14  C          7.2930  -44.3050  -78.2590 C.2    48  ASN48       0.2266
     15  O          7.0860  -44.0980  -79.4740 O.2    48  ASN48      -0.2867
     16  CB         8.1050  -41.9580  -77.9530 C.3    48  ASN48       0.1155
     17  CG         6.8660  -41.2780  -77.4090 C.2    48  ASN48       0.2627
     18  OD1        6.6090  -41.3050  -76.1950 O.2    48  ASN48      -0.2716
     19  ND2        6.0810  -40.6670  -78.2980 N.am   48  ASN48      -0.0877
     20  N          4.6230  -45.7430  -72.5320 N.3   120  HIS120     -0.1241
     21  CA         5.0140  -45.5290  -73.9250 C.3   120  HIS120      0.1621
     22  C          6.2570  -46.3250  -74.3150 C.2   120  HIS120      0.2264
     23  O          7.2270  -45.7710  -74.8540 O.2   120  HIS120     -0.2867
     24  CB         5.2430  -44.0410  -74.1860 C.3   120  HIS120      0.0745
     25  CG         4.0100  -43.2070  -74.0580 C.ar  120  HIS120      0.0817
     26  ND1        3.0220  -43.1780  -75.0250 N.ar  120  HIS120     -0.2268
     27  CD2        3.6140  -42.3460  -73.0890 C.ar  120  HIS120      0.1154
     28  CE1        2.0760  -42.3350  -74.6570 C.ar  120  HIS120      0.1986
     29  NE2        2.4100  -41.8170  -73.4860 N.ar  120  HIS120     -0.2212
     30  N          5.4620  -40.0900  -68.6100 N.3   182  ASP182     -0.1225
     31  CA         4.1040  -39.6000  -68.8190 C.3   182  ASP182      0.1805
     32  C          3.1170  -40.7450  -69.0020 C.2   182  ASP182      0.2597
     33  O          3.4920  -41.8240  -69.4800 O.2   182  ASP182     -0.2718
     34  CB         4.0460  -38.6870  -70.0570 C.3   182  ASP182      0.1424
     35  CG         4.4400  -39.4050  -71.3500 C.2   182  ASP182      0.3668
     36  OD1        5.4300  -40.1420  -71.3360 O.co2 182  ASP182     -0.2456
     37  OD2        3.7630  -39.2220  -72.3900 O.co2 182  ASP182     -0.2456
     38  N          1.8600  -40.5020  -68.6420 N.am  183  GLU183     -0.1979
     39  CA         0.7350  -41.4110  -69.0120 C.3   183  GLU183      0.1602
     40  C          0.9750  -42.9200  -68.7610 C.2   183  GLU183      0.2287
     41  O          0.8460  -43.7400  -69.7000 O.2   183  GLU183     -0.2864
     42  CB         0.3270  -41.1880  -70.4800 C.3   183  GLU183      0.0415
     43  CG        -0.2330  -39.7830  -70.8020 C.3   183  GLU183      0.1163
     44  CD        -0.5330  -39.5870  -72.2930 C.2   183  GLU183      0.3649
     45  OE1        0.0940  -40.2740  -73.1480 O.co2 183  GLU183     -0.2457
     46  OE2       -1.3870  -38.7260  -72.6130 O.co2 183  GLU183     -0.2457
     47  N          8.4360  -35.6360  -67.9790 N.3   227  PHE227     -0.1241
     48  CA         7.1180  -35.0010  -68.0080 C.3   227  PHE227      0.1605
     49  C          6.5200  -34.9190  -66.6010 C.2   227  PHE227      0.2264
     50  O          6.9080  -35.6750  -65.7090 O.2   227  PHE227     -0.2867
     51  CB         6.1900  -35.7230  -68.9870 C.3   227  PHE227      0.0534
     52  CG         6.7070  -35.7230  -70.3960 C.ar  227  PHE227     -0.0203
     53  CD1        6.8260  -34.5280  -71.1010 C.ar  227  PHE227     -0.0042
     54  CD2        7.1070  -36.9110  -71.0060 C.ar  227  PHE227     -0.0042
     55  CE1        7.3220  -34.5010  -72.3880 C.ar  227  PHE227     -0.0003
     56  CE2        7.5940  -36.9020  -72.3210 C.ar  227  PHE227     -0.0003
     57  CZ         7.7160  -35.6940  -73.0050 C.ar  227  PHE227     -0.0000
     58  N          3.2730  -30.0080  -69.3500 N.3   250  TRP250     -0.1241
     59  CA         2.4410  -29.8970  -70.5690 C.3   250  TRP250      0.1605
     60  C          0.9260  -29.7820  -70.3520 C.2   250  TRP250      0.2264
     61  O          0.2040  -29.2880  -71.2300 O.2   250  TRP250     -0.2867
     62  CB         2.7300  -31.0670  -71.5000 C.3   250  TRP250      0.0550
     63  CG         2.1770  -32.3750  -71.0430 C.ar  250  TRP250      0.0003
     64  CD1        2.7410  -33.2410  -70.1390 C.ar  250  TRP250      0.0946
     65  CD2        0.9660  -32.9930  -71.4880 C.ar  250  TRP250      0.0152
     66  NE1        1.9460  -34.3530  -69.9900 N.ar  250  TRP250     -0.2442
     67  CE2        0.8490  -34.2270  -70.8020 C.ar  250  TRP250      0.0810
     68  CE3       -0.0390  -32.6220  -72.3870 C.ar  250  TRP250      0.0012
     69  CZ2       -0.2340  -35.0890  -70.9920 C.ar  250  TRP250      0.0191
     70  CZ3       -1.1230  -33.4790  -72.5670 C.ar  250  TRP250      0.0001
     71  CH2       -1.2080  -34.6980  -71.8780 C.ar  250  TRP250      0.0015
     72  N          0.7320  -28.0040  -79.3270 N.3   280  TYR280     -0.1241
     73  CA         0.8620  -29.3170  -79.9800 C.3   280  TYR280      0.1605
     74  C          0.2780  -29.3710  -81.3730 C.2   280  TYR280      0.2264
     75  O         -0.8380  -28.8940  -81.6090 O.2   280  TYR280     -0.2867
     76  CB         0.1680  -30.4410  -79.1810 C.3   280  TYR280      0.0534
     77  CG         0.8390  -30.8520  -77.9040 C.ar  280  TYR280     -0.0201
     78  CD1        2.0810  -30.3320  -77.5460 C.ar  280  TYR280     -0.0009
     79  CD2        0.2210  -31.7460  -77.0420 C.ar  280  TYR280     -0.0009
     80  CE1        2.7080  -30.6940  -76.3510 C.ar  280  TYR280      0.0417
     81  CE2        0.8310  -32.1270  -75.8430 C.ar  280  TYR280      0.0417
     82  CZ         2.0790  -31.5930  -75.5060 C.ar  280  TYR280      0.1957
     83  OH         2.7030  -31.9600  -74.3430 O.3   280  TYR280     -0.2866
     84  N         -0.3060  -32.7840  -83.8690 N.3   282  ILE282     -0.1245
     85  CA        -0.2490  -34.2280  -84.1070 C.3   282  ILE282      0.1561
     86  C         -0.3510  -34.4330  -85.6050 C.2   282  ILE282      0.2260
     87  O         -1.2820  -33.9250  -86.2310 O.2   282  ILE282     -0.2867
     88  CB        -1.4270  -34.9540  -83.4190 C.3   282  ILE282      0.0252
     89  CG1       -1.1970  -35.0540  -81.9120 C.3   282  ILE282      0.0019
     90  CG2       -1.6590  -36.3360  -84.0240 C.3   282  ILE282      0.0019
     91  CD1       -1.3600  -33.7460  -81.1810 C.3   282  ILE282      0.0001
     92  N          3.8600  -34.3830  -82.4190 N.3   329  TRP329     -0.1241
     93  CA         3.5710  -35.7600  -82.0070 C.3   329  TRP329      0.1605
     94  C          3.1180  -36.5870  -83.1950 C.2   329  TRP329      0.2264
     95  O          2.5600  -36.0520  -84.1400 O.2   329  TRP329     -0.2867
     96  CB         2.4850  -35.7760  -80.9290 C.3   329  TRP329      0.0550
     97  CG         2.9090  -35.0190  -79.6940 C.ar  329  TRP329      0.0003
     98  CD1        2.4650  -33.7900  -79.3000 C.ar  329  TRP329      0.0946
     99  CD2        3.8710  -35.4400  -78.7060 C.ar  329  TRP329      0.0152
    100  NE1        3.0880  -33.4170  -78.1290 N.ar  329  TRP329     -0.2442
    101  CE2        3.9590  -34.4040  -77.7440 C.ar  329  TRP329      0.0810
    102  CE3        4.6770  -36.5800  -78.5500 C.ar  329  TRP329      0.0012
    103  CZ2        4.8060  -34.4760  -76.6300 C.ar  329  TRP329      0.0191
    104  CZ3        5.5320  -36.6530  -77.4350 C.ar  329  TRP329      0.0001
    105  CH2        5.5840  -35.6030  -76.4890 C.ar  329  TRP329      0.0015
    106  N          0.9610  -39.5310  -83.0130 N.3   331  ASP331     -0.1239
    107  CA        -0.0300  -40.4930  -82.4540 C.3   331  ASP331      0.1674
    108  C         -0.4970  -41.5570  -83.4560 C.2   331  ASP331      0.2266
    109  O         -0.7000  -42.7180  -83.0920 O.2   331  ASP331     -0.2867
    110  CB        -1.2540  -39.7550  -81.8690 C.3   331  ASP331      0.1410
    111  CG        -0.8960  -38.8950  -80.6570 C.2   331  ASP331      0.3668
    112  OD1        0.2450  -38.3720  -80.6280 O.co2 331  ASP331     -0.2456
    113  OD2       -1.7500  -38.7490  -79.7440 O.co2 331  ASP331     -0.2456
@<TRIPOS>BOND
     1    87    86    2
     2    86    85    1
     3     4     3    2
     4     3     2    1
     5    95    94    2
     6    85    84    1
     7    85    88    1
     8    90    88    1
     9   108   109    2
    10   108   107    1
    11    88    89    1
    12    94    93    1
    13   106   107    1
    14     2     5    1
    15     2     1    1
    16     5     6    1
    17   107   110    1
    18    92    93    1
    19    93    96    1
    20    89    91    1
    21   110   111    1
    22    75    74    2
    23    74    73    1
    24     6     7    1
    25     7     8    1
    26    96    97    1
    27   111   112   ar
    28   111   113   ar
    29    73    72    1
    30    73    76    1
    31     8     9    2
    32    97    98   ar
    33    97    99   ar
    34    15    14    2
    35    10     9    1
    36    98   100   ar
    37    76    77    1
    38     9    11    1
    39    99   102   ar
    40    99   101   ar
    41   102   104   ar
    42    19    17   am
    43    14    13    1
    44   100   101   ar
    45    16    13    1
    46    16    17    1
    47    77    78   ar
    48    77    79   ar
    49    12    13    1
    50   101   103   ar
    51    78    80   ar
    52   104   105   ar
    53    17    18    2
    54    79    81   ar
    55   103   105   ar
    56    80    82   ar
    57    81    82   ar
    58    82    83    1
    59    26    28   ar
    60    26    25   ar
    61    23    22    2
    62    28    29   ar
    63    22    21    1
    64    24    25    1
    65    24    21    1
    66    25    27   ar
    67    21    20    1
    68    29    27   ar
    69    45    44   ar
    70    57    55   ar
    71    57    56   ar
    72    46    44   ar
    73    70    68   ar
    74    70    71   ar
    75    37    35   ar
    76    55    53   ar
    77    68    65   ar
    78    56    54   ar
    79    44    43    1
    80    71    69   ar
    81    62    63    1
    82    62    59    1
    83    65    63   ar
    84    65    67   ar
    85    35    36   ar
    86    35    34    1
    87    61    60    2
    88    53    52   ar
    89    63    64   ar
    90    54    52   ar
    91    69    67   ar
    92    67    66   ar
    93    43    42    1
    94    59    60    1
    95    59    58    1
    96    42    39    1
    97    52    51    1
    98    64    66   ar
    99    34    31    1
   100    41    40    2
   101    33    32    2
   102    39    40    1
   103    39    38    1
   104    32    31    1
   105    32    38   am
   106    51    48    1
   107    31    30    1
   108    48    47    1
   109    48    49    1
   110    49    50    2
