@<TRIPOS>MOLECULE
tmp/4azeC00.pdb
 167 156 0 0 0
SMALL
GASTEIGER

@<TRIPOS>ATOM
      1  N        -81.3900  -23.0450  -22.1210 N.3    34  ILE34      -0.1231
      2  CA       -82.6540  -22.6870  -21.4740 C.3    34  ILE34       0.1696
      3  C        -82.6430  -22.9600  -19.9770 C.2    34  ILE34       0.2632
      4  O        -83.3320  -22.2700  -19.2470 O.2    34  ILE34      -0.2714
      5  CB       -83.9000  -23.3200  -22.1540 C.3    34  ILE34       0.0266
      6  CG1      -84.1110  -24.7910  -21.7680 C.3    34  ILE34       0.0019
      7  CG2      -83.8060  -23.1720  -23.6690 C.3    34  ILE34       0.0020
      8  CD1      -85.0300  -25.5300  -22.7260 C.3    34  ILE34       0.0001
      9  N        -81.8640  -23.9400  -19.5200 N.am   35  GLY35      -0.1718
     10  CA       -81.7440  -24.1910  -18.0800 C.2    35  GLY35       0.1480
     11  C        -80.6190  -25.1120  -17.6330 C.2    35  GLY35       0.2820
     12  O        -80.1970  -26.0040  -18.3790 O.2    35  GLY35      -0.2669
     13  N        -80.1350  -24.8740  -16.4070 N.am   36  LYS36      -0.1943
     14  CA       -79.1430  -25.7310  -15.7450 C.3    36  LYS36       0.1599
     15  C        -79.8400  -26.6190  -14.7190 C.2    36  LYS36       0.2287
     16  O        -81.0510  -26.5300  -14.5350 O.2    36  LYS36      -0.2864
     17  CB       -78.0430  -24.8930  -15.0700 C.3    36  LYS36       0.0298
     18  CG       -76.8970  -24.5260  -16.0060 C.3    36  LYS36       0.0038
     19  CD       -75.6250  -24.1060  -15.2650 C.3    36  LYS36       0.0206
     20  CE       -74.5390  -23.5980  -16.2220 C.3    36  LYS36       0.1093
     21  NZ       -74.2330  -24.5560  -17.3280 N.3    36  LYS36      -0.1314
     22  N        -78.5230  -32.6350  -12.8690 N.3    39  PHE39      -0.1241
     23  CA       -78.4070  -33.5550  -14.0180 C.3    39  PHE39       0.1605
     24  C        -77.4930  -33.0500  -15.1490 C.2    39  PHE39       0.2264
     25  O        -76.8020  -33.8430  -15.7890 O.2    39  PHE39      -0.2867
     26  CB       -79.7920  -33.8020  -14.6190 C.3    39  PHE39       0.0534
     27  CG       -80.4190  -32.5610  -15.1770 C.ar   39  PHE39      -0.0203
     28  CD1      -80.1320  -32.1400  -16.4710 C.ar   39  PHE39      -0.0042
     29  CD2      -81.2500  -31.7790  -14.3890 C.ar   39  PHE39      -0.0042
     30  CE1      -80.6820  -30.9760  -16.9750 C.ar   39  PHE39      -0.0003
     31  CE2      -81.8050  -30.6170  -14.8870 C.ar   39  PHE39      -0.0003
     32  CZ       -81.5230  -30.2140  -16.1820 C.ar   39  PHE39      -0.0000
     33  N        -80.1900  -28.0000  -20.2050 N.3    42  VAL42      -0.1245
     34  CA       -81.1290  -28.1670  -21.3070 C.3    42  VAL42       0.1561
     35  C        -80.9740  -26.9930  -22.2660 C.2    42  VAL42       0.2260
     36  O        -80.8230  -25.8380  -21.8400 O.2    42  VAL42      -0.2867
     37  CB       -82.5860  -28.2920  -20.8370 C.3    42  VAL42       0.0252
     38  CG1      -83.5000  -28.5150  -22.0320 C.3    42  VAL42       0.0019
     39  CG2      -82.7300  -29.4410  -19.8520 C.3    42  VAL42       0.0019
     40  N        -86.2310  -29.4900  -27.2680 N.3    55  ALA55      -0.1245
     41  CA       -85.4340  -29.1570  -26.1050 C.3    55  ALA55       0.1562
     42  C        -84.5800  -30.3750  -25.8080 C.2    55  ALA55       0.2260
     43  O        -85.1100  -31.4630  -25.5760 O.2    55  ALA55      -0.2867
     44  CB       -86.3280  -28.8260  -24.9270 C.3    55  ALA55       0.0290
     45  N        -81.7160  -32.2850  -23.4990 N.3    57  LYS57      -0.1245
     46  CA       -81.1610  -32.3390  -22.1540 C.3    57  LYS57       0.1561
     47  C        -79.7880  -33.0110  -22.2010 C.2    57  LYS57       0.2260
     48  O        -79.6930  -34.2220  -22.3840 O.2    57  LYS57      -0.2867
     49  CB       -82.1150  -33.1280  -21.2560 C.3    57  LYS57       0.0271
     50  CG       -81.6690  -33.3430  -19.8110 C.3    57  LYS57       0.0035
     51  CD       -82.7010  -34.1800  -19.0500 C.3    57  LYS57       0.0206
     52  CE       -82.5510  -34.0920  -17.5360 C.3    57  LYS57       0.1093
     53  NZ       -83.5010  -34.9790  -16.8070 N.3    57  LYS57      -0.1314
     54  N        -83.8230  -43.0620  -16.2750 N.3    72  GLU72      -0.1245
     55  CA       -84.7680  -42.0440  -16.7170 C.3    72  GLU72       0.1567
     56  C        -85.3040  -42.3990  -18.0970 C.2    72  GLU72       0.2260
     57  O        -86.5110  -42.5020  -18.2860 O.2    72  GLU72      -0.2867
     58  CB       -84.1050  -40.6540  -16.7360 C.3    72  GLU72       0.0388
     59  CG       -85.0650  -39.4880  -16.9430 C.3    72  GLU72       0.1160
     60  CD       -84.3640  -38.1430  -17.1190 C.2    72  GLU72       0.3649
     61  OE1      -83.1750  -37.9920  -16.7330 O.co2  72  GLU72      -0.2457
     62  OE2      -85.0230  -37.2190  -17.6470 O.co2  72  GLU72      -0.2457
     63  N        -94.0630  -35.6620  -20.3770 N.3    91  VAL91      -0.1245
     64  CA       -93.3490  -35.1080  -21.5300 C.3    91  VAL91       0.1561
     65  C        -92.8390  -36.2000  -22.4680 C.2    91  VAL91       0.2260
     66  O        -92.3780  -37.2570  -22.0290 O.2    91  VAL91      -0.2867
     67  CB       -92.1620  -34.2230  -21.0970 C.3    91  VAL91       0.0252
     68  CG1      -91.0980  -35.0560  -20.3990 C.3    91  VAL91       0.0019
     69  CG2      -91.5800  -33.4920  -22.2960 C.3    91  VAL91       0.0019
     70  N        -86.4040  -33.8470  -26.2770 N.3   107  PHE107     -0.1227
     71  CA       -87.7940  -33.7060  -25.8610 C.3   107  PHE107      0.1736
     72  C        -88.5480  -32.7910  -26.8000 C.2   107  PHE107      0.2595
     73  O        -87.9550  -31.9220  -27.4390 O.2   107  PHE107     -0.2718
     74  CB       -87.8690  -33.1070  -24.4620 C.3   107  PHE107      0.0547
     75  CG       -87.3630  -34.0170  -23.3940 C.ar  107  PHE107     -0.0202
     76  CD1      -88.1530  -35.0500  -22.9210 C.ar  107  PHE107     -0.0042
     77  CD2      -86.0990  -33.8450  -22.8600 C.ar  107  PHE107     -0.0042
     78  CE1      -87.6920  -35.8990  -21.9290 C.ar  107  PHE107     -0.0003
     79  CE2      -85.6310  -34.6890  -21.8680 C.ar  107  PHE107     -0.0003
     80  CZ       -86.4290  -35.7180  -21.4000 C.ar  107  PHE107     -0.0000
     81  N        -89.8600  -32.9820  -26.8680 N.am  108  GLU108     -0.1965
     82  CA       -90.7470  -31.9700  -27.4270 C.3   108  GLU108      0.1733
     83  C        -90.4410  -30.6340  -26.7360 C.2   108  GLU108      0.2616
     84  O        -90.1580  -30.6050  -25.5350 O.2   108  GLU108     -0.2715
     85  CB       -92.2220  -32.3560  -27.2130 C.3   108  GLU108      0.0429
     86  CG       -92.6300  -32.5930  -25.7540 C.3   108  GLU108      0.1163
     87  CD       -94.1330  -32.7290  -25.5430 C.2   108  GLU108      0.3649
     88  OE1      -94.9220  -32.2520  -26.3840 O.co2 108  GLU108     -0.2457
     89  OE2      -94.5280  -33.3040  -24.5080 O.co2 108  GLU108     -0.2457
     90  N        -90.4720  -29.5360  -27.4870 N.am  109  MET109     -0.1963
     91  CA       -90.2770  -28.2120  -26.8920 C.3   109  MET109      0.1736
     92  C        -91.5620  -27.7830  -26.1820 C.2   109  MET109      0.2616
     93  O        -92.6530  -27.9130  -26.7310 O.2   109  MET109     -0.2715
     94  CB       -89.8960  -27.1780  -27.9580 C.3   109  MET109      0.0427
     95  CG       -89.6270  -25.7750  -27.4170 C.3   109  MET109      0.0599
     96  SD       -87.9390  -25.5390  -26.8230 S.3   109  MET109     -0.1393
     97  CE       -88.1950  -24.4350  -25.4320 C.3   109  MET109      0.0692
     98  N        -91.4190  -27.2730  -24.9620 N.am  110  LEU110     -0.1963
     99  CA       -92.5450  -26.7680  -24.1820 C.3   110  LEU110      0.1728
    100  C        -92.2690  -25.3070  -23.8010 C.2   110  LEU110      0.2616
    101  O        -91.2320  -24.7420  -24.1790 O.2   110  LEU110     -0.2715
    102  CB       -92.7450  -27.6280  -22.9290 C.3   110  LEU110      0.0311
    103  CG       -92.7730  -29.1530  -23.1120 C.3   110  LEU110      0.0022
    104  CD1      -92.5220  -29.8570  -21.7890 C.3   110  LEU110      0.0001
    105  CD2      -94.0900  -29.6130  -23.7140 C.3   110  LEU110      0.0001
    106  N        -93.1860  -24.7040  -23.0460 N.am  111  SER111     -0.1950
    107  CA       -93.0580  -23.3040  -22.6420 C.3   111  SER111      0.1924
    108  C        -92.5690  -23.1640  -21.1870 C.2   111  SER111      0.2314
    109  O        -91.8240  -24.0180  -20.6960 O.2   111  SER111     -0.2863
    110  CB       -94.3890  -22.5900  -22.8510 C.3   111  SER111      0.2116
    111  OG       -94.1950  -21.1920  -22.8790 O.3   111  SER111     -0.2180
    112  N        -91.9680  -22.9550  -17.0980 N.3   113  ASN113     -0.1240
    113  CA       -92.2550  -23.7870  -15.9420 C.3   113  ASN113      0.1653
    114  C        -92.9220  -22.9320  -14.8890 C.2   113  ASN113      0.2266
    115  O        -92.7220  -21.7150  -14.8240 O.2   113  ASN113     -0.2867
    116  CB       -91.0110  -24.5030  -15.3930 C.3   113  ASN113      0.1155
    117  CG       -90.0240  -23.5680  -14.7280 C.2   113  ASN113      0.2627
    118  OD1      -90.4020  -22.7120  -13.9240 O.2   113  ASN113     -0.2716
    119  ND2      -88.7430  -23.7500  -15.0400 N.am  113  ASN113     -0.0877
    120  N        -91.1360  -20.0150  -13.2670 N.3   116  ASP116     -0.1239
    121  CA       -90.9690  -18.8820  -14.1670 C.3   116  ASP116      0.1674
    122  C        -92.3020  -18.1430  -14.2540 C.2   116  ASP116      0.2266
    123  O        -92.3430  -16.9140  -14.2490 O.2   116  ASP116     -0.2867
    124  CB       -90.5100  -19.3230  -15.5660 C.3   116  ASP116      0.1410
    125  CG       -89.0660  -19.8420  -15.5990 C.2   116  ASP116      0.3668
    126  OD1      -88.3750  -19.7980  -14.5510 O.co2 116  ASP116     -0.2456
    127  OD2      -88.6390  -20.2910  -16.6990 O.co2 116  ASP116     -0.2456
    128  N        -90.5080  -26.0880  -10.9260 N.3   160  GLU160     -0.1231
    129  CA       -89.5720  -26.0970  -12.0370 C.3   160  GLU160      0.1699
    130  C        -89.7860  -27.2820  -12.9680 C.2   160  GLU160      0.2592
    131  O        -89.4710  -27.1990  -14.1530 O.2   160  GLU160     -0.2718
    132  CB       -88.1310  -26.0670  -11.5350 C.3   160  GLU160      0.0402
    133  CG       -87.6450  -24.6720  -11.1720 C.3   160  GLU160      0.1161
    134  CD       -88.1000  -24.1950   -9.8000 C.2   160  GLU160      0.3649
    135  OE1      -88.8240  -24.9190   -9.0730 O.co2 160  GLU160     -0.2457
    136  OE2      -87.7140  -23.0640   -9.4480 O.co2 160  GLU160     -0.2457
    137  N        -90.3240  -28.3750  -12.4320 N.am  161  ASN161     -0.1974
    138  CA       -90.5620  -29.5870  -13.2160 C.3   161  ASN161      0.1688
    139  C        -91.9800  -29.7390  -13.7770 C.2   161  ASN161      0.2292
    140  O        -92.3190  -30.7670  -14.3700 O.2   161  ASN161     -0.2864
    141  CB       -90.1860  -30.8100  -12.3870 C.3   161  ASN161      0.1181
    142  CG       -88.7050  -30.8780  -12.1200 C.2   161  ASN161      0.2629
    143  OD1      -87.9190  -30.2200  -12.7950 O.2   161  ASN161     -0.2716
    144  ND2      -88.3130  -31.6680  -11.1330 N.am  161  ASN161     -0.0877
    145  N        -94.1700  -27.9310  -16.5560 N.3   163  LEU163     -0.1245
    146  CA       -94.0660  -26.9550  -17.6210 C.3   163  LEU163      0.1561
    147  C        -95.3570  -26.7710  -18.4000 C.2   163  LEU163      0.2260
    148  O        -96.0950  -27.7230  -18.6300 O.2   163  LEU163     -0.2867
    149  CB       -92.9570  -27.3550  -18.5810 C.3   163  LEU163      0.0270
    150  CG       -91.5400  -27.0070  -18.1230 C.3   163  LEU163      0.0019
    151  CD1      -91.1110  -27.9050  -16.9720 C.3   163  LEU163      0.0001
    152  CD2      -90.5700  -27.1080  -19.2900 C.3   163  LEU163      0.0001
    153  N        -91.9560  -33.0060  -16.0820 N.3   174  VAL174     -0.1231
    154  CA       -90.6310  -33.3110  -16.6400 C.3   174  VAL174      0.1692
    155  C        -89.6390  -33.7540  -15.5730 C.2   174  VAL174      0.2592
    156  O        -89.9200  -33.6780  -14.3730 O.2   174  VAL174     -0.2718
    157  CB       -90.0300  -32.1010  -17.3810 C.3   174  VAL174      0.0266
    158  CG1      -90.7880  -31.8240  -18.6630 C.3   174  VAL174      0.0020
    159  CG2      -90.0230  -30.8790  -16.4810 C.3   174  VAL174      0.0020
    160  N        -88.4800  -34.2210  -16.0380 N.am  175  ASP175     -0.1974
    161  CA       -87.3420  -34.5750  -15.1810 C.3   175  ASP175      0.1709
    162  C        -87.7040  -35.7880  -14.3330 C.2   175  ASP175      0.2293
    163  O        -88.2890  -35.6660  -13.2560 O.2   175  ASP175     -0.2864
    164  CB       -86.9000  -33.3790  -14.3050 C.3   175  ASP175      0.1436
    165  CG       -85.4080  -33.4100  -13.9500 C.2   175  ASP175      0.3671
    166  OD1      -84.7840  -34.4870  -14.0550 O.co2 175  ASP175     -0.2456
    167  OD2      -84.8590  -32.3450  -13.5740 O.co2 175  ASP175     -0.2456
@<TRIPOS>BOND
     1    94    95    1
     2    94    91    1
     3    90    91    1
     4    90    83   am
     5    73    72    2
     6    82    85    1
     7    82    81    1
     8    82    83    1
     9    95    96    1
    10    40    41    1
    11    85    86    1
    12    91    92    1
    13    81    72   am
    14    96    97    1
    15    72    71    1
    16    83    84    2
    17    93    92    2
    18    88    87   ar
    19    70    71    1
    20    92    98   am
    21    41    42    1
    22    41    44    1
    23    71    74    1
    24    42    43    2
    25    86    87    1
    26    87    89   ar
    27    98    99    1
    28    74    75    1
    29    99   100    1
    30    99   102    1
    31   101   100    2
    32   100   106   am
    33   105   103    1
    34     7     5    1
    35    45    46    1
    36    75    76   ar
    37    75    77   ar
    38   103   102    1
    39   103   104    1
    40   106   107    1
    41    76    78   ar
    42   111   110    1
    43    77    79   ar
    44   110   107    1
    45     8     6    1
    46   107   108    1
    47    65    66    2
    48    65    64    1
    49    48    47    2
    50    69    67    1
    51    35    36    2
    52    35    34    1
    53    47    46    1
    54     5     6    1
    55     5     2    1
    56    46    49    1
    57     1     2    1
    58    38    37    1
    59    78    80   ar
    60    79    80   ar
    61    64    67    1
    62    64    63    1
    63     2     3    1
    64    34    37    1
    65    34    33    1
    66    49    50    1
    67   108   109    2
    68    67    68    1
    69    37    39    1
    70     3     9    1
    71     3     4    2
    72    50    51    1
    73     9    10    2
    74   152   150    1
    75    51    52    1
    76   158   157    1
    77   148   147    2
    78   149   150    1
    79   149   146    1
    80   147   146    1
    81    12    11    2
    82    57    56    2
    83   150   151    1
    84    56    55    1
    85    10    11    1
    86    62    60   ar
    87    11    13   am
    88   146   145    1
    89    52    53    1
    90   157   154    1
    91   157   159    1
    92    21    20    1
    93    60    59    1
    94    60    61   ar
    95   112   113    1
    96    30    28   ar
    97    30    32   ar
    98    59    58    1
    99    58    55    1
   100    55    54    1
   101   127   125   ar
   102   154   153    1
   103   154   155    1
   104    28    27   ar
   105    13    14    1
   106    20    19    1
   107    32    31   ar
   108   160   155   am
   109   160   161    1
   110    18    19    1
   111    18    17    1
   112   113   116    1
   113   113   114    1
   114    25    24    2
   115    14    17    1
   116    14    15    1
   117   125   124    1
   118   125   126   ar
   119   155   156    2
   120   124   121    1
   121   116   117    1
   122   161   162    1
   123   161   164    1
   124    27    26    1
   125    27    29   ar
   126    24    23    1
   127   119   117   am
   128   114   115    2
   129    31    29   ar
   130   117   118    2
   131    15    16    2
   132    26    23    1
   133   140   139    2
   134   162   163    2
   135   164   165    1
   136   122   123    2
   137   122   121    1
   138   121   120    1
   139   131   130    2
   140   166   165   ar
   141    23    22    1
   142   165   167   ar
   143   139   138    1
   144   138   137    1
   145   138   141    1
   146   130   137   am
   147   130   129    1
   148   143   142    2
   149   141   142    1
   150   142   144   am
   151   129   132    1
   152   129   128    1
   153   132   133    1
   154   133   134    1
   155   134   136   ar
   156   134   135   ar
