@<TRIPOS>MOLECULE
tmp/4azgA00.pdb
 152 148 0 0 0
SMALL
GASTEIGER

@<TRIPOS>ATOM
      1  N         14.2210   41.3210   47.6050 N.3    20  ARG20      -0.1245
      2  CA        15.3350   41.9650   46.9050 C.3    20  ARG20       0.1563
      3  C         15.0730   42.1330   45.3970 C.2    20  ARG20       0.2260
      4  O         15.5560   43.1020   44.7720 O.2    20  ARG20      -0.2867
      5  CB        16.6490   41.1920   47.1270 C.3    20  ARG20       0.0307
      6  CG        17.2120   41.3150   48.5360 C.3    20  ARG20       0.0489
      7  CD        18.5670   40.6260   48.6530 C.3    20  ARG20       0.2205
      8  NE        19.2260   40.7720   49.9680 N.pl3  20  ARG20      -0.0865
      9  CZ        19.3050   39.8040   50.8920 C.cat  20  ARG20       0.5346
     10  NH1       18.7330   38.6220   50.6870 N.pl3  20  ARG20       0.1354
     11  NH2       19.9550   40.0160   52.0240 N.pl3  20  ARG20       0.1354
     12  N         12.0940   42.2640   51.9550 N.3    49  ASN49      -0.1240
     13  CA        13.4340   41.8500   52.3350 C.3    49  ASN49       0.1653
     14  C         14.3510   42.8050   51.5630 C.2    49  ASN49       0.2266
     15  O         14.5780   42.6030   50.3630 O.2    49  ASN49      -0.2867
     16  CB        13.6810   40.3870   51.9310 C.3    49  ASN49       0.1155
     17  CG        14.8950   39.7770   52.6240 C.2    49  ASN49       0.2627
     18  OD1       15.0600   39.9040   53.8600 O.2    49  ASN49      -0.2716
     19  ND2       15.7500   39.0880   51.8440 N.am   49  ASN49      -0.0877
     20  N         16.9890   44.4360   57.1880 N.3   121  HIS121     -0.1241
     21  CA        16.5890   44.2310   55.7860 C.3   121  HIS121      0.1621
     22  C         15.3750   45.0450   55.4270 C.2   121  HIS121      0.2264
     23  O         14.3850   44.5050   54.9180 O.2   121  HIS121     -0.2867
     24  CB        16.3200   42.7430   55.5210 C.3   121  HIS121      0.0745
     25  CG        17.5220   41.8500   55.7650 C.ar  121  HIS121      0.0817
     26  ND1       18.4990   41.6640   54.8380 N.ar  121  HIS121     -0.2268
     27  CD2       17.8900   41.1020   56.8770 C.ar  121  HIS121      0.1154
     28  CE1       19.4250   40.8400   55.3360 C.ar  121  HIS121      0.1986
     29  NE2       19.0530   40.5030   56.5900 N.ar  121  HIS121     -0.2212
     30  N         16.2440   38.8800   61.2400 N.3   183  ASP183     -0.1225
     31  CA        17.6330   38.4740   61.0070 C.3   183  ASP183      0.1805
     32  C         18.5910   39.6740   60.8030 C.2   183  ASP183      0.2597
     33  O         18.1760   40.7330   60.3320 O.2   183  ASP183     -0.2718
     34  CB        17.7330   37.4980   59.8230 C.3   183  ASP183      0.1424
     35  CG        17.2860   38.1170   58.5050 C.2   183  ASP183      0.3668
     36  OD1       16.2070   38.7760   58.4860 O.co2 183  ASP183     -0.2456
     37  OD2       18.0100   37.9260   57.4870 O.co2 183  ASP183     -0.2456
     38  N         19.8550   39.4870   61.1950 N.am  184  GLU184     -0.1979
     39  CA        20.9710   40.3970   60.8640 C.3   184  GLU184      0.1602
     40  C         20.7440   41.8730   61.1630 C.2   184  GLU184      0.2287
     41  O         20.8660   42.7160   60.2630 O.2   184  GLU184     -0.2864
     42  CB        21.3490   40.2370   59.3910 C.3   184  GLU184      0.0415
     43  CG        21.5750   38.7960   59.0140 C.3   184  GLU184      0.1163
     44  CD        22.0670   38.6380   57.5960 C.2   184  GLU184      0.3649
     45  OE1       21.2990   38.9500   56.6560 O.co2 184  GLU184     -0.2457
     46  OE2       23.2210   38.1790   57.4380 O.co2 184  GLU184     -0.2457
     47  N         23.6490   44.6430   60.2100 N.3   187  ASN187     -0.1240
     48  CA        24.8830   44.0400   59.6890 C.3   187  ASN187      0.1653
     49  C         25.8160   45.0270   58.9420 C.2   187  ASN187      0.2266
     50  O         27.0410   45.0380   59.1600 O.2   187  ASN187     -0.2867
     51  CB        24.5870   42.7780   58.8680 C.3   187  ASN187      0.1155
     52  CG        23.6440   43.0280   57.6740 C.2   187  ASN187      0.2627
     53  OD1       22.9810   44.0960   57.5460 O.2   187  ASN187     -0.2716
     54  ND2       23.5660   42.0270   56.7950 N.am  187  ASN187     -0.0877
     55  N         28.5110   43.1890   60.7000 N.3   192  ALA192     -0.1245
     56  CA        27.7860   41.9590   61.0150 C.3   192  ALA192      0.1562
     57  C         28.0200   41.5110   62.4610 C.2   192  ALA192      0.2260
     58  O         28.3030   40.3450   62.7430 O.2   192  ALA192     -0.2867
     59  CB        28.1560   40.8600   60.0160 C.3   192  ALA192      0.0290
     60  N         13.2230   34.4480   62.0040 N.3   228  PHE228     -0.1241
     61  CA        14.5750   33.8510   61.9840 C.3   228  PHE228      0.1605
     62  C         15.1510   33.7850   63.4120 C.2   228  PHE228      0.2264
     63  O         14.8180   34.6050   64.2740 O.2   228  PHE228     -0.2867
     64  CB        15.4970   34.6090   61.0230 C.3   228  PHE228      0.0534
     65  CG        15.0060   34.5900   59.5870 C.ar  228  PHE228     -0.0203
     66  CD1       14.8990   33.3710   58.8850 C.ar  228  PHE228     -0.0042
     67  CD2       14.6290   35.7630   58.9460 C.ar  228  PHE228     -0.0042
     68  CE1       14.4280   33.3290   57.5850 C.ar  228  PHE228     -0.0003
     69  CE2       14.1520   35.7280   57.6410 C.ar  228  PHE228     -0.0003
     70  CZ        14.0500   34.5090   56.9590 C.ar  228  PHE228     -0.0000
     71  N         18.3650   28.8320   60.7480 N.3   251  TRP251     -0.1241
     72  CA        19.2090   28.6810   59.5530 C.3   251  TRP251      0.1605
     73  C         20.6880   28.4590   59.8390 C.2   251  TRP251      0.2264
     74  O         21.4110   27.8840   59.0130 O.2   251  TRP251     -0.2867
     75  CB        18.9630   29.8390   58.5840 C.3   251  TRP251      0.0550
     76  CG        19.4410   31.1450   59.1160 C.ar  251  TRP251      0.0003
     77  CD1       18.8090   31.9730   60.0380 C.ar  251  TRP251      0.0946
     78  CD2       20.6980   31.8150   58.7960 C.ar  251  TRP251      0.0152
     79  NE1       19.5750   33.0710   60.3040 N.ar  251  TRP251     -0.2442
     80  CE2       20.7220   33.0370   59.5980 C.ar  251  TRP251      0.0810
     81  CE3       21.7680   31.5310   57.9600 C.ar  251  TRP251      0.0012
     82  CZ2       21.7830   33.9360   59.5430 C.ar  251  TRP251      0.0191
     83  CZ3       22.8340   32.4330   57.9160 C.ar  251  TRP251      0.0001
     84  CH2       22.8350   33.6160   58.6890 C.ar  251  TRP251      0.0015
     85  N         28.7250   32.8250   63.1980 N.3   255  TRP255     -0.1241
     86  CA        30.1350   32.7510   62.8460 C.3   255  TRP255      0.1605
     87  C         30.9380   33.3990   63.9210 C.2   255  TRP255      0.2264
     88  O         30.3730   33.8670   64.9080 O.2   255  TRP255     -0.2867
     89  CB        30.3420   33.5080   61.5450 C.3   255  TRP255      0.0550
     90  CG        29.2200   33.2990   60.5570 C.ar  255  TRP255      0.0003
     91  CD1       28.0000   33.9660   60.4990 C.ar  255  TRP255      0.0946
     92  CD2       29.1800   32.3290   59.4430 C.ar  255  TRP255      0.0152
     93  NE1       27.2340   33.4960   59.4600 N.ar  255  TRP255     -0.2442
     94  CE2       27.8840   32.5130   58.7860 C.ar  255  TRP255      0.0810
     95  CE3       30.0590   31.3680   58.9460 C.ar  255  TRP255      0.0012
     96  CZ2       27.5050   31.7520   57.6900 C.ar  255  TRP255      0.0191
     97  CZ3       29.6650   30.6110   57.8350 C.ar  255  TRP255      0.0001
     98  CH2       28.4210   30.7990   57.2260 C.ar  255  TRP255      0.0015
     99  N         29.4280   36.1800   65.9890 N.3   258  TYR258     -0.1241
    100  CA        28.0020   36.2640   65.7090 C.3   258  TYR258      0.1605
    101  C         27.4210   35.0620   66.4510 C.2   258  TYR258      0.2264
    102  O         27.0700   34.0430   65.8450 O.2   258  TYR258     -0.2867
    103  CB        27.7490   36.2100   64.1880 C.3   258  TYR258      0.0534
    104  CG        26.3710   36.6830   63.7580 C.ar  258  TYR258     -0.0201
    105  CD1       25.9700   38.0070   63.9700 C.ar  258  TYR258     -0.0009
    106  CD2       25.4710   35.8070   63.1120 C.ar  258  TYR258     -0.0009
    107  CE1       24.7050   38.4440   63.5930 C.ar  258  TYR258      0.0417
    108  CE2       24.2100   36.2350   62.7140 C.ar  258  TYR258      0.0417
    109  CZ        23.8260   37.5530   62.9550 C.ar  258  TYR258      0.1957
    110  OH        22.5730   37.9970   62.5760 O.3   258  TYR258     -0.2866
    111  N         20.9450   26.6800   51.1460 N.3   281  TYR281     -0.1241
    112  CA        20.8950   27.9960   50.4860 C.3   281  TYR281      0.1605
    113  C         21.4280   27.9960   49.0420 C.2   281  TYR281      0.2264
    114  O         22.4370   27.3550   48.7300 O.2   281  TYR281     -0.2867
    115  CB        21.6850   29.0230   51.2940 C.3   281  TYR281      0.0534
    116  CG        20.9620   29.6020   52.4830 C.ar  281  TYR281     -0.0201
    117  CD1       19.7920   29.0030   52.9860 C.ar  281  TYR281     -0.0009
    118  CD2       21.4610   30.7260   53.1340 C.ar  281  TYR281     -0.0009
    119  CE1       19.1340   29.5390   54.0830 C.ar  281  TYR281      0.0417
    120  CE2       20.8100   31.2700   54.2400 C.ar  281  TYR281      0.0417
    121  CZ        19.6490   30.6750   54.7040 C.ar  281  TYR281      0.1957
    122  OH        18.9980   31.1920   55.8000 O.3   281  TYR281     -0.2866
    123  N         22.0870   31.2450   46.2470 N.3   283  ILE283     -0.1245
    124  CA        22.0230   32.6840   45.9930 C.3   283  ILE283      0.1561
    125  C         22.1270   32.8090   44.4860 C.2   283  ILE283      0.2260
    126  O         23.0880   32.3030   43.8960 O.2   283  ILE283     -0.2867
    127  CB        23.1960   33.4350   46.6560 C.3   283  ILE283      0.0252
    128  CG1       23.0700   33.4000   48.1680 C.3   283  ILE283      0.0019
    129  CG2       23.3310   34.8800   46.1600 C.3   283  ILE283      0.0019
    130  CD1       24.2290   32.6910   48.8370 C.3   283  ILE283      0.0001
    131  N         17.8250   32.7840   47.5260 N.3   330  TRP330     -0.1241
    132  CA        18.0870   34.1830   47.8730 C.3   330  TRP330      0.1605
    133  C         18.5770   34.9840   46.6870 C.2   330  TRP330      0.2264
    134  O         19.0990   34.4330   45.7060 O.2   330  TRP330     -0.2867
    135  CB        19.1230   34.2550   48.9750 C.3   330  TRP330      0.0550
    136  CG        18.7170   33.5370   50.2370 C.ar  330  TRP330      0.0003
    137  CD1       19.1200   32.2770   50.6660 C.ar  330  TRP330      0.0946
    138  CD2       17.8160   34.0310   51.2910 C.ar  330  TRP330      0.0152
    139  NE1       18.5360   31.9520   51.8710 N.ar  330  TRP330     -0.2442
    140  CE2       17.7430   32.9690   52.3000 C.ar  330  TRP330      0.0810
    141  CE3       17.0700   35.1870   51.4740 C.ar  330  TRP330      0.0012
    142  CZ2       16.9800   33.1040   53.4550 C.ar  330  TRP330      0.0191
    143  CZ3       16.3030   35.3060   52.6310 C.ar  330  TRP330      0.0001
    144  CH2       16.2650   34.2920   53.6020 C.ar  330  TRP330      0.0015
    145  N         20.6750   37.9920   46.9620 N.3   332  ASP332     -0.1239
    146  CA        21.7050   38.9340   47.4590 C.3   332  ASP332      0.1674
    147  C         22.1600   39.9680   46.4320 C.2   332  ASP332      0.2266
    148  O         22.2680   41.1560   46.7450 O.2   332  ASP332     -0.2867
    149  CB        22.9100   38.1560   48.0110 C.3   332  ASP332      0.1410
    150  CG        22.5330   37.2860   49.1970 C.2   332  ASP332      0.3668
    151  OD1       21.3700   36.8160   49.2530 O.co2 332  ASP332     -0.2456
    152  OD2       23.3900   37.0880   50.0940 O.co2 332  ASP332     -0.2456
@<TRIPOS>BOND
     1   126   125    2
     2   125   124    1
     3     4     3    2
     4     3     2    1
     5   134   133    2
     6   124   123    1
     7   124   127    1
     8   129   127    1
     9   147   148    2
    10   147   146    1
    11   127   128    1
    12   133   132    1
    13     2     5    1
    14     2     1    1
    15   145   146    1
    16     5     6    1
    17   146   149    1
    18   131   132    1
    19   132   135    1
    20   149   150    1
    21   128   130    1
    22     6     7    1
    23     7     8    1
    24   114   113    2
    25   135   136    1
    26   113   112    1
    27   150   151   ar
    28   150   152   ar
    29     8     9    2
    30   136   137   ar
    31   136   138   ar
    32    15    14    2
    33   112   111    1
    34   112   115    1
    35   137   139   ar
    36    10     9    1
    37     9    11    1
    38   138   141   ar
    39   138   140   ar
    40   115   116    1
    41   141   143   ar
    42    14    13    1
    43    19    17   am
    44   139   140   ar
    45    16    13    1
    46    16    17    1
    47    12    13    1
    48   140   142   ar
    49   116   117   ar
    50   116   118   ar
    51    17    18    2
    52   143   144   ar
    53   117   119   ar
    54   118   120   ar
    55   142   144   ar
    56   119   121   ar
    57   120   121   ar
    58   121   122    1
    59    26    28   ar
    60    26    25   ar
    61    23    22    2
    62    28    29   ar
    63    22    21    1
    64    24    25    1
    65    24    21    1
    66    25    27   ar
    67    21    20    1
    68    29    27   ar
    69    45    44   ar
    70    54    52   am
    71    70    68   ar
    72    70    69   ar
    73    98    96   ar
    74    98    97   ar
    75    46    44   ar
    76    37    35   ar
    77    53    52    2
    78    68    66   ar
    79    44    43    1
    80    69    67   ar
    81    52    51    1
    82    96    94   ar
    83    97    95   ar
    84    83    81   ar
    85    83    84   ar
    86    81    78   ar
    87    36    35   ar
    88    35    34    1
    89    75    76    1
    90    75    72    1
    91    84    82   ar
    92    94    92   ar
    93    94    93   ar
    94    78    76   ar
    95    78    80   ar
    96    51    48    1
    97    66    65   ar
    98    49    50    2
    99    49    48    1
   100    95    92   ar
   101    67    65   ar
   102    74    73    2
   103    43    42    1
   104    76    77   ar
   105    42    39    1
   106    92    90   ar
   107    93    91   ar
   108    82    80   ar
   109    72    73    1
   110    72    71    1
   111    65    64    1
   112    80    79   ar
   113    48    47    1
   114    34    31    1
   115    59    56    1
   116    77    79   ar
   117    41    40    2
   118    33    32    2
   119    91    90   ar
   120    90    89    1
   121    55    56    1
   122    32    31    1
   123    32    38   am
   124    39    40    1
   125    39    38    1
   126    31    30    1
   127    56    57    1
   128    64    61    1
   129    89    86    1
   130    61    60    1
   131    61    62    1
   132    57    58    2
   133   110   109    1
   134   108   109   ar
   135   108   106   ar
   136    86    85    1
   137    86    87    1
   138   109   107   ar
   139   106   104   ar
   140    62    63    2
   141   107   105   ar
   142   104   105   ar
   143   104   103    1
   144    87    88    2
   145   103   100    1
   146   100    99    1
   147   100   101    1
   148   102   101    2
