@<TRIPOS>MOLECULE
tmp/4azhA00.pdb
 127 125 0 0 0
SMALL
GASTEIGER

@<TRIPOS>ATOM
      1  N        -25.6330  -17.5190  -48.2300 N.3    19  ARG19      -0.1245
      2  CA       -26.7350  -16.8230  -47.5990 C.3    19  ARG19       0.1563
      3  C        -26.4330  -16.6270  -46.1040 C.2    19  ARG19       0.2260
      4  O        -26.7760  -15.5840  -45.5270 O.2    19  ARG19      -0.2867
      5  CB       -28.0720  -17.5560  -47.8030 C.3    19  ARG19       0.0307
      6  CG       -28.5840  -17.6280  -49.2400 C.3    19  ARG19       0.0489
      7  CD       -29.9700  -18.2810  -49.2930 C.3    19  ARG19       0.2205
      8  NE       -30.6390  -18.2340  -50.6100 N.pl3  19  ARG19      -0.0865
      9  CZ       -30.6710  -19.2470  -51.4700 C.cat  19  ARG19       0.5346
     10  NH1      -30.0090  -20.3850  -51.2010 N.pl3  19  ARG19       0.1354
     11  NH2      -31.3350  -19.1230  -52.6130 N.pl3  19  ARG19       0.1354
     12  N        -23.4280  -16.5070  -52.7520 N.3    48  ASN48      -0.1240
     13  CA       -24.7700  -16.9550  -53.0500 C.3    48  ASN48       0.1653
     14  C        -25.7100  -16.0450  -52.2520 C.2    48  ASN48       0.2266
     15  O        -25.8490  -16.2210  -51.0210 O.2    48  ASN48      -0.2867
     16  CB       -24.9170  -18.4300  -52.6560 C.3    48  ASN48       0.1155
     17  CG       -26.2230  -19.0350  -53.1210 C.2    48  ASN48       0.2627
     18  OD1      -26.9730  -19.6040  -52.3180 O.2    48  ASN48      -0.2716
     19  ND2      -26.4970  -18.9470  -54.4340 N.am   48  ASN48      -0.0877
     20  N        -28.5210  -14.6430  -57.8160 N.3   120  HIS120     -0.1241
     21  CA       -28.0560  -14.8350  -56.4340 C.3   120  HIS120      0.1621
     22  C        -26.8490  -13.9950  -56.0440 C.2   120  HIS120      0.2264
     23  O        -25.8780  -14.5130  -55.4650 O.2   120  HIS120     -0.2867
     24  CB       -27.8130  -16.3180  -56.1570 C.3   120  HIS120      0.0745
     25  CG       -29.0820  -17.1390  -56.0930 C.ar  120  HIS120      0.0817
     26  ND1      -29.5470  -17.8460  -57.1540 N.ar  120  HIS120     -0.2268
     27  CD2      -30.0050  -17.3220  -55.0570 C.ar  120  HIS120      0.1154
     28  CE1      -30.6770  -18.4750  -56.8050 C.ar  120  HIS120      0.1986
     29  NE2      -30.9660  -18.1490  -55.5180 N.ar  120  HIS120     -0.2212
     30  N        -27.6890  -20.0440  -61.7660 N.3   182  ASP182     -0.1225
     31  CA       -29.1080  -20.3120  -61.5250 C.3   182  ASP182      0.1805
     32  C        -29.9740  -19.0370  -61.2830 C.2   182  ASP182      0.2597
     33  O        -29.4950  -18.0240  -60.7840 O.2   182  ASP182     -0.2718
     34  CB       -29.2900  -21.3250  -60.3730 C.3   182  ASP182      0.1424
     35  CG       -28.7300  -20.8370  -59.0330 C.2   182  ASP182      0.3668
     36  OD1      -27.6030  -20.2820  -58.9840 O.co2 182  ASP182     -0.2456
     37  OD2      -29.4270  -21.0210  -57.9980 O.co2 182  ASP182     -0.2456
     38  N        -31.2530  -19.1400  -61.6450 N.am  183  GLU183     -0.1979
     39  CA       -32.2990  -18.1580  -61.3250 C.3   183  GLU183      0.1602
     40  C        -32.0260  -16.7320  -61.8610 C.2   183  GLU183      0.2287
     41  O        -31.5630  -15.8480  -61.1180 O.2   183  GLU183     -0.2864
     42  CB       -32.6090  -18.1660  -59.8050 C.3   183  GLU183      0.0415
     43  CG       -33.0730  -19.5320  -59.2490 C.3   183  GLU183      0.1163
     44  CD       -33.5290  -19.5200  -57.7730 C.2   183  GLU183      0.3649
     45  OE1      -34.4340  -18.7230  -57.4260 O.co2 183  GLU183     -0.2457
     46  OE2      -33.0030  -20.3160  -56.9740 O.co2 183  GLU183     -0.2457
     47  N        -24.8640  -24.6150  -62.5850 N.3   227  PHE227     -0.1241
     48  CA       -26.0990  -25.3570  -62.4800 C.3   227  PHE227      0.1605
     49  C        -26.7370  -25.4410  -63.8440 C.2   227  PHE227      0.2264
     50  O        -26.3580  -24.7080  -64.7770 O.2   227  PHE227     -0.2867
     51  CB       -27.0690  -24.7540  -61.5010 C.3   227  PHE227      0.0534
     52  CG       -26.5430  -24.6490  -60.1040 C.ar  227  PHE227     -0.0203
     53  CD1      -26.3300  -25.7860  -59.3260 C.ar  227  PHE227     -0.0042
     54  CD2      -26.2930  -23.4060  -59.5430 C.ar  227  PHE227     -0.0042
     55  CE1      -25.8700  -25.6790  -58.0020 C.ar  227  PHE227     -0.0003
     56  CE2      -25.8340  -23.2980  -58.2210 C.ar  227  PHE227     -0.0003
     57  CZ       -25.6010  -24.4330  -57.4640 C.ar  227  PHE227     -0.0000
     58  N        -30.1140  -30.3900  -60.8860 N.3   250  TRP250     -0.1241
     59  CA       -30.9480  -30.5470  -59.7020 C.3   250  TRP250      0.1605
     60  C        -32.4420  -30.7520  -59.9490 C.2   250  TRP250      0.2264
     61  O        -33.1480  -31.2510  -59.0490 O.2   250  TRP250     -0.2867
     62  CB       -30.6860  -29.4050  -58.7220 C.3   250  TRP250      0.0550
     63  CG       -31.2620  -28.1260  -59.2290 C.ar  250  TRP250      0.0003
     64  CD1      -30.6740  -27.2120  -60.0900 C.ar  250  TRP250      0.0946
     65  CD2      -32.6100  -27.6130  -58.9650 C.ar  250  TRP250      0.0152
     66  NE1      -31.5460  -26.1870  -60.3730 N.ar  250  TRP250     -0.2442
     67  CE2      -32.7270  -26.3680  -59.7200 C.ar  250  TRP250      0.0810
     68  CE3      -33.6980  -28.0520  -58.1990 C.ar  250  TRP250      0.0012
     69  CZ2      -33.8890  -25.5990  -59.7010 C.ar  250  TRP250      0.0191
     70  CZ3      -34.8610  -27.2630  -58.1860 C.ar  250  TRP250      0.0001
     71  CH2      -34.9480  -26.0620  -58.9210 C.ar  250  TRP250      0.0015
     72  N        -40.5820  -26.8700  -63.4840 N.3   254  TRP254     -0.1241
     73  CA       -41.9870  -27.1550  -63.2110 C.3   254  TRP254      0.1605
     74  C        -42.7490  -26.4790  -64.3190 C.2   254  TRP254      0.2264
     75  O        -42.1390  -25.9950  -65.2580 O.2   254  TRP254     -0.2867
     76  CB       -42.3650  -26.6130  -61.8370 C.3   254  TRP254      0.0550
     77  CG       -41.8600  -25.2040  -61.6210 C.ar  254  TRP254      0.0003
     78  CD1      -42.4870  -23.9960  -61.9730 C.ar  254  TRP254      0.0946
     79  CD2      -40.5900  -24.8050  -61.0070 C.ar  254  TRP254      0.0152
     80  NE1      -41.7150  -22.9210  -61.6310 N.ar  254  TRP254     -0.2442
     81  CE2      -40.5620  -23.3360  -61.0370 C.ar  254  TRP254      0.0810
     82  CE3      -39.5150  -25.4940  -60.4440 C.ar  254  TRP254      0.0012
     83  CZ2      -39.4880  -22.6120  -60.5290 C.ar  254  TRP254      0.0191
     84  CZ3      -38.4350  -24.7510  -59.9470 C.ar  254  TRP254      0.0001
     85  CH2      -38.4280  -23.3410  -59.9890 C.ar  254  TRP254      0.0015
     86  N        -32.4900  -32.1330  -51.2050 N.3   280  TYR280     -0.1241
     87  CA       -32.3010  -30.7830  -50.6500 C.3   280  TYR280      0.1605
     88  C        -32.8490  -30.6940  -49.1980 C.2   280  TYR280      0.2264
     89  O        -33.9530  -31.1610  -48.8990 O.2   280  TYR280     -0.2867
     90  CB       -33.0720  -29.7770  -51.4950 C.3   280  TYR280      0.0534
     91  CG       -32.3830  -29.2560  -52.7260 C.ar  280  TYR280     -0.0201
     92  CD1      -31.1970  -29.8330  -53.1990 C.ar  280  TYR280     -0.0009
     93  CD2      -32.9440  -28.2130  -53.4500 C.ar  280  TYR280     -0.0009
     94  CE1      -30.5680  -29.3600  -54.3440 C.ar  280  TYR280      0.0417
     95  CE2      -32.3210  -27.7180  -54.5840 C.ar  280  TYR280      0.0417
     96  CZ       -31.1260  -28.2900  -55.0350 C.ar  280  TYR280      0.1957
     97  OH       -30.4840  -27.8000  -56.1640 O.3   280  TYR280     -0.2866
     98  N        -33.4370  -27.4410  -46.5770 N.3   282  ILE282     -0.1245
     99  CA       -33.3720  -26.0210  -46.3140 C.3   282  ILE282      0.1561
    100  C        -33.4390  -25.8740  -44.7800 C.2   282  ILE282      0.2260
    101  O        -34.3760  -26.3500  -44.1550 O.2   282  ILE282     -0.2867
    102  CB       -34.5560  -25.3340  -46.9890 C.3   282  ILE282      0.0252
    103  CG1      -34.4170  -25.4440  -48.5200 C.3   282  ILE282      0.0019
    104  CG2      -34.6720  -23.9060  -46.5330 C.3   282  ILE282      0.0019
    105  CD1      -35.7330  -25.2410  -49.2480 C.3   282  ILE282      0.0001
    106  N        -29.2610  -25.9270  -47.8890 N.3   329  TRP329     -0.1241
    107  CA       -29.4830  -24.5600  -48.2910 C.3   329  TRP329      0.1605
    108  C        -29.9630  -23.7570  -47.1240 C.2   329  TRP329      0.2264
    109  O        -30.5220  -24.3080  -46.1810 O.2   329  TRP329     -0.2867
    110  CB       -30.5180  -24.5130  -49.3830 C.3   329  TRP329      0.0550
    111  CG       -30.1100  -25.2510  -50.6270 C.ar  329  TRP329      0.0003
    112  CD1      -30.5300  -26.5200  -51.0440 C.ar  329  TRP329      0.0946
    113  CD2      -29.2030  -24.7780  -51.6900 C.ar  329  TRP329      0.0152
    114  NE1      -29.9580  -26.8450  -52.2500 N.ar  329  TRP329     -0.2442
    115  CE2      -29.1470  -25.8480  -52.6850 C.ar  329  TRP329      0.0810
    116  CE3      -28.4460  -23.6360  -51.8880 C.ar  329  TRP329      0.0012
    117  CZ2      -28.3670  -25.7490  -53.8190 C.ar  329  TRP329      0.0191
    118  CZ3      -27.6720  -23.5420  -53.0390 C.ar  329  TRP329      0.0001
    119  CH2      -27.6270  -24.5830  -53.9830 C.ar  329  TRP329      0.0015
    120  N        -32.1600  -20.7630  -47.2120 N.3   331  ASP331     -0.1239
    121  CA       -33.0850  -19.7810  -47.8630 C.3   331  ASP331      0.1674
    122  C        -33.5760  -18.7340  -46.8690 C.2   331  ASP331      0.2266
    123  O        -33.7870  -17.5690  -47.2250 O.2   331  ASP331     -0.2867
    124  CB       -34.2820  -20.4800  -48.4990 C.3   331  ASP331      0.1410
    125  CG       -33.8790  -21.3980  -49.6490 C.2   331  ASP331      0.3668
    126  OD1      -32.7550  -21.9460  -49.6190 O.co2 331  ASP331     -0.2456
    127  OD2      -34.6950  -21.5580  -50.5950 O.co2 331  ASP331     -0.2456
@<TRIPOS>BOND
     1    75    74    2
     2    50    49    2
     3    74    73    1
     4    49    48    1
     5    72    73    1
     6    73    76    1
     7    47    48    1
     8    48    51    1
     9    78    80   ar
    10    78    77   ar
    11    40    39    1
    12    40    41    2
    13    76    77    1
    14    30    31    1
    15    38    39    1
    16    38    32   am
    17    80    81   ar
    18    77    79   ar
    19    31    32    1
    20    31    34    1
    21    51    52    1
    22    39    42    1
    23    32    33    2
    24    81    79   ar
    25    81    83   ar
    26    79    82   ar
    27    58    59    1
    28    83    85   ar
    29    82    84   ar
    30    66    64   ar
    31    66    67   ar
    32    34    35    1
    33    52    54   ar
    34    52    53   ar
    35    64    63   ar
    36    85    84   ar
    37    60    59    1
    38    60    61    2
    39    42    43    1
    40    67    69   ar
    41    67    65   ar
    42    59    62    1
    43    69    71   ar
    44    54    56   ar
    45    53    55   ar
    46    43    44    1
    47    63    65   ar
    48    63    62    1
    49    35    36   ar
    50    35    37   ar
    51    65    68   ar
    52    71    70   ar
    53    56    57   ar
    54    68    70   ar
    55    55    57   ar
    56    20    21    1
    57    44    45   ar
    58    44    46   ar
    59    26    28   ar
    60    26    25   ar
    61    28    29   ar
    62    21    24    1
    63    21    22    1
    64    97    96    1
    65    24    25    1
    66    25    27   ar
    67    22    23    2
    68    29    27   ar
    69    96    95   ar
    70    96    94   ar
    71    95    93   ar
    72    19    17   am
    73    94    92   ar
    74   119   117   ar
    75   119   118   ar
    76   117   115   ar
    77    93    91   ar
    78    92    91   ar
    79    17    16    1
    80    17    18    2
    81    13    12    1
    82    13    16    1
    83    13    14    1
    84   118   116   ar
    85    91    90    1
    86   115   114   ar
    87   115   113   ar
    88    11     9    1
    89    14    15    2
    90   114   112   ar
    91   116   113   ar
    92   113   111   ar
    93    90    87    1
    94     9    10    1
    95     9     8    2
    96    86    87    1
    97   112   111   ar
    98    87    88    1
    99   111   110    1
   100     8     7    1
   101   127   125   ar
   102   125   126   ar
   103   125   124    1
   104   110   107    1
   105     7     6    1
   106   105   103    1
   107     6     5    1
   108    88    89    2
   109   103   102    1
   110   124   121    1
   111   107   106    1
   112   107   108    1
   113     1     2    1
   114   121   120    1
   115   121   122    1
   116     5     2    1
   117     2     3    1
   118   123   122    2
   119   108   109    2
   120   102   104    1
   121   102    99    1
   122    98    99    1
   123    99   100    1
   124     3     4    2
   125   100   101    2
