@<TRIPOS>MOLECULE
tmp/4azjA00.pdb
 88 85 0 0 0
SMALL
GASTEIGER

@<TRIPOS>ATOM
      1  N         25.2380   35.9360   59.6790 N.3     9  ALA9       -0.1231
      2  CA        25.4870   34.7440   58.8850 C.3     9  ALA9        0.1694
      3  C         25.8490   33.5020   59.6990 C.2     9  ALA9        0.2592
      4  O         25.9910   32.4490   59.1220 O.2     9  ALA9       -0.2718
      5  CB        26.5830   35.0150   57.8910 C.3     9  ALA9        0.0304
      6  N         26.0140   33.6670   61.0020 N.am   10  GLY10      -0.1957
      7  CA        26.3750   32.5560   61.8800 C.3    10  GLY10       0.1869
      8  C         27.5430   32.9190   62.7620 C.2    10  GLY10       0.2309
      9  O         28.5830   33.2980   62.2570 O.2    10  GLY10      -0.2863
     10  N         33.3600   27.5120   50.7930 N.3   102  TRP102     -0.1241
     11  CA        33.3040   26.4060   51.7520 C.3   102  TRP102      0.1605
     12  C         33.6170   25.0800   51.0820 C.2   102  TRP102      0.2264
     13  O         34.2830   24.2380   51.7020 O.2   102  TRP102     -0.2867
     14  CB        31.9700   26.4020   52.5250 C.3   102  TRP102      0.0550
     15  CG        31.9000   27.6400   53.4170 C.ar  102  TRP102      0.0003
     16  CD1       31.0100   28.6560   53.3490 C.ar  102  TRP102      0.0946
     17  CD2       32.8260   27.9860   54.4560 C.ar  102  TRP102      0.0152
     18  NE1       31.3230   29.6150   54.2760 N.ar  102  TRP102     -0.2442
     19  CE2       32.4330   29.2230   54.9810 C.ar  102  TRP102      0.0810
     20  CE3       33.9330   27.3390   55.0090 C.ar  102  TRP102      0.0012
     21  CZ2       33.1250   29.8420   56.0270 C.ar  102  TRP102      0.0191
     22  CZ3       34.6130   27.9410   56.0410 C.ar  102  TRP102      0.0001
     23  CH2       34.2170   29.1970   56.5390 C.ar  102  TRP102      0.0015
     24  N         27.3090   29.3580   51.4600 N.3   152  THR152     -0.1203
     25  CA        26.9250   30.4720   52.3160 C.3   152  THR152      0.1994
     26  C         27.4680   31.8200   51.8740 C.2   152  THR152      0.2617
     27  O         26.8000   32.8390   52.0270 O.2   152  THR152     -0.2717
     28  CB        27.4310   30.1720   53.7420 C.3   152  THR152      0.1784
     29  OG1       27.3270   28.7680   53.9820 O.3   152  THR152     -0.2211
     30  CG2       26.6490   30.9660   54.8170 C.3   152  THR152      0.0376
     31  N         28.7030   31.8310   51.4050 N.am  153  ILE153     -0.1979
     32  CA        29.3650   33.0450   50.9800 C.3   153  ILE153      0.1595
     33  C         28.8680   33.5780   49.6400 C.2   153  ILE153      0.2287
     34  O         28.7620   34.8100   49.4880 O.2   153  ILE153     -0.2864
     35  CB        30.8860   32.8270   50.9770 C.3   153  ILE153      0.0276
     36  CG1       31.3630   32.7620   52.4270 C.3   153  ILE153      0.0022
     37  CG2       31.6190   33.9780   50.2560 C.3   153  ILE153      0.0022
     38  CD1       32.8160   32.2890   52.6130 C.3   153  ILE153      0.0001
     39  N         25.3710   26.7350   64.3340 N.3   195  GLN195     -0.1231
     40  CA        25.1310   28.1570   64.5470 C.3   195  GLN195      0.1698
     41  C         24.4770   28.8990   63.3940 C.2   195  GLN195      0.2592
     42  O         24.3250   30.1090   63.4740 O.2   195  GLN195     -0.2718
     43  CB        26.4330   28.8430   64.9220 C.3   195  GLN195      0.0381
     44  CG        27.5110   28.9170   63.8460 C.3   195  GLN195      0.0905
     45  CD        28.4250   27.7170   63.7640 C.2   195  GLN195      0.2608
     46  OE1       28.2040   26.7050   64.4020 O.2   195  GLN195     -0.2717
     47  NE2       29.4770   27.8570   62.9910 N.am  195  GLN195     -0.0878
     48  N         24.0790   28.2250   62.3310 N.am  196  LYS196     -0.1980
     49  CA        23.2200   28.9100   61.3260 C.3   196  LYS196      0.1596
     50  C         21.7510   28.6710   61.5550 C.2   196  LYS196      0.2287
     51  O         20.9720   29.6160   61.7080 O.2   196  LYS196     -0.2864
     52  CB        23.5690   28.4570   59.9240 C.3   196  LYS196      0.0298
     53  CG        24.7950   29.0470   59.3870 C.3   196  LYS196      0.0038
     54  CD        26.0270   28.3540   59.7880 C.3   196  LYS196      0.0206
     55  CE        27.1960   28.9780   59.1030 C.3   196  LYS196      0.1093
     56  NZ        28.3960   28.4230   59.7270 N.3   196  LYS196     -0.1314
     57  N         30.3750   38.5490   53.2760 N.3   327  HIS327     -0.1226
     58  CA        31.5660   37.9370   53.8510 C.3   327  HIS327      0.1752
     59  C         32.7740   38.7320   53.3820 C.2   327  HIS327      0.2595
     60  O         32.8550   39.0980   52.2010 O.2   327  HIS327     -0.2718
     61  CB        31.6550   36.4870   53.4280 C.3   327  HIS327      0.0759
     62  CG        32.7190   35.7110   54.1410 C.ar  327  HIS327      0.0818
     63  ND1       34.0160   35.6570   53.6830 N.ar  327  HIS327     -0.2268
     64  CD2       32.6820   34.9450   55.2610 C.ar  327  HIS327      0.1154
     65  CE1       34.7360   34.8870   54.4850 C.ar  327  HIS327      0.1986
     66  NE2       33.9510   34.4360   55.4490 N.ar  327  HIS327     -0.2212
     67  N         33.7140   38.9630   54.2920 N.am  328  ARG328     -0.1980
     68  CA        34.9000   39.7920   54.0070 C.3   328  ARG328      0.1597
     69  C         35.6620   39.3210   52.7800 C.2   328  ARG328      0.2287
     70  O         36.3510   40.1170   52.1410 O.2   328  ARG328     -0.2864
     71  CB        35.8400   39.7900   55.2180 C.3   328  ARG328      0.0334
     72  CG        36.3540   38.4160   55.6160 C.3   328  ARG328      0.0492
     73  CD        36.8370   38.3900   57.0640 C.3   328  ARG328      0.2205
     74  NE        37.2120   37.0390   57.4390 N.pl3 328  ARG328     -0.0865
     75  CZ        36.3440   36.0880   57.7780 C.cat 328  ARG328      0.5346
     76  NH1       35.0460   36.3390   57.8270 N.pl3 328  ARG328      0.1354
     77  NH2       36.7830   34.8810   58.0500 N.pl3 328  ARG328      0.1354
     78  N         25.1040   40.5840   52.0730 N.3   334  ARG334     -0.1245
     79  CA        24.5420   39.2640   52.2480 C.3   334  ARG334      0.1563
     80  C         23.4910   39.3500   53.3260 C.2   334  ARG334      0.2260
     81  O         23.7800   39.6610   54.4830 O.2   334  ARG334     -0.2867
     82  CB        25.6510   38.2640   52.6220 C.3   334  ARG334      0.0307
     83  CG        25.1360   36.8630   52.9020 C.3   334  ARG334      0.0489
     84  CD        26.2440   35.8250   53.1290 C.3   334  ARG334      0.2205
     85  NE        27.1320   36.1860   54.2120 N.pl3 334  ARG334     -0.0865
     86  CZ        28.0910   35.3890   54.6890 C.cat 334  ARG334      0.5346
     87  NH1       28.2350   34.1710   54.1800 N.pl3 334  ARG334      0.1354
     88  NH2       28.8880   35.8350   55.6460 N.pl3 334  ARG334      0.1354
@<TRIPOS>BOND
     1    34    33    2
     2    33    32    1
     3    37    35    1
     4    10    11    1
     5    35    32    1
     6    35    36    1
     7    32    31    1
     8    12    13    2
     9    12    11    1
    10    31    26   am
    11    24    25    1
    12    11    14    1
    13    26    27    2
    14    26    25    1
    15    78    79    1
    16    70    69    2
    17    60    59    2
    18    79    82    1
    19    79    80    1
    20    25    28    1
    21    36    38    1
    22    14    15    1
    23    82    83    1
    24    69    68    1
    25    83    84    1
    26    84    85    1
    27    57    58    1
    28    80    81    2
    29    16    15   ar
    30    16    18   ar
    31    59    58    1
    32    59    67   am
    33    15    17   ar
    34    61    58    1
    35    61    62    1
    36    63    62   ar
    37    63    65   ar
    38    28    29    1
    39    28    30    1
    40    68    67    1
    41    68    71    1
    42    62    64   ar
    43    87    86    1
    44    85    86    2
    45    18    19   ar
    46    17    19   ar
    47    17    20   ar
    48    65    66   ar
    49    86    88    1
    50    19    21   ar
    51    20    22   ar
    52    71    72    1
    53    64    66   ar
    54    72    73    1
    55    21    23   ar
    56    22    23   ar
    57    73    74    1
    58    74    75    2
    59    75    76    1
    60    75    77    1
    61     5     2    1
    62     2     1    1
    63     2     3    1
    64    55    56    1
    65    55    54    1
    66     4     3    2
    67    53    54    1
    68    53    52    1
    69     3     6   am
    70    52    49    1
    71     6     7    1
    72    49    50    1
    73    49    48    1
    74    50    51    2
    75     7     8    1
    76     9     8    2
    77    48    41   am
    78    47    45   am
    79    41    42    2
    80    41    40    1
    81    45    44    1
    82    45    46    2
    83    44    43    1
    84    39    40    1
    85    40    43    1
