@<TRIPOS>MOLECULE
tmp/4azjA01.pdb
 108 101 0 0 0
SMALL
GASTEIGER

@<TRIPOS>ATOM
      1  N         34.2100   21.5070   67.3400 N.3    74  GLY74      -0.1210
      2  CA        35.2100   21.8460   66.3320 C.3    74  GLY74       0.1956
      3  C         34.6910   22.5390   65.1070 C.2    74  GLY74       0.2612
      4  O         35.4640   22.9610   64.2670 O.2    74  GLY74      -0.2717
      5  N         33.3850   22.6530   65.0090 N.am   75  GLY75      -0.1942
      6  CA        32.7640   23.2910   63.8720 C.3    75  GLY75       0.2014
      7  C         32.7110   22.4260   62.6560 C.2    75  GLY75       0.2639
      8  O         33.2870   21.3180   62.5720 O.2    75  GLY75      -0.2714
      9  N         32.0240   22.9320   61.6340 N.am   76  ALA76      -0.1963
     10  CA        32.1150   22.2680   60.3370 C.3    76  ALA76       0.1728
     11  C         33.5650   22.1970   59.8700 C.2    76  ALA76       0.2616
     12  O         33.9660   21.2530   59.1860 O.2    76  ALA76      -0.2715
     13  CB        31.2550   23.0050   59.3340 C.3    76  ALA76       0.0334
     14  N         34.3880   23.1810   60.2210 N.am   77  SER77      -0.1950
     15  CA        35.7860   23.1670   59.7910 C.3    77  SER77       0.1924
     16  C         36.5120   21.9080   60.2300 C.2    77  SER77       0.2314
     17  O         37.3420   21.4010   59.4790 O.2    77  SER77      -0.2863
     18  CB        36.5370   24.4090   60.2740 C.3    77  SER77       0.2116
     19  OG        35.9420   25.5810   59.7190 O.3    77  SER77      -0.2180
     20  N         35.9100   19.0560   57.9350 N.3    80  PHE80      -0.1241
     21  CA        36.6300   19.0760   56.6580 C.3    80  PHE80       0.1605
     22  C         37.8130   18.1030   56.6990 C.2    80  PHE80       0.2264
     23  O         38.1720   17.5150   55.6910 O.2    80  PHE80      -0.2867
     24  CB        37.1590   20.4550   56.3350 C.3    80  PHE80       0.0534
     25  CG        36.0950   21.5280   56.0740 C.ar   80  PHE80      -0.0203
     26  CD1       34.8160   21.1940   55.7180 C.ar   80  PHE80      -0.0042
     27  CD2       36.4410   22.8490   56.1450 C.ar   80  PHE80      -0.0042
     28  CE1       33.8680   22.1670   55.4370 C.ar   80  PHE80      -0.0003
     29  CE2       35.4640   23.8430   55.8750 C.ar   80  PHE80      -0.0003
     30  CZ        34.2010   23.4650   55.5170 C.ar   80  PHE80      -0.0000
     31  N         33.3600   27.5120   50.7930 N.3   102  TRP102     -0.1241
     32  CA        33.3040   26.4060   51.7520 C.3   102  TRP102      0.1605
     33  C         33.6170   25.0800   51.0820 C.2   102  TRP102      0.2264
     34  O         34.2830   24.2380   51.7020 O.2   102  TRP102     -0.2867
     35  CB        31.9700   26.4020   52.5250 C.3   102  TRP102      0.0550
     36  CG        31.9000   27.6400   53.4170 C.ar  102  TRP102      0.0003
     37  CD1       31.0100   28.6560   53.3490 C.ar  102  TRP102      0.0946
     38  CD2       32.8260   27.9860   54.4560 C.ar  102  TRP102      0.0152
     39  NE1       31.3230   29.6150   54.2760 N.ar  102  TRP102     -0.2442
     40  CE2       32.4330   29.2230   54.9810 C.ar  102  TRP102      0.0810
     41  CE3       33.9330   27.3390   55.0090 C.ar  102  TRP102      0.0012
     42  CZ2       33.1250   29.8420   56.0270 C.ar  102  TRP102      0.0191
     43  CZ3       34.6130   27.9410   56.0410 C.ar  102  TRP102      0.0001
     44  CH2       34.2170   29.1970   56.5390 C.ar  102  TRP102      0.0015
     45  N         28.4600   20.7360   48.9560 N.3   148  THR148     -0.1218
     46  CA        28.1100   21.7850   49.9090 C.3   148  THR148      0.1862
     47  C         26.6930   22.2100   49.5360 C.2   148  THR148      0.2287
     48  O         26.4860   22.7950   48.4570 O.2   148  THR148     -0.2866
     49  CB        29.0550   22.9680   49.8120 C.3   148  THR148      0.1770
     50  OG1       30.4020   22.5150   49.9210 O.3   148  THR148     -0.2211
     51  CG2       28.8120   23.9630   50.9330 C.3   148  THR148      0.0375
     52  N         24.4580   24.3760   50.5880 N.3   150  ASN150     -0.1240
     53  CA        24.1980   25.8020   50.5540 C.3   150  ASN150      0.1653
     54  C         25.5340   26.4980   50.6900 C.2   150  ASN150      0.2266
     55  O         26.2830   26.3220   51.6730 O.2   150  ASN150     -0.2867
     56  CB        23.2070   26.1970   51.6490 C.3   150  ASN150      0.1155
     57  CG        22.7520   27.6290   51.5140 C.2   150  ASN150      0.2627
     58  OD1       21.8640   27.9190   50.7080 O.2   150  ASN150     -0.2716
     59  ND2       23.3540   28.5150   52.2710 N.am  150  ASN150     -0.0877
     60  N         27.3090   29.3580   51.4600 N.3   152  THR152     -0.1218
     61  CA        26.9250   30.4720   52.3160 C.3   152  THR152      0.1862
     62  C         27.4680   31.8200   51.8740 C.2   152  THR152      0.2287
     63  O         26.8000   32.8390   52.0270 O.2   152  THR152     -0.2866
     64  CB        27.4310   30.1720   53.7420 C.3   152  THR152      0.1770
     65  OG1       27.3270   28.7680   53.9820 O.3   152  THR152     -0.2211
     66  CG2       26.6490   30.9660   54.8170 C.3   152  THR152      0.0375
     67  N         28.1580   18.9910   53.3850 N.3   172  ASP172     -0.1239
     68  CA        28.2250   20.1280   54.3150 C.3   172  ASP172      0.1674
     69  C         26.9290   20.9290   54.1650 C.2   172  ASP172      0.2266
     70  O         26.7550   21.6630   53.1770 O.2   172  ASP172     -0.2867
     71  CB        29.4320   20.9940   53.9730 C.3   172  ASP172      0.1410
     72  CG        29.5790   22.2270   54.8530 C.2   172  ASP172      0.3668
     73  OD1       28.7120   22.4700   55.7240 O.co2 172  ASP172     -0.2456
     74  OD2       30.5720   22.9540   54.6340 O.co2 172  ASP172     -0.2456
     75  N         25.8210   22.9850   56.5980 N.3   174  SER174     -0.1202
     76  CA        25.8430   23.9650   57.6820 C.3   174  SER174      0.2020
     77  C         24.7820   25.0570   57.5430 C.2   174  SER174      0.2619
     78  O         24.1440   25.3920   58.5120 O.2   174  SER174     -0.2717
     79  CB        27.2000   24.6430   57.7710 C.3   174  SER174      0.2103
     80  OG        28.2220   23.7300   58.1210 O.3   174  SER174     -0.2182
     81  N         24.6540   25.6390   56.3540 N.am  175  SER175     -0.1951
     82  CA        23.8240   26.8220   56.2480 C.3   175  SER175      0.1924
     83  C         22.4200   26.5650   55.7190 C.2   175  SER175      0.2314
     84  O         21.6750   27.5220   55.5320 O.2   175  SER175     -0.2863
     85  CB        24.5680   27.9200   55.4970 C.3   175  SER175      0.2116
     86  OG        25.0520   27.4820   54.2410 O.3   175  SER175     -0.2180
     87  N         27.6560   22.8400   61.2000 N.3   193  GLY193     -0.1225
     88  CA        27.8180   23.6520   62.3980 C.3   193  GLY193      0.1811
     89  C         26.4340   24.0870   62.8260 C.2   193  GLY193      0.2280
     90  O         25.6160   24.4510   61.9890 O.2   193  GLY193     -0.2866
     91  N         25.3710   26.7350   64.3340 N.3   195  GLN195     -0.1231
     92  CA        25.1310   28.1570   64.5470 C.3   195  GLN195      0.1698
     93  C         24.4770   28.8990   63.3940 C.2   195  GLN195      0.2592
     94  O         24.3250   30.1090   63.4740 O.2   195  GLN195     -0.2718
     95  CB        26.4330   28.8430   64.9220 C.3   195  GLN195      0.0381
     96  CG        27.5110   28.9170   63.8460 C.3   195  GLN195      0.0905
     97  CD        28.4250   27.7170   63.7640 C.2   195  GLN195      0.2608
     98  OE1       28.2040   26.7050   64.4020 O.2   195  GLN195     -0.2717
     99  NE2       29.4770   27.8570   62.9910 N.am  195  GLN195     -0.0878
    100  N         24.0790   28.2250   62.3310 N.am  196  LYS196     -0.1980
    101  CA        23.2200   28.9100   61.3260 C.3   196  LYS196      0.1596
    102  C         21.7510   28.6710   61.5550 C.2   196  LYS196      0.2287
    103  O         20.9720   29.6160   61.7080 O.2   196  LYS196     -0.2864
    104  CB        23.5690   28.4570   59.9240 C.3   196  LYS196      0.0298
    105  CG        24.7950   29.0470   59.3870 C.3   196  LYS196      0.0038
    106  CD        26.0270   28.3540   59.7880 C.3   196  LYS196      0.0206
    107  CE        27.1960   28.9780   59.1030 C.3   196  LYS196      0.1093
    108  NZ        28.3960   28.4230   59.7270 N.3   196  LYS196     -0.1314
@<TRIPOS>BOND
     1    48    47    2
     2    45    46    1
     3    47    46    1
     4    49    46    1
     5    49    50    1
     6    49    51    1
     7    53    52    1
     8    53    54    1
     9    53    56    1
    10    54    55    2
    11    58    57    2
    12    31    32    1
    13    33    34    2
    14    33    32    1
    15    60    61    1
    16    57    56    1
    17    57    59   am
    18    32    35    1
    19    62    63    2
    20    62    61    1
    21    61    64    1
    22    35    36    1
    23    70    69    2
    24    37    36   ar
    25    37    39   ar
    26    67    68    1
    27    36    38   ar
    28    64    65    1
    29    64    66    1
    30    71    68    1
    31    71    72    1
    32    69    68    1
    33    86    85    1
    34    39    40   ar
    35    38    40   ar
    36    38    41   ar
    37    74    72   ar
    38    72    73   ar
    39    40    42   ar
    40    41    43   ar
    41    28    30   ar
    42    28    26   ar
    43    85    82    1
    44    30    29   ar
    45    84    83    2
    46    23    22    2
    47    26    25   ar
    48    83    82    1
    49    29    27   ar
    50    42    44   ar
    51    43    44   ar
    52    25    27   ar
    53    25    24    1
    54    82    81    1
    55    24    21    1
    56    81    77   am
    57    75    76    1
    58    21    22    1
    59    21    20    1
    60    77    76    1
    61    77    78    2
    62    76    79    1
    63    79    80    1
    64   107   108    1
    65   107   106    1
    66    12    11    2
    67    13    10    1
    68   105   106    1
    69   105   104    1
    70    17    16    2
    71    19    18    1
    72    15    14    1
    73    15    16    1
    74    15    18    1
    75    11    14   am
    76    11    10    1
    77   104   101    1
    78    10     9    1
    79    87    88    1
    80   101   102    1
    81   101   100    1
    82   102   103    2
    83     9     7   am
    84    90    89    2
    85   100    93   am
    86    88    89    1
    87     8     7    2
    88     7     6    1
    89    99    97   am
    90    93    94    2
    91    93    92    1
    92    97    96    1
    93    97    98    2
    94    96    95    1
    95     6     5    1
    96     4     3    2
    97    91    92    1
    98    92    95    1
    99     5     3   am
   100     3     2    1
   101     2     1    1
