@<TRIPOS>MOLECULE
tmp/4azlB02.pdb
 110 107 0 0 0
SMALL
GASTEIGER

@<TRIPOS>ATOM
      1  N         24.1860   41.8470   19.9790 N.3    76  PHE76      -0.1241
      2  CA        23.2430   41.3130   20.9490 C.3    76  PHE76       0.1605
      3  C         21.9320   41.0820   20.2270 C.2    76  PHE76       0.2264
      4  O         21.2820   42.0320   19.7960 O.2    76  PHE76      -0.2867
      5  CB        23.0800   42.2180   22.1750 C.3    76  PHE76       0.0534
      6  CG        23.0410   43.6930   21.8650 C.ar   76  PHE76      -0.0203
      7  CD1       24.2080   44.4280   21.7400 C.ar   76  PHE76      -0.0042
      8  CD2       21.8280   44.3510   21.7240 C.ar   76  PHE76      -0.0042
      9  CE1       24.1650   45.7900   21.4720 C.ar   76  PHE76      -0.0003
     10  CE2       21.7790   45.7160   21.4590 C.ar   76  PHE76      -0.0003
     11  CZ        22.9480   46.4320   21.3330 C.ar   76  PHE76      -0.0000
     12  N         16.5150   39.6750   15.3820 N.3    93  PHE93      -0.1227
     13  CA        16.1820   40.9520   15.9990 C.3    93  PHE93       0.1736
     14  C         17.2450   41.3890   17.0060 C.2    93  PHE93       0.2596
     15  O         17.5290   40.6730   17.9640 O.2    93  PHE93      -0.2718
     16  CB        14.8330   40.8300   16.7050 C.3    93  PHE93       0.0547
     17  CG        14.3370   42.1170   17.2930 C.ar   93  PHE93      -0.0202
     18  CD1       14.1320   43.2290   16.4840 C.ar   93  PHE93      -0.0042
     19  CD2       14.0930   42.2260   18.6520 C.ar   93  PHE93      -0.0042
     20  CE1       13.6640   44.4240   17.0160 C.ar   93  PHE93      -0.0003
     21  CE2       13.6350   43.4140   19.1930 C.ar   93  PHE93      -0.0003
     22  CZ        13.4200   44.5180   18.3720 C.ar   93  PHE93      -0.0000
     23  N         17.8490   42.5510   16.7740 N.am   94  GLY94      -0.1942
     24  CA        18.8370   43.0990   17.6910 C.3    94  GLY94       0.2014
     25  C         20.0040   43.7240   16.9610 C.2    94  GLY94       0.2638
     26  O         19.9500   43.8790   15.7410 O.2    94  GLY94      -0.2714
     27  N         21.0570   44.0970   17.6890 N.am   95  ARG95      -0.1977
     28  CA        22.2330   44.6540   17.0320 C.3    95  ARG95       0.1597
     29  C         22.9730   43.4630   16.4610 C.2    95  ARG95       0.2287
     30  O         23.3730   42.5630   17.1960 O.2    95  ARG95      -0.2864
     31  CB        23.1280   45.4120   17.9990 C.3    95  ARG95       0.0334
     32  CG        24.1480   46.2840   17.2930 C.3    95  ARG95       0.0492
     33  CD        24.9000   47.1560   18.2730 C.3    95  ARG95       0.2205
     34  NE        25.5210   48.3110   17.6310 N.pl3  95  ARG95      -0.0865
     35  CZ        26.7980   48.3660   17.2660 C.cat  95  ARG95       0.5346
     36  NH1       27.5890   47.3160   17.4520 N.pl3  95  ARG95       0.1354
     37  NH2       27.2820   49.4660   16.7090 N.pl3  95  ARG95       0.1354
     38  N         21.7700   47.8970   14.7600 N.3   111  GLU111     -0.1231
     39  CA        20.4560   47.4960   15.2460 C.3   111  GLU111      0.1699
     40  C         19.5240   47.2800   14.0740 C.2   111  GLU111      0.2592
     41  O         19.3260   48.1790   13.2610 O.2   111  GLU111     -0.2718
     42  CB        19.8780   48.5500   16.1870 C.3   111  GLU111      0.0402
     43  CG        20.8050   48.9670   17.2990 C.3   111  GLU111      0.1161
     44  CD        21.6130   50.1810   16.9410 C.2   111  GLU111      0.3649
     45  OE1       22.4350   50.0870   16.0050 O.co2 111  GLU111     -0.2457
     46  OE2       21.4260   51.2260   17.5960 O.co2 111  GLU111     -0.2457
     47  N         18.9590   46.0860   13.9770 N.am  112  ALA112     -0.1966
     48  CA        18.1490   45.7620   12.8180 C.3   112  ALA112      0.1728
     49  C         17.1260   44.6860   13.1270 C.2   112  ALA112      0.2616
     50  O         17.2300   43.9520   14.1070 O.2   112  ALA112     -0.2715
     51  CB        19.0350   45.2870   11.6830 C.3   112  ALA112      0.0334
     52  N         16.1320   44.6000   12.2590 N.am  113  LEU113     -0.1977
     53  CA        15.2930   43.4260   12.1790 C.3   113  LEU113      0.1596
     54  C         15.5160   42.9070   10.7620 C.2   113  LEU113      0.2287
     55  O         15.2340   43.6050    9.7970 O.2   113  LEU113     -0.2864
     56  CB        13.8300   43.8030   12.3990 C.3   113  LEU113      0.0297
     57  CG        12.7890   42.7200   12.1360 C.3   113  LEU113      0.0022
     58  CD1       12.9600   41.5790   13.1200 C.3   113  LEU113      0.0001
     59  CD2       11.3960   43.2940   12.2190 C.3   113  LEU113      0.0001
     60  N         15.0960   46.0510    8.1070 N.3   128  VAL128     -0.1231
     61  CA        15.0980   47.4700    8.3860 C.3   128  VAL128      0.1692
     62  C         16.1610   47.6810    9.4650 C.2   128  VAL128      0.2592
     63  O         16.3890   46.8020   10.2970 O.2   128  VAL128     -0.2718
     64  CB        13.6910   47.9410    8.8500 C.3   128  VAL128      0.0266
     65  CG1       13.2110   47.1520   10.0610 C.3   128  VAL128      0.0020
     66  CG2       13.6650   49.4380    9.1120 C.3   128  VAL128      0.0020
     67  N         16.8440   48.8190    9.4340 N.am  129  ALA129     -0.1966
     68  CA        17.8940   49.0590   10.4140 C.3   129  ALA129      0.1728
     69  C         18.0710   50.5420   10.7090 C.2   129  ALA129      0.2616
     70  O         17.8220   51.3920    9.8550 O.2   129  ALA129     -0.2715
     71  CB        19.2060   48.4770    9.9110 C.3   129  ALA129      0.0334
     72  N         18.5090   50.8470   11.9240 N.am  130  GLN130     -0.1977
     73  CA        18.8310   52.2160   12.2940 C.3   130  GLN130      0.1601
     74  C         19.7990   52.2290   13.4750 C.2   130  GLN130      0.2287
     75  O         19.6950   51.3890   14.3680 O.2   130  GLN130     -0.2864
     76  CB        17.5470   52.9700   12.6420 C.3   130  GLN130      0.0394
     77  CG        17.7430   54.3760   13.1750 C.3   130  GLN130      0.0908
     78  CD        16.4490   55.1640   13.1710 C.2   130  GLN130      0.2608
     79  OE1       15.4310   54.6970   12.6620 O.2   130  GLN130     -0.2717
     80  NE2       16.4820   56.3640   13.7370 N.am  130  GLN130     -0.0878
     81  N         21.0160   53.7850   16.9490 N.3   132  PHE132     -0.1241
     82  CA        20.5300   54.5580   18.0850 C.3   132  PHE132      0.1605
     83  C         21.6540   54.9330   19.0530 C.2   132  PHE132      0.2264
     84  O         21.5150   55.8710   19.8410 O.2   132  PHE132     -0.2867
     85  CB        19.4140   53.8090   18.8180 C.3   132  PHE132      0.0534
     86  CG        18.2260   53.4980   17.9530 C.ar  132  PHE132     -0.0203
     87  CD1       17.2820   54.4740   17.6750 C.ar  132  PHE132     -0.0042
     88  CD2       18.0550   52.2320   17.4100 C.ar  132  PHE132     -0.0042
     89  CE1       16.1890   54.1950   16.8720 C.ar  132  PHE132     -0.0003
     90  CE2       16.9600   51.9450   16.6040 C.ar  132  PHE132     -0.0003
     91  CZ        16.0280   52.9290   16.3360 C.ar  132  PHE132     -0.0000
     92  N         27.0790   52.2160   21.4940 N.3   135  TYR135     -0.1241
     93  CA        27.2560   51.2160   22.5510 C.3   135  TYR135      0.1605
     94  C         28.7190   51.0950   22.9570 C.2   135  TYR135      0.2264
     95  O         29.2370   49.9980   23.1520 O.2   135  TYR135     -0.2867
     96  CB        26.6730   49.8660   22.1390 C.3   135  TYR135      0.0534
     97  CG        25.2550   49.9910   21.6300 C.ar  135  TYR135     -0.0201
     98  CD1       24.1820   50.0450   22.5080 C.ar  135  TYR135     -0.0009
     99  CD2       24.9980   50.0910   20.2700 C.ar  135  TYR135     -0.0009
    100  CE1       22.8870   50.1710   22.0430 C.ar  135  TYR135      0.0417
    101  CE2       23.7100   50.2190   19.7970 C.ar  135  TYR135      0.0417
    102  CZ        22.6580   50.2580   20.6860 C.ar  135  TYR135      0.1957
    103  OH        21.3730   50.3890   20.2140 O.3   135  TYR135     -0.2866
    104  N         17.0560   56.1100    8.7610 N.3   150  THR150     -0.1218
    105  CA        16.5230   54.7520    8.7540 C.3   150  THR150      0.1862
    106  C         16.7990   54.0340    7.4420 C.2   150  THR150      0.2287
    107  O         16.6330   54.6010    6.3600 O.2   150  THR150     -0.2866
    108  CB        15.0030   54.7490    9.0070 C.3   150  THR150      0.1770
    109  OG1       14.7050   55.5170   10.1780 O.3   150  THR150     -0.2211
    110  CG2       14.5040   53.3330    9.2030 C.3   150  THR150      0.0375
@<TRIPOS>BOND
     1   107   106    2
     2   106   105    1
     3    60    61    1
     4    61    64    1
     5    61    62    1
     6   105   104    1
     7   105   108    1
     8    64    66    1
     9    64    65    1
    10   108   110    1
    11   108   109    1
    12    67    62   am
    13    67    68    1
    14    62    63    2
    15    55    54    2
    16    70    69    2
    17    71    68    1
    18    68    69    1
    19    69    72   am
    20    54    53    1
    21    51    48    1
    22    72    73    1
    23    57    59    1
    24    57    56    1
    25    57    58    1
    26    53    52    1
    27    53    56    1
    28    52    49   am
    29    73    76    1
    30    73    74    1
    31    76    77    1
    32    79    78    2
    33    48    49    1
    34    48    47    1
    35    49    50    2
    36    78    77    1
    37    78    80   am
    38    41    40    2
    39    74    75    2
    40    47    40   am
    41    40    39    1
    42    38    39    1
    43    39    42    1
    44    12    13    1
    45    26    25    2
    46    13    16    1
    47    13    14    1
    48    45    44   ar
    49    42    43    1
    50    91    90   ar
    51    91    89   ar
    52    29    28    1
    53    29    30    2
    54    18    20   ar
    55    18    17   ar
    56    90    88   ar
    57    16    17    1
    58    37    35    1
    59    23    14   am
    60    23    24    1
    61    89    87   ar
    62    44    43    1
    63    44    46   ar
    64    81    82    1
    65    25    27   am
    66    25    24    1
    67    14    15    2
    68    20    22   ar
    69    28    27    1
    70    28    31    1
    71    35    36    1
    72    35    34    2
    73    17    19   ar
    74    32    31    1
    75    32    33    1
    76    88    86   ar
    77    34    33    1
    78    87    86   ar
    79    86    85    1
    80    82    85    1
    81    82    83    1
    82    22    21   ar
    83    19    21   ar
    84    83    84    2
    85     4     3    2
    86   101    99   ar
    87   101   102   ar
    88     1     2    1
    89   103   102    1
    90     3     2    1
    91    99    97   ar
    92   102   100   ar
    93     2     5    1
    94    11    10   ar
    95    11     9   ar
    96    10     8   ar
    97     9     7   ar
    98    92    93    1
    99    97    96    1
   100    97    98   ar
   101     8     6   ar
   102     7     6   ar
   103     6     5    1
   104   100    98   ar
   105    96    93    1
   106    93    94    1
   107    94    95    2
