@<TRIPOS>MOLECULE
tmp/4azlA02.pdb
 84 81 0 0 0
SMALL
GASTEIGER

@<TRIPOS>ATOM
      1  N         24.6330   -1.4080   18.4020 N.3    11  GLY11      -0.1210
      2  CA        24.2330   -2.5990   19.1250 C.3    11  GLY11       0.1956
      3  C         23.1210   -3.3230   18.3870 C.2    11  GLY11       0.2612
      4  O         22.2300   -2.6820   17.8330 O.2    11  GLY11      -0.2717
      5  N         23.1600   -4.6510   18.3760 N.am   12  GLU12      -0.1965
      6  CA        22.0900   -5.4140   17.7510 C.3    12  GLU12       0.1733
      7  C         21.5750   -6.4680   18.7140 C.2    12  GLU12       0.2617
      8  O         22.3490   -7.2130   19.3090 O.2    12  GLU12      -0.2715
      9  CB        22.5610   -6.0880   16.4610 C.3    12  GLU12       0.0429
     10  CG        21.4620   -6.9270   15.7960 C.3    12  GLU12       0.1163
     11  CD        21.8960   -7.5790   14.4900 C.2    12  GLU12       0.3649
     12  OE1       23.0750   -7.4320   14.0990 O.co2  12  GLU12      -0.2457
     13  OE2       21.0480   -8.2390   13.8500 O.co2  12  GLU12      -0.2457
     14  N         20.2560   -6.5260   18.8460 N.am   13  SER13      -0.1950
     15  CA        19.5760   -7.5970   19.5590 C.3    13  SER13       0.1924
     16  C         18.6560   -8.3460   18.5920 C.2    13  SER13       0.2314
     17  O         17.7690   -7.7480   17.9860 O.2    13  SER13      -0.2863
     18  CB        18.7960   -7.0380   20.7550 C.3    13  SER13       0.2116
     19  OG        17.9630   -8.0150   21.3510 O.3    13  SER13      -0.2180
     20  N         23.1550  -10.4860   20.7860 N.3    26  ASN26      -0.1225
     21  CA        23.0650   -9.4240   21.7800 C.3    26  ASN26       0.1785
     22  C         24.4110   -8.7850   21.9000 C.2    26  ASN26       0.2597
     23  O         25.1950   -9.1160   22.7360 O.2    26  ASN26      -0.2718
     24  CB        22.6120   -9.9950   23.1060 C.3    26  ASN26       0.1169
     25  CG        22.1320   -8.9250   24.0520 C.2    26  ASN26       0.2627
     26  OD1       22.9130   -8.3780   24.8320 O.2    26  ASN26      -0.2716
     27  ND2       20.8410   -8.6400   24.0160 N.am   26  ASN26      -0.0877
     28  N         24.6880   -7.8280   21.0330 N.am   27  ASP27      -0.1960
     29  CA        26.1080   -7.4570   20.8020 C.3    27  ASP27       0.1840
     30  C         26.2780   -6.0270   20.4240 C.2    27  ASP27       0.2621
     31  O         25.3360   -5.3320   20.0750 O.2    27  ASP27      -0.2715
     32  CB        26.7360   -8.3540   19.6950 C.3    27  ASP27       0.1450
     33  CG        26.9280   -9.8270   20.1220 C.2    27  ASP27       0.3671
     34  OD1       25.8550  -10.5520   19.9400 O.co2  27  ASP27      -0.2456
     35  OD2       28.0050  -10.2710   20.7110 O.co2  27  ASP27      -0.2456
     36  N         27.5340   -5.6110   20.4280 N.am   28  ILE28      -0.1977
     37  CA        27.8980   -4.2170   20.2100 C.3    28  ILE28       0.1596
     38  C         29.1290   -4.1790   19.2840 C.2    28  ILE28       0.2287
     39  O         29.9340   -5.1120   19.2730 O.2    28  ILE28      -0.2864
     40  CB        28.1930   -3.4970   21.5350 C.3    28  ILE28       0.0276
     41  CG1       28.3350   -1.9870   21.3360 C.3    28  ILE28       0.0022
     42  CG2       29.4030   -4.1060   22.2150 C.3    28  ILE28       0.0022
     43  CD1       27.0170   -1.2570   21.3120 C.3    28  ILE28       0.0001
     44  N         31.6480   -7.6520   19.0830 N.3    55  THR55      -0.1218
     45  CA        31.6240   -8.7530   20.0490 C.3    55  THR55       0.1862
     46  C         31.0410  -10.0290   19.4220 C.2    55  THR55       0.2287
     47  O         31.1840  -11.1250   19.9660 O.2    55  THR55      -0.2866
     48  CB        30.8790   -8.3570   21.3410 C.3    55  THR55       0.1770
     49  OG1       29.5230   -8.0300   21.0320 O.3    55  THR55      -0.2211
     50  CG2       31.5400   -7.1410   21.9750 C.3    55  THR55       0.0375
     51  N         17.1010    4.3670   16.7940 N.3   388  PHE388     -0.1241
     52  CA        16.6000    3.0450   17.1670 C.3   388  PHE388      0.1605
     53  C         15.8000    2.4460   16.0090 C.2   388  PHE388      0.2264
     54  O         14.9340    3.1210   15.4570 O.2   388  PHE388     -0.2867
     55  CB        15.6830    3.1610   18.3940 C.3   388  PHE388      0.0534
     56  CG        14.9810    1.8830   18.7500 C.ar  388  PHE388     -0.0203
     57  CD1       15.5880    0.9630   19.5870 C.ar  388  PHE388     -0.0042
     58  CD2       13.7150    1.6060   18.2660 C.ar  388  PHE388     -0.0042
     59  CE1       14.9570   -0.2170   19.9180 C.ar  388  PHE388     -0.0003
     60  CE2       13.0740    0.4240   18.5960 C.ar  388  PHE388     -0.0003
     61  CZ        13.6920   -0.4860   19.4230 C.ar  388  PHE388     -0.0000
     62  N         16.2650   -5.7990   16.7720 N.3   410  ALA410     -0.1231
     63  CA        16.3310   -4.3650   17.0410 C.3   410  ALA410      0.1694
     64  C         17.7600   -3.8450   16.9820 C.2   410  ALA410      0.2592
     65  O         18.7070   -4.5570   17.2940 O.2   410  ALA410     -0.2718
     66  CB        15.7140   -4.0340   18.3940 C.3   410  ALA410      0.0304
     67  N         17.8970   -2.5830   16.5850 N.am  411  PHE411     -0.1962
     68  CA        19.1990   -1.9590   16.4330 C.3   411  PHE411      0.1771
     69  C         19.1920   -0.5980   17.0900 C.2   411  PHE411      0.2619
     70  O         18.1830    0.0980   17.0690 O.2   411  PHE411     -0.2715
     71  CB        19.4950   -1.7070   14.9530 C.3   411  PHE411      0.0574
     72  CG        19.6560   -2.9500   14.1350 C.ar  411  PHE411     -0.0200
     73  CD1       18.5610   -3.5450   13.5390 C.ar  411  PHE411     -0.0042
     74  CD2       20.9050   -3.5200   13.9510 C.ar  411  PHE411     -0.0042
     75  CE1       18.7030   -4.6910   12.7760 C.ar  411  PHE411     -0.0003
     76  CE2       21.0550   -4.6600   13.1850 C.ar  411  PHE411     -0.0003
     77  CZ        19.9510   -5.2500   12.5990 C.ar  411  PHE411     -0.0000
     78  N         20.3230   -0.2120   17.6640 N.am  412  VAL412     -0.1977
     79  CA        20.6030    1.1950   17.8880 C.3   412  VAL412      0.1596
     80  C         21.8610    1.5800   17.1350 C.2   412  VAL412      0.2287
     81  O         22.8710    0.8840   17.2240 O.2   412  VAL412     -0.2864
     82  CB        20.8250    1.4930   19.3780 C.3   412  VAL412      0.0276
     83  CG1       21.2390    2.9410   19.5750 C.3   412  VAL412      0.0022
     84  CG2       19.5660    1.1800   20.1680 C.3   412  VAL412      0.0022
@<TRIPOS>BOND
     1    77    75   ar
     2    77    76   ar
     3    75    73   ar
     4    76    74   ar
     5    73    72   ar
     6    13    11   ar
     7    74    72   ar
     8    12    11   ar
     9    72    71    1
    10    11    10    1
    11    71    68    1
    12    54    53    2
    13    10     9    1
    14    53    52    1
    15    68    67    1
    16    68    69    1
    17     9     6    1
    18    67    64   am
    19    62    63    1
    20    51    52    1
    21    64    63    1
    22    64    65    2
    23    63    66    1
    24    70    69    2
    25    69    78   am
    26    80    81    2
    27    80    79    1
    28    52    55    1
    29    78    79    1
    30     6     5    1
    31     6     7    1
    32     4     3    2
    33    79    82    1
    34    17    16    2
    35    58    60   ar
    36    58    56   ar
    37     5     3   am
    38     3     2    1
    39    55    56    1
    40     1     2    1
    41    16    15    1
    42    60    61   ar
    43     7    14   am
    44     7     8    2
    45    56    57   ar
    46    14    15    1
    47    44    45    1
    48    39    38    2
    49    38    37    1
    50    82    83    1
    51    82    84    1
    52    46    47    2
    53    46    45    1
    54    61    59   ar
    55    15    18    1
    56    57    59   ar
    57    32    33    1
    58    32    29    1
    59    34    33   ar
    60    45    48    1
    61    31    30    2
    62    33    35   ar
    63    37    36    1
    64    37    40    1
    65    30    36   am
    66    30    29    1
    67    18    19    1
    68    20    21    1
    69    29    28    1
    70    49    48    1
    71    28    22   am
    72    43    41    1
    73    41    40    1
    74    48    50    1
    75    40    42    1
    76    21    22    1
    77    21    24    1
    78    22    23    2
    79    24    25    1
    80    27    25   am
    81    25    26    2
