@<TRIPOS>MOLECULE
tmp/4azlA00.pdb
 110 107 0 0 0
SMALL
GASTEIGER

@<TRIPOS>ATOM
      1  N         34.8210    2.3020   -4.6190 N.3    73  PHE73      -0.1241
      2  CA        35.9900    2.8300   -5.2990 C.3    73  PHE73       0.1605
      3  C         35.6160    3.0470   -6.7540 C.2    73  PHE73       0.2264
      4  O         35.3740    2.0840   -7.4900 O.2    73  PHE73      -0.2867
      5  CB        37.2150    1.9280   -5.1500 C.3    73  PHE73       0.0534
      6  CG        36.9240    0.4530   -5.2520 C.ar   73  PHE73      -0.0203
      7  CD1       36.5270   -0.2790   -4.1420 C.ar   73  PHE73      -0.0042
      8  CD2       37.0810   -0.2090   -6.4600 C.ar   73  PHE73      -0.0042
      9  CE1       36.2760   -1.6490   -4.2410 C.ar   73  PHE73      -0.0003
     10  CE2       36.8350   -1.5800   -6.5680 C.ar   73  PHE73      -0.0003
     11  CZ        36.4350   -2.3000   -5.4630 C.ar   73  PHE73      -0.0000
     12  N         32.2700    4.4210  -13.2010 N.3    90  PHE90      -0.1227
     13  CA        32.9500    3.1440  -13.3680 C.3    90  PHE90       0.1736
     14  C         33.6600    2.7170  -12.0840 C.2    90  PHE90       0.2596
     15  O         34.5120    3.4340  -11.5680 O.2    90  PHE90      -0.2718
     16  CB        33.9680    3.2630  -14.5070 C.3    90  PHE90       0.0547
     17  CG        34.6580    1.9760  -14.8360 C.ar   90  PHE90      -0.0202
     18  CD1       33.9280    0.8600  -15.2290 C.ar   90  PHE90      -0.0042
     19  CD2       36.0380    1.8690  -14.7370 C.ar   90  PHE90      -0.0042
     20  CE1       34.5600   -0.3370  -15.5370 C.ar   90  PHE90      -0.0003
     21  CE2       36.6790    0.6740  -15.0420 C.ar   90  PHE90      -0.0003
     22  CZ        35.9370   -0.4320  -15.4390 C.ar   90  PHE90      -0.0000
     23  N         33.2820    1.5600  -11.5530 N.am   91  GLY91      -0.1942
     24  CA        33.9160    1.0160  -10.3620 C.3    91  GLY91       0.2014
     25  C         32.9210    0.3940   -9.4020 C.2    91  GLY91       0.2638
     26  O         31.7530    0.2380   -9.7390 O.2    91  GLY91      -0.2714
     27  N         33.3740    0.0290   -8.2030 N.am   92  ARG92      -0.1977
     28  CA        32.4490   -0.5250   -7.2240 C.3    92  ARG92       0.1597
     29  C         31.7120    0.6710   -6.6580 C.2    92  ARG92       0.2287
     30  O         32.3250    1.5920   -6.1110 O.2    92  ARG92      -0.2864
     31  CB        33.1610   -1.2780   -6.1140 C.3    92  ARG92       0.0334
     32  CG        32.2250   -2.1430   -5.3010 C.3    92  ARG92       0.0492
     33  CD        32.9890   -3.0070   -4.3290 C.3    92  ARG92       0.2205
     34  NE        32.2270   -4.1640   -3.8750 N.pl3  92  ARG92      -0.0865
     35  CZ        31.5640   -4.2160   -2.7260 C.cat  92  ARG92       0.5346
     36  NH1       31.5360   -3.1600   -1.9240 N.pl3  92  ARG92       0.1354
     37  NH2       30.9150   -5.3190   -2.3850 N.pl3  92  ARG92       0.1354
     38  N         30.3710   -3.7810   -8.2250 N.3   108  GLU108     -0.1231
     39  CA        31.1660   -3.3840   -9.3810 C.3   108  GLU108      0.1699
     40  C         30.2610   -3.1750  -10.5760 C.2   108  GLU108      0.2592
     41  O         29.5250   -4.0750  -10.9760 O.2   108  GLU108     -0.2718
     42  CB        32.2240   -4.4380   -9.7040 C.3   108  GLU108      0.0402
     43  CG        33.0730   -4.8440   -8.5200 C.3   108  GLU108      0.1161
     44  CD        32.5220   -6.0620   -7.8170 C.2   108  GLU108      0.3649
     45  OE1       31.4060   -5.9690   -7.2600 O.co2 108  GLU108     -0.2457
     46  OE2       33.2080   -7.1070   -7.8250 O.co2 108  GLU108     -0.2457
     47  N         30.3040   -1.9820  -11.1490 N.am  109  ALA109     -0.1966
     48  CA        29.3850   -1.6620  -12.2190 C.3   109  ALA109      0.1728
     49  C         29.9360   -0.5850  -13.1340 C.2   109  ALA109      0.2616
     50  O         30.8400    0.1680  -12.7770 O.2   109  ALA109     -0.2715
     51  CB        28.0660   -1.1880  -11.6420 C.3   109  ALA109      0.0334
     52  N         29.3450   -0.5070  -14.3180 N.am  110  LEU110     -0.1977
     53  CA        29.4710    0.6600  -15.1620 C.3   110  LEU110      0.1596
     54  C         28.0410    1.1690  -15.3040 C.2   110  LEU110      0.2287
     55  O         27.1760    0.4660  -15.8060 O.2   110  LEU110     -0.2864
     56  CB        30.0520    0.2700  -16.5170 C.3   110  LEU110      0.0297
     57  CG        30.0510    1.3440  -17.6010 C.3   110  LEU110      0.0022
     58  CD1       30.9610    2.4960  -17.1900 C.3   110  LEU110      0.0001
     59  CD2       30.4730    0.7680  -18.9450 C.3   110  LEU110      0.0001
     60  N         25.5780   -1.9780  -16.3420 N.3   125  VAL125     -0.1231
     61  CA        25.8480   -3.4000  -16.2630 C.3   125  VAL125      0.1692
     62  C         26.6220   -3.6120  -14.9670 C.2   125  VAL125      0.2592
     63  O         27.3700   -2.7320  -14.5390 O.2   125  VAL125     -0.2718
     64  CB        26.6590   -3.8810  -17.5120 C.3   125  VAL125      0.0266
     65  CG1       27.9400   -3.0730  -17.6910 C.3   125  VAL125      0.0020
     66  CG2       26.9210   -5.3930  -17.4650 C.3   125  VAL125      0.0020
     67  N         26.4230   -4.7450  -14.3110 N.am  126  ALA126     -0.1966
     68  CA        27.1160   -4.9750  -13.0520 C.3   126  ALA126      0.1728
     69  C         27.3580   -6.4580  -12.8020 C.2   126  ALA126      0.2616
     70  O         26.5920   -7.3110  -13.2560 O.2   126  ALA126     -0.2715
     71  CB        26.3120   -4.3890  -11.9050 C.3   126  ALA126      0.0334
     72  N         28.4310   -6.7570  -12.0740 N.am  127  GLN127     -0.1977
     73  CA        28.7170   -8.1220  -11.6620 C.3   127  GLN127      0.1601
     74  C         29.6250   -8.1260  -10.4250 C.2   127  GLN127      0.2287
     75  O         30.5190   -7.2860  -10.3020 O.2   127  GLN127     -0.2864
     76  CB        29.3750   -8.8760  -12.8180 C.3   127  GLN127      0.0394
     77  CG        29.8480  -10.2710  -12.4900 C.3   127  GLN127      0.0908
     78  CD        30.1700  -11.0660  -13.7360 C.2   127  GLN127      0.2608
     79  OE1       29.9270  -10.6090  -14.8520 O.2   127  GLN127     -0.2717
     80  NE2       30.7120  -12.2650  -13.5550 N.am  127  GLN127     -0.0878
     81  N         32.6890   -9.6600   -8.3780 N.3   129  PHE129     -0.1241
     82  CA        33.9110  -10.4320   -8.5640 C.3   129  PHE129      0.1605
     83  C         34.5700  -10.8000   -7.2330 C.2   129  PHE129      0.2264
     84  O         35.3720  -11.7350   -7.1680 O.2   129  PHE129     -0.2867
     85  CB        34.8950   -9.6860   -9.4680 C.3   129  PHE129      0.0534
     86  CG        34.3490   -9.3850  -10.8370 C.ar  129  PHE129     -0.0203
     87  CD1       34.3170  -10.3690  -11.8190 C.ar  129  PHE129     -0.0042
     88  CD2       33.8590   -8.1250  -11.1460 C.ar  129  PHE129     -0.0042
     89  CE1       33.8140  -10.0970  -13.0800 C.ar  129  PHE129     -0.0003
     90  CE2       33.3520   -7.8470  -12.4090 C.ar  129  PHE129     -0.0003
     91  CZ        33.3300   -8.8360  -13.3750 C.ar  129  PHE129     -0.0000
     92  N         35.5880   -8.0550   -1.3950 N.3   132  TYR132     -0.1241
     93  CA        36.5660   -7.0500   -0.9650 C.3   132  TYR132      0.1605
     94  C         36.5950   -6.9230    0.5560 C.2   132  TYR132      0.2264
     95  O         36.6350   -5.8240    1.1000 O.2   132  TYR132     -0.2867
     96  CB        36.3070   -5.7010   -1.6360 C.3   132  TYR132      0.0534
     97  CG        36.1650   -5.8380   -3.1300 C.ar  132  TYR132     -0.0201
     98  CD1       37.2820   -5.8950   -3.9550 C.ar  132  TYR132     -0.0009
     99  CD2       34.9100   -5.9420   -3.7180 C.ar  132  TYR132     -0.0009
    100  CE1       37.1510   -6.0350   -5.3230 C.ar  132  TYR132      0.0417
    101  CE2       34.7690   -6.0830   -5.0800 C.ar  132  TYR132      0.0417
    102  CZ        35.8900   -6.1290   -5.8780 C.ar  132  TYR132      0.1957
    103  OH        35.7420   -6.2740   -7.2370 O.3   132  TYR132     -0.2866
    104  N         25.7410  -12.0260  -14.2290 N.3   147  THR147     -0.1218
    105  CA        25.8680  -10.6680  -14.7550 C.3   147  THR147      0.1862
    106  C         24.5340   -9.9540  -14.8220 C.2   147  THR147      0.2287
    107  O         23.5420  -10.5230  -15.2660 O.2   147  THR147     -0.2866
    108  CB        26.4920  -10.6730  -16.1580 C.3   147  THR147      0.1770
    109  OG1       27.6900  -11.4580  -16.1440 O.3   147  THR147     -0.2211
    110  CG2       26.8110   -9.2590  -16.6020 C.3   147  THR147      0.0375
@<TRIPOS>BOND
     1    59    57    1
     2    65    64    1
     3    57    58    1
     4    57    56    1
     5    64    66    1
     6    64    61    1
     7   110   108    1
     8    56    53    1
     9    60    61    1
    10    61    62    1
    11   108   109    1
    12   108   105    1
    13    55    54    2
    14    20    22   ar
    15    20    18   ar
    16    22    21   ar
    17    54    53    1
    18   107   106    2
    19    18    17   ar
    20    53    52    1
    21    21    19   ar
    22    62    63    2
    23    62    67   am
    24    79    78    2
    25    17    19   ar
    26    17    16    1
    27   106   105    1
    28   105   104    1
    29    16    13    1
    30    52    49   am
    31    67    68    1
    32    78    80   am
    33    78    77    1
    34    91    89   ar
    35    91    90   ar
    36    13    12    1
    37    13    14    1
    38    70    69    2
    39    49    50    2
    40    49    48    1
    41    89    87   ar
    42    68    69    1
    43    68    71    1
    44    76    77    1
    45    76    73    1
    46    69    72   am
    47    90    88   ar
    48    48    51    1
    49    48    47    1
    50    14    15    2
    51    14    23   am
    52    72    73    1
    53    87    86   ar
    54    73    74    1
    55    23    24    1
    56    47    40   am
    57    88    86   ar
    58    41    40    2
    59    86    85    1
    60    40    39    1
    61    74    75    2
    62    24    25    1
    63    26    25    2
    64    42    39    1
    65    42    43    1
    66    85    82    1
    67    25    27   am
    68    39    38    1
    69    82    81    1
    70    82    83    1
    71    43    44    1
    72    27    28    1
    73    46    44   ar
    74    44    45   ar
    75     4     3    2
    76   103   102    1
    77    83    84    2
    78    28    29    1
    79    28    31    1
    80     3     2    1
    81    29    30    2
    82    10     8   ar
    83    10    11   ar
    84     8     6   ar
    85    31    32    1
    86   102   100   ar
    87   102   101   ar
    88    11     9   ar
    89   100    98   ar
    90    32    33    1
    91     2     5    1
    92     2     1    1
    93     6     5    1
    94     6     7   ar
    95   101    99   ar
    96    33    34    1
    97     9     7   ar
    98    98    97   ar
    99    34    35    2
   100    99    97   ar
   101    97    96    1
   102    35    37    1
   103    35    36    1
   104    96    93    1
   105    92    93    1
   106    93    94    1
   107    94    95    2
