@<TRIPOS>MOLECULE
tmp/4azlB04.pdb
 92 89 0 0 0
SMALL
GASTEIGER

@<TRIPOS>ATOM
      1  N         39.7620   42.2420   23.2880 N.3    33  LEU33      -0.1245
      2  CA        39.1660   41.0440   23.8670 C.3    33  LEU33       0.1561
      3  C         37.6660   40.9550   23.5970 C.2    33  LEU33       0.2260
      4  O         36.9270   41.9000   23.8690 O.2    33  LEU33      -0.2867
      5  CB        39.4040   41.0030   25.3740 C.3    33  LEU33       0.0270
      6  CG        40.8740   41.0950   25.7790 C.3    33  LEU33       0.0019
      7  CD1       41.0120   41.2280   27.2820 C.3    33  LEU33       0.0001
      8  CD2       41.6380   39.8940   25.2690 C.3    33  LEU33       0.0001
      9  N         34.6940   38.5310   24.5340 N.3    35  PRO35      -0.2116
     10  CA        33.9130   37.4340   25.0960 C.3    35  PRO35       0.1372
     11  C         32.5960   37.3270   24.3570 C.2    35  PRO35       0.2244
     12  O         32.0150   38.3530   23.9960 O.2    35  PRO35      -0.2868
     13  CB        33.6910   37.8670   26.5360 C.3    35  PRO35       0.0268
     14  CG        33.6510   39.3500   26.4610 C.3    35  PRO35       0.0207
     15  CD        34.6270   39.7380   25.3760 C.3    35  PRO35       0.0892
     16  N         25.3660   37.1910   22.2630 N.3    48  PHE48      -0.1241
     17  CA        25.9860   38.4380   22.6940 C.3    48  PHE48       0.1605
     18  C         27.4870   38.4030   22.4130 C.2    48  PHE48       0.2264
     19  O         28.1560   37.4010   22.6730 O.2    48  PHE48      -0.2867
     20  CB        25.7810   38.6380   24.1980 C.3    48  PHE48       0.0534
     21  CG        26.4900   39.8480   24.7490 C.ar   48  PHE48      -0.0203
     22  CD1       25.9170   41.1090   24.6320 C.ar   48  PHE48      -0.0042
     23  CD2       27.6960   39.7270   25.4130 C.ar   48  PHE48      -0.0042
     24  CE1       26.5520   42.2300   25.1330 C.ar   48  PHE48      -0.0003
     25  CE2       28.3290   40.8440   25.9210 C.ar   48  PHE48      -0.0003
     26  CZ        27.7550   42.0960   25.7810 C.ar   48  PHE48      -0.0000
     27  N         30.7350   41.1340   23.3430 N.3    50  GLY50      -0.1210
     28  CA        31.2360   42.3980   23.8330 C.3    50  GLY50       0.1956
     29  C         32.6500   42.6040   23.3570 C.2    50  GLY50       0.2612
     30  O         33.1790   41.7980   22.5930 O.2    50  GLY50      -0.2717
     31  N         33.2730   43.6750   23.8220 N.am   51  GLN51      -0.1965
     32  CA        34.5860   44.0410   23.3410 C.3    51  GLN51       0.1733
     33  C         35.2430   44.9320   24.3730 C.2    51  GLN51       0.2616
     34  O         34.6270   45.8830   24.8640 O.2    51  GLN51      -0.2715
     35  CB        34.4730   44.7750   22.0120 C.3    51  GLN51       0.0408
     36  CG        35.8140   45.1740   21.4200 C.3    51  GLN51       0.0908
     37  CD        35.6710   45.8960   20.0950 C.2    51  GLN51       0.2608
     38  OE1       34.5880   46.3720   19.7460 O.2    51  GLN51      -0.2717
     39  NE2       36.7590   45.9600   19.3380 N.am   51  GLN51      -0.0878
     40  N         36.4940   44.6240   24.6990 N.am   52  ALA52      -0.1977
     41  CA        37.2910   45.5020   25.5410 C.3    52  ALA52       0.1597
     42  C         38.6010   45.7350   24.8140 C.2    52  ALA52       0.2287
     43  O         39.2580   44.7900   24.3750 O.2    52  ALA52      -0.2864
     44  CB        37.5350   44.8730   26.8930 C.3    52  ALA52       0.0319
     45  N         35.0660   50.0490   26.4010 N.3    71  LEU71      -0.1231
     46  CA        34.3070   48.8100   26.3680 C.3    71  LEU71       0.1693
     47  C         33.2040   49.0150   25.3410 C.2    71  LEU71       0.2592
     48  O         32.7840   50.1440   25.0940 O.2    71  LEU71      -0.2718
     49  CB        33.6930   48.5150   27.7390 C.3    71  LEU71       0.0284
     50  CG        34.6590   48.4660   28.9260 C.3    71  LEU71       0.0019
     51  CD1       33.9110   48.3260   30.2500 C.3    71  LEU71       0.0001
     52  CD2       35.6690   47.3430   28.7500 C.3    71  LEU71       0.0001
     53  N         32.7400   47.9300   24.7350 N.am   72  ALA72      -0.1966
     54  CA        31.6370   48.0370   23.7900 C.3    72  ALA72       0.1728
     55  C         30.7820   46.7790   23.7270 C.2    72  ALA72       0.2616
     56  O         31.2330   45.6910   24.0760 O.2    72  ALA72      -0.2715
     57  CB        32.1580   48.3930   22.4070 C.3    72  ALA72       0.0334
     58  N         29.5480   46.9400   23.2690 N.am   73  ALA73      -0.1977
     59  CA        28.7000   45.8040   22.9590 C.3    73  ALA73       0.1597
     60  C         28.6550   45.6990   21.4470 C.2    73  ALA73       0.2287
     61  O         28.1340   46.5920   20.7800 O.2    73  ALA73      -0.2864
     62  CB        27.3110   46.0120   23.5280 C.3    73  ALA73       0.0319
     63  N         27.0790   52.2160   21.4940 N.3   135  TYR135     -0.1227
     64  CA        27.2560   51.2160   22.5510 C.3   135  TYR135      0.1736
     65  C         28.7190   51.0950   22.9570 C.2   135  TYR135      0.2595
     66  O         29.2370   49.9980   23.1520 O.2   135  TYR135     -0.2718
     67  CB        26.6730   49.8660   22.1390 C.3   135  TYR135      0.0548
     68  CG        25.2550   49.9910   21.6300 C.ar  135  TYR135     -0.0200
     69  CD1       24.1820   50.0450   22.5080 C.ar  135  TYR135     -0.0009
     70  CD2       24.9980   50.0910   20.2700 C.ar  135  TYR135     -0.0009
     71  CE1       22.8870   50.1710   22.0430 C.ar  135  TYR135      0.0417
     72  CE2       23.7100   50.2190   19.7970 C.ar  135  TYR135      0.0417
     73  CZ        22.6580   50.2580   20.6860 C.ar  135  TYR135      0.1957
     74  OH        21.3730   50.3890   20.2140 O.3   135  TYR135     -0.2866
     75  N         29.3600   52.2470   23.1150 N.am  136  ARG136     -0.1966
     76  CA        30.7700   52.3310   23.4560 C.3   136  ARG136      0.1729
     77  C         30.9480   53.2780   24.6260 C.2   136  ARG136      0.2616
     78  O         30.2520   54.2890   24.7280 O.2   136  ARG136     -0.2715
     79  CB        31.5600   52.8400   22.2510 C.3   136  ARG136      0.0348
     80  CG        32.1290   51.7400   21.3790 C.3   136  ARG136      0.0492
     81  CD        32.8090   52.2950   20.1410 C.3   136  ARG136      0.2205
     82  NE        34.0470   53.0040   20.4450 N.pl3 136  ARG136     -0.0865
     83  CZ        35.0310   53.1790   19.5690 C.cat 136  ARG136      0.5346
     84  NH1       34.9130   52.7000   18.3370 N.pl3 136  ARG136      0.1354
     85  NH2       36.1280   53.8390   19.9190 N.pl3 136  ARG136      0.1354
     86  N         31.8800   52.9510   25.5120 N.am  137  THR137     -0.1951
     87  CA        32.1200   53.7810   26.6830 C.3   137  THR137      0.1897
     88  C         32.7600   55.1270   26.3500 C.2   137  THR137      0.2313
     89  O         32.6420   56.0670   27.1300 O.2   137  THR137     -0.2863
     90  CB        32.9710   53.0370   27.7380 C.3   137  THR137      0.1794
     91  OG1       34.1910   52.5900   27.1380 O.3   137  THR137     -0.2208
     92  CG2       32.2220   51.8430   28.2940 C.3   137  THR137      0.0378
@<TRIPOS>BOND
     1    84    83    1
     2    39    37   am
     3    83    85    1
     4    83    82    2
     5    38    37    2
     6    72    70   ar
     7    72    73   ar
     8    37    36    1
     9    81    82    1
    10    81    80    1
    11    74    73    1
    12    70    68   ar
    13    73    71   ar
    14    61    60    2
    15    80    79    1
    16    36    35    1
    17    60    59    1
    18    63    64    1
    19    68    67    1
    20    68    69   ar
    21    35    32    1
    22    71    69   ar
    23    67    64    1
    24    79    76    1
    25    16    17    1
    26    57    54    1
    27    18    19    2
    28    18    17    1
    29    64    65    1
    30    30    29    2
    31    17    20    1
    32    65    75   am
    33    65    66    2
    34    59    58    1
    35    59    62    1
    36    75    76    1
    37    58    55   am
    38     1     2    1
    39    32    31    1
    40    32    33    1
    41    27    28    1
    42    29    31   am
    43    29    28    1
    44    76    77    1
    45     3     2    1
    46     3     4    2
    47    55    54    1
    48    55    56    2
    49    54    53    1
    50     2     5    1
    51    12    11    2
    52    20    21    1
    53    11    10    1
    54    33    40   am
    55    33    34    2
    56    43    42    2
    57     9    10    1
    58     9    15    1
    59    77    78    2
    60    77    86   am
    61    22    21   ar
    62    22    24   ar
    63    40    41    1
    64    53    47   am
    65    21    23   ar
    66    42    41    1
    67    48    47    2
    68    10    13    1
    69    24    26   ar
    70     8     6    1
    71    47    46    1
    72     5     6    1
    73    15    14    1
    74    23    25   ar
    75    86    87    1
    76    41    44    1
    77     6     7    1
    78    26    25   ar
    79    88    87    1
    80    88    89    2
    81    46    45    1
    82    46    49    1
    83    14    13    1
    84    87    90    1
    85    91    90    1
    86    90    92    1
    87    49    50    1
    88    52    50    1
    89    50    51    1
