@<TRIPOS>MOLECULE
tmp/4azlB03.pdb
 94 93 0 0 0
SMALL
GASTEIGER

@<TRIPOS>ATOM
      1  N         47.5960   33.6010   -3.8040 N.3   321  TRP321     -0.1241
      2  CA        48.1870   32.2890   -3.5760 C.3   321  TRP321      0.1605
      3  C         47.6240   31.7270   -2.2820 C.2   321  TRP321      0.2264
      4  O         47.3960   32.4660   -1.3300 O.2   321  TRP321     -0.2867
      5  CB        49.7040   32.4040   -3.4700 C.3   321  TRP321      0.0550
      6  CG        50.3640   31.1060   -3.1550 C.ar  321  TRP321      0.0003
      7  CD1       50.7020   30.1170   -4.0380 C.ar  321  TRP321      0.0946
      8  CD2       50.7620   30.6400   -1.8570 C.ar  321  TRP321      0.0152
      9  NE1       51.2880   29.0660   -3.3680 N.ar  321  TRP321     -0.2442
     10  CE2       51.3390   29.3630   -2.0300 C.ar  321  TRP321      0.0810
     11  CE3       50.6910   31.1790   -0.5680 C.ar  321  TRP321      0.0012
     12  CZ2       51.8410   28.6190   -0.9600 C.ar  321  TRP321      0.0191
     13  CZ3       51.1890   30.4380    0.4910 C.ar  321  TRP321      0.0001
     14  CH2       51.7560   29.1720    0.2880 C.ar  321  TRP321      0.0015
     15  N         47.7450   28.6130    4.6040 N.3   327  TYR327     -0.1227
     16  CA        48.2500   29.9300    4.2270 C.3   327  TYR327      0.1736
     17  C         47.4680   30.4910    3.0570 C.2   327  TYR327      0.2595
     18  O         46.9240   29.7410    2.2510 O.2   327  TYR327     -0.2718
     19  CB        49.6970   29.8350    3.7460 C.3   327  TYR327      0.0548
     20  CG        50.6800   29.2500    4.7280 C.ar  327  TYR327     -0.0200
     21  CD1       51.3110   30.0520    5.6690 C.ar  327  TYR327     -0.0009
     22  CD2       50.9800   27.8920    4.7120 C.ar  327  TYR327     -0.0009
     23  CE1       52.2160   29.5170    6.5700 C.ar  327  TYR327      0.0417
     24  CE2       51.8790   27.3490    5.6070 C.ar  327  TYR327      0.0417
     25  CZ        52.4950   28.1620    6.5340 C.ar  327  TYR327      0.1957
     26  OH        53.3920   27.6130    7.4190 O.3   327  TYR327     -0.2866
     27  N         47.4120   31.8160    2.9710 N.am  328  ASP328     -0.1974
     28  CA        46.9970   32.4850    1.7440 C.3   328  ASP328      0.1709
     29  C         47.6990   33.8400    1.6370 C.2   328  ASP328      0.2293
     30  O         48.2330   34.3490    2.6180 O.2   328  ASP328     -0.2864
     31  CB        45.4610   32.5900    1.6180 C.3   328  ASP328      0.1436
     32  CG        44.8170   33.5200    2.6440 C.2   328  ASP328      0.3671
     33  OD1       45.3790   34.5850    2.9670 O.co2 328  ASP328     -0.2456
     34  OD2       43.7070   33.1850    3.1140 O.co2 328  ASP328     -0.2456
     35  N         48.7610   38.8990    3.8040 N.3   369  VAL369     -0.1231
     36  CA        49.3540   37.5850    4.0080 C.3   369  VAL369      0.1692
     37  C         48.9030   37.0180    5.3480 C.2   369  VAL369      0.2593
     38  O         48.9320   37.7040    6.3690 O.2   369  VAL369     -0.2718
     39  CB        50.9030   37.6480    4.0200 C.3   369  VAL369      0.0266
     40  CG1       51.4830   36.2660    4.0840 C.3   369  VAL369      0.0020
     41  CG2       51.4390   38.3570    2.7860 C.3   369  VAL369      0.0020
     42  N         48.4610   35.7660    5.3290 N.am  370  THR370     -0.1939
     43  CA        47.8440   35.1590    6.4940 C.3   370  THR370      0.2028
     44  C         48.3620   33.7510    6.6990 C.2   370  THR370      0.2642
     45  O         48.5250   33.0020    5.7400 O.2   370  THR370     -0.2714
     46  CB        46.3270   35.0630    6.3260 C.3   370  THR370      0.1808
     47  OG1       45.8290   36.3160    5.8390 O.3   370  THR370     -0.2208
     48  CG2       45.6550   34.7350    7.6510 C.3   370  THR370      0.0379
     49  N         48.6150   33.3890    7.9510 N.am  371  LYS371     -0.1977
     50  CA        48.8040   31.9930    8.2980 C.3   371  LYS371      0.1596
     51  C         47.6600   31.6580    9.2380 C.2   371  LYS371      0.2287
     52  O         47.4220   32.3730   10.2140 O.2   371  LYS371     -0.2864
     53  CB        50.1460   31.7440    8.9940 C.3   371  LYS371      0.0298
     54  CG        50.2660   30.3530    9.5890 C.3   371  LYS371      0.0038
     55  CD        51.5960   30.1400   10.2910 C.3   371  LYS371      0.0206
     56  CE        51.6420   28.7560   10.9250 C.3   371  LYS371      0.1093
     57  NZ        52.5650   27.8240   10.2230 N.3   371  LYS371     -0.1314
     58  N         47.5140   34.6520   12.1110 N.3   393  ILE393     -0.1231
     59  CA        48.4340   35.7680   12.1450 C.3   393  ILE393      0.1692
     60  C         48.4300   36.3470   10.7240 C.2   393  ILE393      0.2592
     61  O         48.6310   35.6340    9.7380 O.2   393  ILE393     -0.2718
     62  CB        49.8540   35.3390   12.5870 C.3   393  ILE393      0.0266
     63  CG1       50.8210   36.5180   12.5160 C.3   393  ILE393      0.0019
     64  CG2       50.3690   34.2050   11.7300 C.3   393  ILE393      0.0020
     65  CD1       50.3860   37.7100   13.3220 C.3   393  ILE393      0.0001
     66  N         48.1260   37.6420   10.6290 N.am  394  ARG394     -0.1966
     67  CA        47.9420   38.3070    9.3410 C.3   394  ARG394      0.1729
     68  C         48.6430   39.6600    9.2340 C.2   394  ARG394      0.2616
     69  O         48.5400   40.4950   10.1250 O.2   394  ARG394     -0.2715
     70  CB        46.4380   38.5080    9.1240 C.3   394  ARG394      0.0348
     71  CG        46.0810   39.2170    7.8270 C.3   394  ARG394      0.0492
     72  CD        44.5760   39.3360    7.5800 C.3   394  ARG394      0.2205
     73  NE        43.9540   38.0720    7.1950 N.pl3 394  ARG394     -0.0865
     74  CZ        42.9120   37.5230    7.8160 C.cat 394  ARG394      0.5346
     75  NH1       42.3490   38.1310    8.8580 N.pl3 394  ARG394      0.1354
     76  NH2       42.4100   36.3720    7.3770 N.pl3 394  ARG394      0.1354
     77  N         49.3420   39.8700    8.1230 N.am  395  PHE395     -0.1974
     78  CA        49.8190   41.1940    7.7290 C.3   395  PHE395      0.1639
     79  C         48.8980   41.7900    6.6670 C.2   395  PHE395      0.2290
     80  O         48.5910   41.1200    5.6880 O.2   395  PHE395     -0.2864
     81  CB        51.2330   41.0850    7.1490 C.3   395  PHE395      0.0560
     82  CG        51.7470   42.3680    6.5530 C.ar  395  PHE395     -0.0200
     83  CD1       52.4000   43.2970    7.3480 C.ar  395  PHE395     -0.0042
     84  CD2       51.6010   42.6380    5.1980 C.ar  395  PHE395     -0.0042
     85  CE1       52.8750   44.4820    6.8130 C.ar  395  PHE395     -0.0003
     86  CE2       52.0760   43.8250    4.6550 C.ar  395  PHE395     -0.0003
     87  CZ        52.7160   44.7450    5.4650 C.ar  395  PHE395     -0.0000
     88  N         49.3600   44.4660   11.4540 N.3   419  VAL419     -0.1245
     89  CA        49.5150   43.0570   11.7800 C.3   419  VAL419      0.1561
     90  C         48.4740   42.6700   12.8190 C.2   419  VAL419      0.2260
     91  O         48.3020   43.3710   13.8170 O.2   419  VAL419     -0.2867
     92  CB        50.9020   42.7620   12.3590 C.3   419  VAL419      0.0252
     93  CG1       50.9940   41.3180   12.7990 C.3   419  VAL419      0.0019
     94  CG2       51.9750   43.0750   11.3350 C.3   419  VAL419      0.0019
@<TRIPOS>BOND
     1     7     9   ar
     2     7     6   ar
     3     1     2    1
     4     2     5    1
     5     2     3    1
     6     5     6    1
     7     9    10   ar
     8     6     8   ar
     9     3     4    2
    10    10     8   ar
    11    10    12   ar
    12     8    11   ar
    13    12    14   ar
    14    11    13   ar
    15    14    13   ar
    16    31    28    1
    17    31    32    1
    18    29    28    1
    19    29    30    2
    20    28    27    1
    21    18    17    2
    22    32    33   ar
    23    32    34   ar
    24    41    39    1
    25    27    17   am
    26    17    16    1
    27    19    16    1
    28    19    20    1
    29    35    36    1
    30    36    39    1
    31    36    37    1
    32    39    40    1
    33    16    15    1
    34    86    84   ar
    35    86    87   ar
    36    22    20   ar
    37    22    24   ar
    38    20    21   ar
    39    84    82   ar
    40    42    37   am
    41    42    43    1
    42    37    38    2
    43    87    85   ar
    44    24    25   ar
    45    21    23   ar
    46    80    79    2
    47    45    44    2
    48    47    46    1
    49    46    43    1
    50    46    48    1
    51    43    44    1
    52    25    23   ar
    53    25    26    1
    54    82    81    1
    55    82    83   ar
    56    79    78    1
    57    44    49   am
    58    85    83   ar
    59    81    78    1
    60    73    72    1
    61    73    74    2
    62    76    74    1
    63    72    71    1
    64    78    77    1
    65    74    75    1
    66    71    70    1
    67    49    50    1
    68    77    68   am
    69    50    53    1
    70    50    51    1
    71    53    54    1
    72    70    67    1
    73    68    67    1
    74    68    69    2
    75    51    52    2
    76    67    66    1
    77    54    55    1
    78    61    60    2
    79    57    56    1
    80    55    56    1
    81    66    60   am
    82    60    59    1
    83    94    92    1
    84    88    89    1
    85    64    62    1
    86    89    92    1
    87    89    90    1
    88    58    59    1
    89    59    62    1
    90    92    93    1
    91    63    62    1
    92    63    65    1
    93    90    91    2
