@<TRIPOS>MOLECULE
tmp/4azlA05.pdb
 101 99 0 0 0
SMALL
GASTEIGER

@<TRIPOS>ATOM
      1  N          1.4930    8.8360   -3.5840 N.3   209  TYR209     -0.1227
      2  CA         1.1910    7.4600   -3.9510 C.3   209  TYR209      0.1736
      3  C          2.3250    6.8360   -4.7510 C.2   209  TYR209      0.2595
      4  O          3.1070    7.5370   -5.3990 O.2   209  TYR209     -0.2718
      5  CB        -0.0960    7.4210   -4.7810 C.3   209  TYR209      0.0548
      6  CG         0.0230    8.1690   -6.0960 C.ar  209  TYR209     -0.0200
      7  CD1        0.4970    7.5400   -7.2450 C.ar  209  TYR209     -0.0009
      8  CD2       -0.2590    9.5300   -6.1660 C.ar  209  TYR209     -0.0009
      9  CE1        0.6240    8.2310   -8.4380 C.ar  209  TYR209      0.0417
     10  CE2       -0.1180   10.2300   -7.3500 C.ar  209  TYR209      0.0417
     11  CZ         0.3200    9.5760   -8.4820 C.ar  209  TYR209      0.1957
     12  OH         0.4730   10.2750   -9.6590 O.3   209  TYR209     -0.2866
     13  N          2.3870    5.5120   -4.7310 N.am  210  TRP210     -0.1962
     14  CA         3.2020    4.7540   -5.6670 C.3   210  TRP210      0.1771
     15  C          2.3920    3.5970   -6.2140 C.2   210  TRP210      0.2619
     16  O          1.5160    3.0650   -5.5340 O.2   210  TRP210     -0.2715
     17  CB         4.4940    4.2720   -5.0140 C.3   210  TRP210      0.0590
     18  CG         4.2900    3.2980   -3.9020 C.ar  210  TRP210      0.0006
     19  CD1        4.2640    1.9380   -3.9940 C.ar  210  TRP210      0.0946
     20  CD2        4.0910    3.6140   -2.5240 C.ar  210  TRP210      0.0152
     21  NE1        4.0630    1.3860   -2.7560 N.ar  210  TRP210     -0.2442
     22  CE2        3.9580    2.3950   -1.8340 C.ar  210  TRP210      0.0810
     23  CE3        4.0170    4.8110   -1.8060 C.ar  210  TRP210      0.0012
     24  CZ2        3.7510    2.3370   -0.4530 C.ar  210  TRP210      0.0191
     25  CZ3        3.8110    4.7540   -0.4360 C.ar  210  TRP210      0.0001
     26  CH2        3.6780    3.5260    0.2250 C.ar  210  TRP210      0.0015
     27  N          2.6810    3.2160   -7.4470 N.am  211  ALA211     -0.1977
     28  CA         2.1090    2.0070   -8.0110 C.3   211  ALA211      0.1597
     29  C          3.0850    1.4360   -9.0180 C.2   211  ALA211      0.2287
     30  O          3.5930    2.1520   -9.8810 O.2   211  ALA211     -0.2864
     31  CB         0.7790    2.3160   -8.6900 C.3   211  ALA211      0.0319
     32  N          1.5620   -1.3170   -4.3490 N.3   242  LEU242     -0.1231
     33  CA         0.7390   -0.1160   -4.3730 C.3   242  LEU242      0.1693
     34  C          0.7530    0.5270   -2.9960 C.2   242  LEU242      0.2593
     35  O          0.8060   -0.1590   -1.9770 O.2   242  LEU242     -0.2718
     36  CB        -0.7120   -0.4780   -4.6820 C.3   242  LEU242      0.0284
     37  CG        -0.9780   -1.4530   -5.8290 C.3   242  LEU242      0.0019
     38  CD1       -2.4260   -1.9020   -5.8140 C.3   242  LEU242      0.0001
     39  CD2       -0.6440   -0.7860   -7.1480 C.3   242  LEU242      0.0001
     40  N          0.7200    1.8530   -2.9680 N.am  243  GLY243     -0.1942
     41  CA         0.6900    2.5840   -1.7180 C.3   243  GLY243      0.2014
     42  C          0.1320    3.9850   -1.8310 C.2   243  GLY243      0.2638
     43  O          0.2090    4.6220   -2.8800 O.2   243  GLY243     -0.2714
     44  N         -0.4380    4.4580   -0.7330 N.am  244  LEU244     -0.1977
     45  CA        -1.0680    5.7630   -0.6710 C.3   244  LEU244      0.1596
     46  C         -0.7150    6.3800    0.6670 C.2   244  LEU244      0.2287
     47  O         -0.8380    5.7250    1.6960 O.2   244  LEU244     -0.2864
     48  CB        -2.5820    5.6050   -0.7940 C.3   244  LEU244      0.0297
     49  CG        -3.4460    6.8730   -0.7650 C.3   244  LEU244      0.0022
     50  CD1       -3.1750    7.7960   -1.9380 C.3   244  LEU244      0.0001
     51  CD2       -4.9070    6.4760   -0.7520 C.3   244  LEU244      0.0001
     52  N         -1.1840    3.5090    3.6360 N.3   256  VAL256     -0.1231
     53  CA        -1.4820    2.0950    3.4900 C.3   256  VAL256      0.1692
     54  C         -0.7010    1.5880    2.2900 C.2   256  VAL256      0.2593
     55  O         -0.4220    2.3390    1.3540 O.2   256  VAL256     -0.2718
     56  CB        -3.0070    1.8530    3.2920 C.3   256  VAL256      0.0266
     57  CG1       -3.8140    2.3980    4.4550 C.3   256  VAL256      0.0020
     58  CG2       -3.4880    2.4550    1.9840 C.3   256  VAL256      0.0020
     59  N         -0.3360    0.3120    2.3230 N.am  257  GLY257     -0.1942
     60  CA         0.4010   -0.2860    1.2300 C.3   257  GLY257      0.2014
     61  C         -0.0920   -1.6880    0.9550 C.2   257  GLY257      0.2638
     62  O         -0.6070   -2.3630    1.8410 O.2   257  GLY257     -0.2714
     63  N          0.0490   -2.1260   -0.2890 N.am  258  TYR258     -0.1973
     64  CA        -0.2280   -3.5060   -0.6240 C.3   258  TYR258      0.1639
     65  C          0.8050   -3.9700   -1.6430 C.2   258  TYR258      0.2290
     66  O          1.1360   -3.2390   -2.5690 O.2   258  TYR258     -0.2864
     67  CB        -1.6430   -3.6520   -1.1810 C.3   258  TYR258      0.0560
     68  CG        -1.9290   -5.0380   -1.7060 C.ar  258  TYR258     -0.0198
     69  CD1       -2.3380   -6.0420   -0.8360 C.ar  258  TYR258     -0.0009
     70  CD2       -1.7730   -5.3560   -3.0490 C.ar  258  TYR258     -0.0009
     71  CE1       -2.5990   -7.3160   -1.2840 C.ar  258  TYR258      0.0417
     72  CE2       -2.0250   -6.6340   -3.5080 C.ar  258  TYR258      0.0417
     73  CZ        -2.4410   -7.6100   -2.6180 C.ar  258  TYR258      0.1957
     74  OH        -2.6990   -8.8900   -3.0500 O.3   258  TYR258     -0.2866
     75  N          2.3670   -7.7350   -3.7470 N.3   260  ARG260     -0.1245
     76  CA         2.1780   -9.1540   -3.9980 C.3   260  ARG260      0.1563
     77  C          3.1500   -9.6600   -5.0600 C.2   260  ARG260      0.2260
     78  O          3.3000   -9.0530   -6.1200 O.2   260  ARG260     -0.2867
     79  CB         0.7400   -9.3750   -4.4800 C.3   260  ARG260      0.0307
     80  CG         0.4190  -10.7850   -4.9390 C.3   260  ARG260      0.0489
     81  CD        -0.9600  -10.8530   -5.5970 C.3   260  ARG260      0.2205
     82  NE        -1.4190  -12.2310   -5.7730 N.pl3 260  ARG260     -0.0865
     83  CZ        -1.1080  -13.0060   -6.8090 C.cat 260  ARG260      0.5346
     84  NH1       -0.3100  -12.5510   -7.7700 N.pl3 260  ARG260      0.1354
     85  NH2       -1.5900  -14.2430   -6.8820 N.pl3 260  ARG260      0.1354
     86  N          2.1760  -12.2170   -0.2060 N.3   306  GLN306     -0.1245
     87  CA         1.2590  -11.0970   -0.2300 C.3   306  GLN306      0.1566
     88  C          1.4380  -10.3560    1.0990 C.2   306  GLN306      0.2260
     89  O          1.5750  -10.9860    2.1480 O.2   306  GLN306     -0.2867
     90  CB        -0.1340  -11.6890   -0.3740 C.3   306  GLN306      0.0367
     91  CG        -1.2480  -10.7080   -0.5930 C.3   306  GLN306      0.0905
     92  CD        -2.4980  -11.4020   -1.0960 C.2   306  GLN306      0.2608
     93  OE1       -3.4790  -10.7510   -1.4490 O.2   306  GLN306     -0.2717
     94  NE2       -2.4610  -12.7330   -1.1480 N.am  306  GLN306     -0.0878
     95  N          1.0270  -16.7980   -1.0830 N.3   332  VAL332     -0.1245
     96  CA         0.1270  -16.8060   -2.2280 C.3   332  VAL332      0.1561
     97  C         -0.2350  -18.2510   -2.6060 C.2   332  VAL332      0.2260
     98  O         -1.4060  -18.5890   -2.7750 O.2   332  VAL332     -0.2867
     99  CB         0.7290  -16.0350   -3.4090 C.3   332  VAL332      0.0252
    100  CG1        0.0150  -16.3840   -4.7050 C.3   332  VAL332      0.0019
    101  CG2        0.6550  -14.5390   -3.1380 C.3   332  VAL332      0.0019
@<TRIPOS>BOND
     1    30    29    2
     2    12    11    1
     3    29    28    1
     4    31    28    1
     5    11     9   ar
     6    11    10   ar
     7     9     7   ar
     8    28    27    1
     9    84    83    1
    10    27    15   am
    11    10     8   ar
    12     7     6   ar
    13    39    37    1
    14    85    83    1
    15    83    82    2
    16    15    14    1
    17    15    16    2
    18     8     6   ar
    19    78    77    2
    20     6     5    1
    21    37    38    1
    22    37    36    1
    23    82    81    1
    24    14    17    1
    25    14    13    1
    26    81    80    1
    27     4     3    2
    28    77    76    1
    29    17    18    1
    30    80    79    1
    31     5     2    1
    32     3    13   am
    33     3     2    1
    34   100    99    1
    35    36    33    1
    36    79    76    1
    37    33    32    1
    38    33    34    1
    39    76    75    1
    40    19    18   ar
    41    19    21   ar
    42     2     1    1
    43    18    20   ar
    44    72    70   ar
    45    72    73   ar
    46    99   101    1
    47    99    96    1
    48    74    73    1
    49    70    68   ar
    50    34    40   am
    51    34    35    2
    52    40    41    1
    53    43    42    2
    54    98    97    2
    55    21    22   ar
    56    73    71   ar
    57    97    96    1
    58    66    65    2
    59    20    22   ar
    60    20    23   ar
    61    96    95    1
    62    50    49    1
    63    22    24   ar
    64    42    41    1
    65    42    44   am
    66    23    25   ar
    67    68    67    1
    68    68    69   ar
    69    65    64    1
    70    93    92    2
    71    71    69   ar
    72    67    64    1
    73    94    92   am
    74    92    91    1
    75    48    49    1
    76    48    45    1
    77    49    51    1
    78    44    45    1
    79    45    46    1
    80    64    63    1
    81    91    90    1
    82    24    26   ar
    83    25    26   ar
    84    90    87    1
    85    63    61   am
    86    87    86    1
    87    87    88    1
    88    46    47    2
    89    61    60    1
    90    61    62    2
    91    88    89    2
    92    60    59    1
    93    55    54    2
    94    58    56    1
    95    54    59   am
    96    54    53    1
    97    56    53    1
    98    56    57    1
    99    53    52    1
