@<TRIPOS>MOLECULE
tmp/4azlB01.pdb
 74 69 0 0 0
SMALL
GASTEIGER

@<TRIPOS>ATOM
      1  N         45.4780   45.6160   22.3970 N.3    31  ILE31      -0.1245
      2  CA        44.8530   44.3190   22.6350 C.3    31  ILE31       0.1561
      3  C         43.3250   44.4540   22.5390 C.2    31  ILE31       0.2260
      4  O         42.7570   45.4800   22.9280 O.2    31  ILE31      -0.2867
      5  CB        45.2930   43.7290   24.0120 C.3    31  ILE31       0.0252
      6  CG1       44.6960   42.3350   24.2370 C.3    31  ILE31       0.0019
      7  CG2       44.9720   44.6880   25.1470 C.3    31  ILE31       0.0019
      8  CD1       45.5380   41.4520   25.1310 C.3    31  ILE31       0.0001
      9  N         39.7620   42.2420   23.2880 N.3    33  LEU33      -0.1245
     10  CA        39.1660   41.0440   23.8670 C.3    33  LEU33       0.1561
     11  C         37.6660   40.9550   23.5970 C.2    33  LEU33       0.2260
     12  O         36.9270   41.9000   23.8690 O.2    33  LEU33      -0.2867
     13  CB        39.4040   41.0030   25.3740 C.3    33  LEU33       0.0270
     14  CG        40.8740   41.0950   25.7790 C.3    33  LEU33       0.0019
     15  CD1       41.0120   41.2280   27.2820 C.3    33  LEU33       0.0001
     16  CD2       41.6380   39.8940   25.2690 C.3    33  LEU33       0.0001
     17  N         36.4940   44.6240   24.6990 N.3    52  ALA52      -0.1231
     18  CA        37.2910   45.5020   25.5410 C.3    52  ALA52       0.1694
     19  C         38.6010   45.7350   24.8140 C.2    52  ALA52       0.2592
     20  O         39.2580   44.7900   24.3750 O.2    52  ALA52      -0.2718
     21  CB        37.5350   44.8730   26.8930 C.3    52  ALA52       0.0304
     22  N         38.9980   47.0000   24.7320 N.am   53  VAL53      -0.1966
     23  CA        40.1560   47.3840   23.9410 C.3    53  VAL53       0.1727
     24  C         41.0670   48.2580   24.7860 C.2    53  VAL53       0.2616
     25  O         40.5970   49.1410   25.5010 O.2    53  VAL53      -0.2715
     26  CB        39.6990   48.1850   22.6940 C.3    53  VAL53       0.0290
     27  CG1       40.8870   48.7550   21.9470 C.3    53  VAL53       0.0023
     28  CG2       38.8680   47.3100   21.7710 C.3    53  VAL53       0.0023
     29  N         42.3700   48.0050   24.7000 N.am   54  ALA54      -0.1977
     30  CA        43.3670   48.9020   25.2680 C.3    54  ALA54       0.1597
     31  C         44.5150   49.0830   24.2880 C.2    54  ALA54       0.2287
     32  O         45.1240   48.1080   23.8410 O.2    54  ALA54      -0.2864
     33  CB        43.8980   48.3240   26.5760 C.3    54  ALA54       0.0319
     34  N         38.5640   57.0760   22.8540 N.3    67  ASP67      -0.1239
     35  CA        39.6650   56.8590   23.7850 C.3    67  ASP67       0.1674
     36  C         40.5540   55.6920   23.3490 C.2    67  ASP67       0.2266
     37  O         40.1540   54.8440   22.5460 O.2    67  ASP67      -0.2867
     38  CB        39.0920   56.4890   25.1500 C.3    67  ASP67       0.1410
     39  CG        38.4090   57.6590   25.8310 C.2    67  ASP67       0.3668
     40  OD1       38.7630   58.8160   25.5220 O.co2  67  ASP67      -0.2456
     41  OD2       37.5180   57.4210   26.6750 O.co2  67  ASP67      -0.2456
     42  N         41.3110   53.3770   25.2140 N.3    69  SER69      -0.1202
     43  CA        40.6770   52.2020   25.7850 C.3    69  SER69       0.2020
     44  C         39.1960   52.4290   26.0050 C.2    69  SER69       0.2619
     45  O         38.7710   53.5320   26.3400 O.2    69  SER69      -0.2717
     46  CB        41.3270   51.8350   27.1170 C.3    69  SER69       0.2103
     47  OG        42.7140   51.6060   26.9620 O.3    69  SER69      -0.2182
     48  N         38.4130   51.3750   25.8060 N.am   70  TYR70      -0.1961
     49  CA        36.9650   51.4650   25.9220 C.3    70  TYR70       0.1771
     50  C         36.3470   50.0840   26.0460 C.2    70  TYR70       0.2619
     51  O         37.0140   49.0750   25.8170 O.2    70  TYR70      -0.2715
     52  CB        36.3470   52.1980   24.7310 C.3    70  TYR70       0.0574
     53  CG        36.6360   51.5860   23.3800 C.ar   70  TYR70      -0.0198
     54  CD1       37.7420   51.9810   22.6390 C.ar   70  TYR70      -0.0009
     55  CD2       35.7780   50.6430   22.8240 C.ar   70  TYR70      -0.0009
     56  CE1       37.9980   51.4370   21.3920 C.ar   70  TYR70       0.0417
     57  CE2       36.0260   50.0930   21.5780 C.ar   70  TYR70       0.0417
     58  CZ        37.1390   50.4960   20.8670 C.ar   70  TYR70       0.1957
     59  OH        37.4010   49.9580   19.6280 O.3    70  TYR70      -0.2866
     60  N         35.0660   50.0490   26.4010 N.am   71  LEU71      -0.1977
     61  CA        34.3070   48.8100   26.3680 C.3    71  LEU71       0.1596
     62  C         33.2040   49.0150   25.3410 C.2    71  LEU71       0.2287
     63  O         32.7840   50.1440   25.0940 O.2    71  LEU71      -0.2864
     64  CB        33.6930   48.5150   27.7390 C.3    71  LEU71       0.0297
     65  CG        34.6590   48.4660   28.9260 C.3    71  LEU71       0.0022
     66  CD1       33.9110   48.3260   30.2500 C.3    71  LEU71       0.0001
     67  CD2       35.6690   47.3430   28.7500 C.3    71  LEU71       0.0001
     68  N         31.8800   52.9510   25.5120 N.3   137  THR137     -0.1218
     69  CA        32.1200   53.7810   26.6830 C.3   137  THR137      0.1862
     70  C         32.7600   55.1270   26.3500 C.2   137  THR137      0.2287
     71  O         32.6420   56.0670   27.1300 O.2   137  THR137     -0.2866
     72  CB        32.9710   53.0370   27.7380 C.3   137  THR137      0.1770
     73  OG1       34.1910   52.5900   27.1380 O.3   137  THR137     -0.2211
     74  CG2       32.2220   51.8430   28.2940 C.3   137  THR137      0.0375
@<TRIPOS>BOND
     1    59    58    1
     2    58    56   ar
     3    58    57   ar
     4    56    54   ar
     5    57    55   ar
     6    28    26    1
     7    27    26    1
     8     1     2    1
     9     3     2    1
    10     3     4    2
    11    37    36    2
    12     2     5    1
    13    54    53   ar
    14    26    23    1
    15    55    53   ar
    16    34    35    1
    17     9    10    1
    18    36    35    1
    19    53    52    1
    20    11    10    1
    21    11    12    2
    22    35    38    1
    23    32    31    2
    24    10    13    1
    25    23    22    1
    26    23    24    1
    27     5     6    1
    28     5     7    1
    29     6     8    1
    30    31    30    1
    31    20    19    2
    32    17    18    1
    33    29    24   am
    34    29    30    1
    35    52    49    1
    36    22    19   am
    37    24    25    2
    38    19    18    1
    39    63    62    2
    40    38    39    1
    41    42    43    1
    42    30    33    1
    43    16    14    1
    44    62    61    1
    45    13    14    1
    46    68    69    1
    47    40    39   ar
    48    18    21    1
    49    14    15    1
    50    43    44    1
    51    43    46    1
    52    48    49    1
    53    48    44   am
    54    51    50    2
    55    39    41   ar
    56    49    50    1
    57    44    45    2
    58    50    60   am
    59    70    69    1
    60    70    71    2
    61    61    60    1
    62    61    64    1
    63    69    72    1
    64    47    46    1
    65    73    72    1
    66    72    74    1
    67    64    65    1
    68    67    65    1
    69    65    66    1
