@<TRIPOS>MOLECULE
tmp/4azlA03.pdb
 97 89 0 0 0
SMALL
GASTEIGER

@<TRIPOS>ATOM
      1  N         16.3900  -12.0840   18.2740 N.3    15  ASN15      -0.1225
      2  CA        15.8300  -13.1930   19.0480 C.3    15  ASN15       0.1785
      3  C         14.3980  -13.4600   18.6200 C.2    15  ASN15       0.2597
      4  O         13.5320  -12.6240   18.8560 O.2    15  ASN15      -0.2718
      5  CB        15.8130  -12.8000   20.5240 C.3    15  ASN15       0.1169
      6  CG        15.7140  -14.0010   21.4530 C.2    15  ASN15       0.2627
      7  OD1       15.9070  -15.1450   21.0420 O.2    15  ASN15      -0.2716
      8  ND2       15.3960  -13.7410   22.7160 N.am   15  ASN15      -0.0877
      9  N         14.1340  -14.5940   17.9790 N.am   16  ASP16      -0.1974
     10  CA        15.1310  -15.5910   17.6390 C.3    16  ASP16       0.1709
     11  C         14.9110  -15.8950   16.1650 C.2    16  ASP16       0.2293
     12  O         13.8060  -16.2460   15.7510 O.2    16  ASP16      -0.2864
     13  CB        14.8680  -16.8280   18.5050 C.3    16  ASP16       0.1436
     14  CG        15.7140  -18.0350   18.1220 C.2    16  ASP16       0.3671
     15  OD1       16.4040  -18.0260   17.0810 O.co2  16  ASP16      -0.2456
     16  OD2       15.6750  -19.0220   18.8870 O.co2  16  ASP16      -0.2456
     17  N          5.8850    4.2780   12.6850 N.3   324  LEU324     -0.1245
     18  CA         5.3560    3.0500   13.2420 C.3   324  LEU324      0.1561
     19  C          4.6560    2.3070   12.1010 C.2   324  LEU324      0.2260
     20  O          3.7590    2.8460   11.4570 O.2   324  LEU324     -0.2867
     21  CB         4.3370    3.4090   14.3250 C.3   324  LEU324      0.0270
     22  CG         3.6850    2.2860   15.1220 C.3   324  LEU324      0.0019
     23  CD1        4.7370    1.5510   15.9340 C.3   324  LEU324      0.0001
     24  CD2        2.6150    2.8650   16.0390 C.3   324  LEU324      0.0001
     25  N          5.0980   -5.5550   13.8160 N.3   358  LEU358     -0.1245
     26  CA         5.0310   -4.1410   14.1650 C.3   358  LEU358      0.1561
     27  C          6.4450   -3.5750   14.2200 C.2   358  LEU358      0.2260
     28  O          7.3380   -4.1810   14.8020 O.2   358  LEU358     -0.2867
     29  CB         4.3570   -3.9850   15.5260 C.3   358  LEU358      0.0270
     30  CG         3.8410   -2.5870   15.8570 C.3   358  LEU358      0.0019
     31  CD1        2.7810   -2.1670   14.8350 C.3   358  LEU358      0.0001
     32  CD2        3.2830   -2.5340   17.2820 C.3   358  LEU358      0.0001
     33  N          9.1520   -0.0340   14.5890 N.3   360  LEU360     -0.1245
     34  CA         9.3300    1.3260   15.0630 C.3   360  LEU360      0.1561
     35  C         10.7170    1.8090   14.6740 C.2   360  LEU360      0.2260
     36  O         11.7060    1.1170   14.9020 O.2   360  LEU360     -0.2867
     37  CB         9.1410    1.3730   16.5830 C.3   360  LEU360      0.0270
     38  CG         9.4740    2.6690   17.3320 C.3   360  LEU360      0.0019
     39  CD1        8.5080    3.7730   16.9570 C.3   360  LEU360      0.0001
     40  CD2        9.4280    2.4280   18.8290 C.3   360  LEU360      0.0001
     41  N         17.1010    4.3670   16.7940 N.3   388  PHE388     -0.1241
     42  CA        16.6000    3.0450   17.1670 C.3   388  PHE388      0.1605
     43  C         15.8000    2.4460   16.0090 C.2   388  PHE388      0.2264
     44  O         14.9340    3.1210   15.4570 O.2   388  PHE388     -0.2867
     45  CB        15.6830    3.1610   18.3940 C.3   388  PHE388      0.0534
     46  CG        14.9810    1.8830   18.7500 C.ar  388  PHE388     -0.0203
     47  CD1       15.5880    0.9630   19.5870 C.ar  388  PHE388     -0.0042
     48  CD2       13.7150    1.6060   18.2660 C.ar  388  PHE388     -0.0042
     49  CE1       14.9570   -0.2170   19.9180 C.ar  388  PHE388     -0.0003
     50  CE2       13.0740    0.4240   18.5960 C.ar  388  PHE388     -0.0003
     51  CZ        13.6920   -0.4860   19.4230 C.ar  388  PHE388     -0.0000
     52  N         13.6060   -1.1280   15.3210 N.3   390  GLY390     -0.1210
     53  CA        13.1650   -2.3990   15.8660 C.3   390  GLY390      0.1956
     54  C         11.9470   -2.9810   15.1750 C.2   390  GLY390      0.2612
     55  O         11.0950   -2.2540   14.6600 O.2   390  GLY390     -0.2717
     56  N         11.8680   -4.3070   15.1590 N.am  391  GLY391     -0.1942
     57  CA        10.7320   -4.9920   14.5710 C.3   391  GLY391      0.2014
     58  C         10.2940   -6.1560   15.4440 C.2   391  GLY391      0.2638
     59  O         11.1120   -6.9370   15.9230 O.2   391  GLY391     -0.2714
     60  N          8.9830   -6.2820   15.6160 N.am  392  LEU392     -0.1977
     61  CA         8.4080   -7.3760   16.3820 C.3   392  LEU392      0.1596
     62  C          7.5570   -8.2420   15.4690 C.2   392  LEU392      0.2287
     63  O          6.5660   -7.7770   14.9140 O.2   392  LEU392     -0.2864
     64  CB         7.5190   -6.7780   17.4700 C.3   392  LEU392      0.0297
     65  CG         6.8240   -7.7300   18.4370 C.3   392  LEU392      0.0022
     66  CD1        7.8700   -8.4860   19.2150 C.3   392  LEU392      0.0001
     67  CD2        5.9010   -6.9610   19.3660 C.3   392  LEU392      0.0001
     68  N          8.5920  -20.4670   18.5120 N.3   404  ASP404     -0.1239
     69  CA         8.3280  -19.3520   19.4070 C.3   404  ASP404      0.1674
     70  C          7.1470  -18.5630   18.8560 C.2   404  ASP404      0.2266
     71  O          6.9430  -18.5080   17.6450 O.2   404  ASP404     -0.2867
     72  CB         9.5570  -18.4560   19.5320 C.3   404  ASP404      0.1410
     73  CG        10.7210  -19.1570   20.2230 C.2   404  ASP404      0.3668
     74  OD1       10.4730  -20.1000   21.0090 O.co2 404  ASP404     -0.2456
     75  OD2       11.8900  -18.7620   19.9920 O.co2 404  ASP404     -0.2456
     76  N          6.8350  -15.3340   19.2770 N.3   406  THR406     -0.1218
     77  CA         7.2960  -13.9840   19.0160 C.3   406  THR406      0.1862
     78  C          8.7990  -14.0080   18.7600 C.2   406  THR406      0.2287
     79  O          9.5280  -14.8330   19.3130 O.2   406  THR406     -0.2866
     80  CB         7.0380  -13.1170   20.2730 C.3   406  THR406      0.1770
     81  OG1        5.6460  -12.7800   20.3340 O.3   406  THR406     -0.2211
     82  CG2        7.8490  -11.8320   20.2680 C.3   406  THR406      0.0375
     83  N         12.0600  -10.9430   17.6910 N.3   408  HIS408     -0.1241
     84  CA        12.3440   -9.5400   17.4280 C.3   408  HIS408      0.1621
     85  C         13.7440   -9.3930   16.8590 C.2   408  HIS408      0.2264
     86  O         14.6010  -10.2590   17.0310 O.2   408  HIS408     -0.2867
     87  CB        12.2260   -8.7130   18.7080 C.3   408  HIS408      0.0745
     88  CG        13.3950   -8.8530   19.6300 C.ar  408  HIS408      0.0817
     89  ND1       13.4870   -9.8440   20.5830 N.ar  408  HIS408     -0.2268
     90  CD2       14.5270   -8.1170   19.7440 C.ar  408  HIS408      0.1154
     91  CE1       14.6240   -9.7120   21.2440 C.ar  408  HIS408      0.1986
     92  NE2       15.2740   -8.6730   20.7530 N.ar  408  HIS408     -0.2212
     93  N         16.2650   -5.7990   16.7720 N.3   410  ALA410     -0.1245
     94  CA        16.3310   -4.3650   17.0410 C.3   410  ALA410      0.1562
     95  C         17.7600   -3.8450   16.9820 C.2   410  ALA410      0.2260
     96  O         18.7070   -4.5570   17.2940 O.2   410  ALA410     -0.2867
     97  CB        15.7140   -4.0340   18.3940 C.3   410  ALA410      0.0290
@<TRIPOS>BOND
     1    20    19    2
     2    19    18    1
     3    17    18    1
     4    18    21    1
     5    25    26    1
     6    26    27    1
     7    26    29    1
     8    27    28    2
     9    21    22    1
    10    57    56    1
    11    57    58    1
    12    33    34    1
    13    55    54    2
    14    35    36    2
    15    35    34    1
    16    31    30    1
    17    63    62    2
    18    34    37    1
    19    22    23    1
    20    22    24    1
    21    56    54   am
    22    54    53    1
    23    52    53    1
    24    58    60   am
    25    58    59    2
    26    44    43    2
    27    62    61    1
    28    29    30    1
    29    60    61    1
    30    12    11    2
    31    30    32    1
    32    43    42    1
    33    11    10    1
    34    61    64    1
    35    37    38    1
    36    93    94    1
    37    41    42    1
    38    85    86    2
    39    85    84    1
    40    39    38    1
    41    95    94    1
    42    95    96    2
    43    94    97    1
    44    15    14   ar
    45    42    45    1
    46    38    40    1
    47    84    83    1
    48    84    87    1
    49    64    65    1
    50    10     9    1
    51    10    13    1
    52    71    70    2
    53     9     3   am
    54    14    13    1
    55    14    16   ar
    56    48    50   ar
    57    48    46   ar
    58     1     2    1
    59    45    46    1
    60    65    66    1
    61    65    67    1
    62    68    69    1
    63    50    51   ar
    64     3     4    2
    65     3     2    1
    66    87    88    1
    67    46    47   ar
    68    78    77    1
    69    78    79    2
    70    70    69    1
    71    77    76    1
    72    77    80    1
    73     2     5    1
    74    69    72    1
    75    51    49   ar
    76    72    73    1
    77    47    49   ar
    78    88    90   ar
    79    88    89   ar
    80    90    92   ar
    81    75    73   ar
    82    73    74   ar
    83    82    80    1
    84    80    81    1
    85     5     6    1
    86    89    91   ar
    87    92    91   ar
    88     7     6    2
    89     6     8   am
