@<TRIPOS>MOLECULE
tmp/4azmB00.pdb
 105 95 0 0 0
SMALL
GASTEIGER

@<TRIPOS>ATOM
      1  N         25.6660   11.9800   18.6500 N.3    12  LEU12      -0.1245
      2  CA        26.6090   12.0840   19.7630 C.3    12  LEU12       0.1561
      3  C         26.7870   13.5290   20.1970 C.2    12  LEU12       0.2260
      4  O         27.0530   14.4050   19.3770 O.2    12  LEU12      -0.2867
      5  CB        27.9570   11.4730   19.3860 C.3    12  LEU12       0.0270
      6  CG        29.0200   11.3710   20.4830 C.3    12  LEU12       0.0019
      7  CD1       28.7140   10.2760   21.5210 C.3    12  LEU12       0.0001
      8  CD2       30.3490   11.1130   19.8130 C.3    12  LEU12       0.0001
      9  N         36.6190    7.5320   26.5480 N.3    18  PHE18      -0.1241
     10  CA        36.6640    6.7430   25.3210 C.3    18  PHE18       0.1605
     11  C         38.0390    6.1340   25.1510 C.2    18  PHE18       0.2264
     12  O         38.1750    4.9090   25.0370 O.2    18  PHE18      -0.2867
     13  CB        36.3230    7.6090   24.1240 C.3    18  PHE18       0.0534
     14  CG        36.2020    6.8510   22.8290 C.ar   18  PHE18      -0.0203
     15  CD1       37.3370    6.4690   22.1160 C.ar   18  PHE18      -0.0042
     16  CD2       34.9490    6.5620   22.2960 C.ar   18  PHE18      -0.0042
     17  CE1       37.2250    5.7800   20.9080 C.ar   18  PHE18      -0.0003
     18  CE2       34.8250    5.8880   21.0840 C.ar   18  PHE18      -0.0003
     19  CZ        35.9630    5.4880   20.3910 C.ar   18  PHE18      -0.0000
     20  N         38.7710    3.4650   27.7680 N.3    21  TYR21      -0.1227
     21  CA        37.9970    2.2320   27.5720 C.3    21  TYR21       0.1736
     22  C         38.6000    1.4180   26.4370 C.2    21  TYR21       0.2595
     23  O         38.7550    0.1970   26.5610 O.2    21  TYR21      -0.2718
     24  CB        36.4960    2.5150   27.3530 C.3    21  TYR21       0.0548
     25  CG        35.6770    1.3110   26.9430 C.ar   21  TYR21      -0.0200
     26  CD1       35.3670    0.3140   27.8540 C.ar   21  TYR21      -0.0009
     27  CD2       35.1980    1.1780   25.6370 C.ar   21  TYR21      -0.0009
     28  CE1       34.6310   -0.8080   27.4760 C.ar   21  TYR21       0.0417
     29  CE2       34.4380    0.0540   25.2470 C.ar   21  TYR21       0.0417
     30  CZ        34.1730   -0.9380   26.1780 C.ar   21  TYR21       0.1957
     31  OH        33.4460   -2.0600   25.8250 O.3    21  TYR21      -0.2866
     32  N         38.9620    2.0940   25.3450 N.am   22  MET22      -0.1979
     33  CA        39.6120    1.4290   24.2210 C.3    22  MET22       0.1605
     34  C         40.9580    0.8080   24.6180 C.2    22  MET22       0.2287
     35  O         41.2900   -0.3000   24.1850 O.2    22  MET22      -0.2864
     36  CB        39.8180    2.4050   23.0690 C.3    22  MET22       0.0413
     37  CG        38.5710    2.7470   22.2790 C.3    22  MET22       0.0598
     38  SD        37.8910    1.2730   21.5110 S.3    22  MET22      -0.1393
     39  CE        37.5900    1.8780   19.8510 C.3    22  MET22       0.0692
     40  N         40.4150   -2.3970   26.2710 N.3    25  LEU25      -0.1245
     41  CA        40.1430   -3.4790   25.2990 C.3    25  LEU25       0.1561
     42  C         41.3840   -3.9780   24.5290 C.2    25  LEU25       0.2260
     43  O         41.3200   -5.0040   23.8490 O.2    25  LEU25      -0.2867
     44  CB        39.0340   -3.0870   24.3100 C.3    25  LEU25       0.0270
     45  CG        37.6170   -2.8580   24.8400 C.3    25  LEU25       0.0019
     46  CD1       36.7210   -2.3510   23.7410 C.3    25  LEU25       0.0001
     47  CD2       37.0350   -4.1140   25.4430 C.3    25  LEU25       0.0001
     48  N         43.1320   -1.8660   22.2380 N.3    27  VAL27      -0.1245
     49  CA        42.9630   -1.2750   20.9120 C.3    27  VAL27       0.1561
     50  C         44.1500   -0.3430   20.6120 C.2    27  VAL27       0.2260
     51  O         44.6340    0.3580   21.5200 O.2    27  VAL27      -0.2867
     52  CB        41.6300   -0.5020   20.8400 C.3    27  VAL27       0.0252
     53  CG1       41.3860    0.1140   19.4510 C.3    27  VAL27       0.0019
     54  CG2       40.4780   -1.4200   21.2190 C.3    27  VAL27       0.0019
     55  N         43.2970    3.5160   15.8100 N.3    31  LEU31      -0.1245
     56  CA        41.8500    3.2990   15.9080 C.3    31  LEU31       0.1561
     57  C         41.2320    4.0940   17.0600 C.2    31  LEU31       0.2260
     58  O         40.0940    4.5360   16.9650 O.2    31  LEU31      -0.2867
     59  CB        41.5360    1.8120   16.0690 C.3    31  LEU31       0.0270
     60  CG        41.8560    0.8190   14.9310 C.3    31  LEU31       0.0019
     61  CD1       43.3490    0.7210   14.5160 C.3    31  LEU31       0.0001
     62  CD2       41.3490   -0.5820   15.3220 C.3    31  LEU31       0.0001
     63  N         38.5070    6.7840   16.3530 N.3    35  GLY35      -0.1225
     64  CA        37.2390    6.5010   16.9920 C.3    35  GLY35       0.1811
     65  C         36.7860    7.6540   17.8610 C.2    35  GLY35       0.2280
     66  O         35.5990    7.9980   17.8740 O.2    35  GLY35      -0.2866
     67  N         35.5580   10.6880   15.6330 N.3    38  ALA38      -0.1245
     68  CA        34.2700   10.4400   14.9600 C.3    38  ALA38       0.1562
     69  C         33.0310   10.8570   15.7820 C.2    38  ALA38       0.2260
     70  O         32.9490   10.5830   16.9820 O.2    38  ALA38      -0.2867
     71  CB        34.1660    8.9610   14.5500 C.3    38  ALA38       0.0290
     72  N         29.3420   10.0290   15.3170 N.3    40  PRO40      -0.2116
     73  CA        28.3070    9.3360   14.5690 C.3    40  PRO40       0.1372
     74  C         26.8780    9.6310   15.0000 C.2    40  PRO40       0.2244
     75  O         26.6240   10.0350   16.1350 O.2    40  PRO40      -0.2868
     76  CB        28.6100    7.8680   14.8700 C.3    40  PRO40       0.0268
     77  CG        29.1670    7.8950   16.2170 C.3    40  PRO40       0.0207
     78  CD        30.0510    9.1080   16.2220 C.3    40  PRO40       0.0892
     79  N         23.5750    7.4470   15.7930 N.3    42  CYS42      -0.1235
     80  CA        23.2770    6.0920   16.1660 C.3    42  CYS42       0.1677
     81  C         21.8090    5.8560   15.8350 C.2    42  CYS42       0.2270
     82  O         20.9400    6.6440   16.2460 O.2    42  CYS42      -0.2867
     83  CB        23.5430    5.9360   17.6550 C.3    42  CYS42       0.0956
     84  SG        23.1020    4.3520   18.3310 S.3    42  CYS42      -0.0801
     85  N         21.1260   -2.2070   15.9110 N.3    53  ILE53      -0.1245
     86  CA        21.8270   -0.9520   16.1640 C.3    53  ILE53       0.1561
     87  C         22.8210   -0.6850   15.0370 C.2    53  ILE53       0.2260
     88  O         23.8290   -1.3970   14.9060 O.2    53  ILE53      -0.2867
     89  CB        22.5720   -0.9540   17.5160 C.3    53  ILE53       0.0252
     90  CG1       21.5920   -1.1770   18.6770 C.3    53  ILE53       0.0019
     91  CG2       23.3640    0.3460   17.6940 C.3    53  ILE53       0.0019
     92  CD1       22.2290   -1.1020   20.0670 C.3    53  ILE53       0.0001
     93  N         25.0030    2.6060   12.6730 N.3    55  THR55      -0.1218
     94  CA        25.5640    3.9600   12.7860 C.3    55  THR55       0.1862
     95  C         25.6710    4.6580   11.4320 C.2    55  THR55       0.2287
     96  O         25.6330    4.0060   10.3840 O.2    55  THR55      -0.2866
     97  CB        26.9800    3.9580   13.4020 C.3    55  THR55       0.1770
     98  OG1       27.8490    3.1670   12.5810 O.3    55  THR55      -0.2211
     99  CG2       26.9690    3.4130   14.8100 C.3    55  THR55       0.0375
    100  N         28.1340    8.0320    9.7230 N.3    57  SER57      -0.1217
    101  CA        29.2130    9.0110    9.8790 C.3    57  SER57       0.1889
    102  C         29.4640    9.7620    8.5730 C.2    57  SER57       0.2288
    103  O         29.6070    9.1470    7.5160 O.2    57  SER57      -0.2866
    104  CB        30.5030    8.3160   10.3500 C.3    57  SER57       0.2089
    105  OG        30.5420    8.1690   11.7630 O.3    57  SER57      -0.2183
@<TRIPOS>BOND
     1   103   102    2
     2   102   101    1
     3   100   101    1
     4   101   104    1
     5   104   105    1
     6    96    95    2
     7    95    94    1
     8    98    97    1
     9    93    94    1
    10    94    97    1
    11    97    99    1
    12    61    60    1
    13    71    68    1
    14    73    76    1
    15    73    74    1
    16    73    72    1
    17    76    77    1
    18    88    87    2
    19    60    62    1
    20    60    59    1
    21    68    67    1
    22    68    69    1
    23    74    75    2
    24    87    86    1
    25    72    78    1
    26    69    70    2
    27    79    80    1
    28    55    56    1
    29    81    80    1
    30    81    82    2
    31    56    59    1
    32    56    57    1
    33    85    86    1
    34    86    89    1
    35    80    83    1
    36    77    78    1
    37    63    64    1
    38    58    57    2
    39    64    65    1
    40    89    91    1
    41    89    90    1
    42    83    84    1
    43    65    66    2
    44     1     2    1
    45    90    92    1
    46     4     3    2
    47     5     2    1
    48     5     6    1
    49    53    52    1
    50     2     3    1
    51     8     6    1
    52    39    38    1
    53    19    17   ar
    54    19    18   ar
    55     6     7    1
    56    50    49    1
    57    50    51    2
    58    52    49    1
    59    52    54    1
    60    17    15   ar
    61    49    48    1
    62    18    16   ar
    63    38    37    1
    64    15    14   ar
    65    37    36    1
    66    16    14   ar
    67    14    13    1
    68    36    33    1
    69    46    45    1
    70    43    42    2
    71    13    10    1
    72    35    34    2
    73    33    34    1
    74    33    32    1
    75    44    45    1
    76    44    41    1
    77    42    41    1
    78    45    47    1
    79    12    11    2
    80    11    10    1
    81    29    27   ar
    82    29    30   ar
    83    41    40    1
    84    10     9    1
    85    32    22   am
    86    27    25   ar
    87    31    30    1
    88    30    28   ar
    89    22    23    2
    90    22    21    1
    91    25    24    1
    92    25    26   ar
    93    24    21    1
    94    28    26   ar
    95    21    20    1
