@<TRIPOS>MOLECULE
tmp/4azmB01.pdb
 112 104 0 0 0
SMALL
GASTEIGER

@<TRIPOS>ATOM
      1  N         36.9870   20.7830   -1.1870 N.3    63  GLN63      -0.1231
      2  CA        37.8520   20.4690   -2.3220 C.3    63  GLN63       0.1698
      3  C         38.6300   21.7070   -2.7490 C.2    63  GLN63       0.2592
      4  O         39.8600   21.6380   -2.9180 O.2    63  GLN63      -0.2718
      5  CB        37.0560   19.8730   -3.4810 C.3    63  GLN63       0.0381
      6  CG        36.3010   18.5890   -3.1140 C.3    63  GLN63       0.0905
      7  CD        37.2130   17.4200   -2.6520 C.2    63  GLN63       0.2608
      8  OE1       36.8080   16.5890   -1.8150 O.2    63  GLN63      -0.2717
      9  NE2       38.4330   17.3530   -3.1940 N.am   63  GLN63      -0.0878
     10  N         37.9230   22.8330   -2.9060 N.am   64  PHE64      -0.1976
     11  CA        38.5540   24.1580   -3.1080 C.3    64  PHE64       0.1639
     12  C         37.6050   25.3540   -2.9810 C.2    64  PHE64       0.2290
     13  O         36.4060   25.2490   -3.2110 O.2    64  PHE64      -0.2864
     14  CB        39.2980   24.2230   -4.4480 C.3    64  PHE64       0.0560
     15  CG        38.4040   24.1620   -5.6470 C.ar   64  PHE64      -0.0200
     16  CD1       37.8850   25.3250   -6.2030 C.ar   64  PHE64      -0.0042
     17  CD2       38.1040   22.9510   -6.2380 C.ar   64  PHE64      -0.0042
     18  CE1       37.0630   25.2840   -7.3180 C.ar   64  PHE64      -0.0003
     19  CE2       37.2850   22.8970   -7.3640 C.ar   64  PHE64      -0.0003
     20  CZ        36.7610   24.0710   -7.9000 C.ar   64  PHE64      -0.0000
     21  N         45.8800   19.0590   -4.2570 N.3    76  THR76      -0.1203
     22  CA        44.8620   18.0670   -4.6090 C.3    76  THR76       0.1994
     23  C         44.8860   16.8630   -3.6820 C.2    76  THR76       0.2618
     24  O         45.8830   16.6090   -3.0210 O.2    76  THR76      -0.2717
     25  CB        45.0370   17.5740   -6.0340 C.3    76  THR76       0.1784
     26  OG1       46.2760   16.8680   -6.1400 O.3    76  THR76      -0.2211
     27  CG2       45.0280   18.7340   -6.9990 C.3    76  THR76       0.0376
     28  N         43.7850   16.1130   -3.6500 N.am   77  ALA77      -0.1965
     29  CA        43.6650   14.9650   -2.7490 C.3    77  ALA77       0.1728
     30  C         44.6390   13.8410   -3.0870 C.2    77  ALA77       0.2616
     31  O         44.8900   12.9760   -2.2560 O.2    77  ALA77      -0.2715
     32  CB        42.2240   14.4460   -2.7130 C.3    77  ALA77       0.0334
     33  N         45.1900   13.8490   -4.2970 N.am   78  ASP78      -0.1971
     34  CA        46.1640   12.8200   -4.6700 C.3    78  ASP78       0.1709
     35  C         47.6320   13.2310   -4.4470 C.2    78  ASP78       0.2293
     36  O         48.5380   12.3850   -4.4740 O.2    78  ASP78      -0.2864
     37  CB        45.9440   12.3500   -6.1070 C.3    78  ASP78       0.1436
     38  CG        45.9390   13.4940   -7.0990 C.2    78  ASP78       0.3671
     39  OD1       45.2130   14.4820   -6.8360 O.co2  78  ASP78      -0.2456
     40  OD2       46.6470   13.3990   -8.1330 O.co2  78  ASP78      -0.2456
     41  N         49.0500   16.5250   -5.7700 N.3    80  ARG80      -0.1245
     42  CA        49.6010   17.4890   -6.6950 C.3    80  ARG80       0.1563
     43  C         49.4220   18.8770   -6.1170 C.2    80  ARG80       0.2260
     44  O         48.4270   19.1600   -5.4230 O.2    80  ARG80      -0.2867
     45  CB        48.9310   17.3790   -8.0500 C.3    80  ARG80       0.0307
     46  CG        49.3210   16.1330   -8.8080 C.3    80  ARG80       0.0489
     47  CD        48.3380   15.8110   -9.9270 C.3    80  ARG80       0.2205
     48  NE        46.9930   15.6080   -9.4050 N.pl3  80  ARG80      -0.0865
     49  CZ        45.9060   16.2420   -9.8370 C.cat  80  ARG80       0.5346
     50  NH1       45.9790   17.1130  -10.8450 N.pl3  80  ARG80       0.1354
     51  NH2       44.7330   15.9780   -9.2740 N.pl3  80  ARG80       0.1354
     52  N         38.5740   20.0390  -15.7680 N.3   106  ILE106     -0.1245
     53  CA        37.3270   19.4900  -15.2360 C.3   106  ILE106      0.1561
     54  C         36.1850   20.4540  -15.5420 C.2   106  ILE106      0.2260
     55  O         36.2120   21.6320  -15.1440 O.2   106  ILE106     -0.2867
     56  CB        37.4180   19.2120  -13.7230 C.3   106  ILE106      0.0252
     57  CG1       38.5620   18.2300  -13.4520 C.3   106  ILE106      0.0019
     58  CG2       36.0650   18.6760  -13.1600 C.3   106  ILE106      0.0019
     59  CD1       39.1720   18.4000  -12.0990 C.3   106  ILE106      0.0001
     60  N         32.0740   21.3140  -15.5190 N.3   108  ARG108     -0.1245
     61  CA        30.7970   21.0700  -14.8590 C.3   108  ARG108      0.1563
     62  C         29.7410   21.9040  -15.5700 C.2   108  ARG108      0.2260
     63  O         29.9490   23.1010  -15.8110 O.2   108  ARG108     -0.2867
     64  CB        30.8730   21.4310  -13.3760 C.3   108  ARG108      0.0307
     65  CG        31.8410   20.5740  -12.5870 C.3   108  ARG108      0.0489
     66  CD        31.9850   21.0140  -11.1430 C.3   108  ARG108      0.2205
     67  NE        32.8370   20.0840  -10.4140 N.pl3 108  ARG108     -0.0865
     68  CZ        34.1330   20.2780  -10.1610 C.cat 108  ARG108      0.5346
     69  NH1       34.7460   21.4060  -10.5640 N.pl3 108  ARG108      0.1354
     70  NH2       34.8200   19.3350   -9.4960 N.pl3 108  ARG108      0.1354
     71  N         29.6300   16.0810  -15.0630 N.3   117  VAL117     -0.1245
     72  CA        31.0120   16.3810  -14.7070 C.3   117  VAL117      0.1561
     73  C         31.9630   15.5770  -15.5780 C.2   117  VAL117      0.2260
     74  O         31.9060   14.3340  -15.6240 O.2   117  VAL117     -0.2867
     75  CB        31.2970   16.1100  -13.2220 C.3   117  VAL117      0.0252
     76  CG1       32.7530   16.3880  -12.9060 C.3   117  VAL117      0.0019
     77  CG2       30.3810   16.9440  -12.3360 C.3   117  VAL117      0.0019
     78  N         35.8880   14.9520  -16.5230 N.3   119  CYS119     -0.1235
     79  CA        37.2740   15.1690  -16.1930 C.3   119  CYS119      0.1677
     80  C         38.1020   14.6330  -17.3370 C.2   119  CYS119      0.2270
     81  O         37.9270   13.4840  -17.7490 O.2   119  CYS119     -0.2867
     82  CB        37.6340   14.5000  -14.8730 C.3   119  CYS119      0.0956
     83  SG        36.4290   14.8050  -13.5470 S.3   119  CYS119     -0.0801
     84  N         36.7500   10.9280  -17.9260 N.3   126  CYS126     -0.1235
     85  CA        35.7840   10.5190  -16.9180 C.3   126  CYS126      0.1677
     86  C         34.5280   11.3780  -17.0170 C.2   126  CYS126      0.2270
     87  O         34.6060   12.6220  -17.1030 O.2   126  CYS126     -0.2867
     88  CB        36.3710   10.6360  -15.5090 C.3   126  CYS126      0.0956
     89  SG        35.2120   10.1820  -14.1820 S.3   126  CYS126     -0.0801
     90  N         30.9610   11.8860  -14.9080 N.3   128  ARG128     -0.1245
     91  CA        30.1260   11.5820  -13.7530 C.3   128  ARG128      0.1563
     92  C         28.8550   12.4120  -13.8240 C.2   128  ARG128      0.2260
     93  O         28.8700   13.5280  -14.3370 O.2   128  ARG128     -0.2867
     94  CB        30.8780   11.8290  -12.4370 C.3   128  ARG128      0.0307
     95  CG        32.1820   11.0460  -12.3010 C.3   128  ARG128      0.0489
     96  CD        32.8970   11.3930  -11.0090 C.3   128  ARG128      0.2205
     97  NE        32.8550   10.2840  -10.0570 N.pl3 128  ARG128     -0.0865
     98  CZ        32.7870   10.4280   -8.7370 C.cat 128  ARG128      0.5346
     99  NH1       32.7210   11.6400   -8.1910 N.pl3 128  ARG128      0.1354
    100  NH2       32.7720    9.3500   -7.9600 N.pl3 128  ARG128      0.1354
    101  N         25.3920   13.8150  -11.5840 N.3   130  TYR130     -0.1241
    102  CA        24.7330   14.0770  -10.3080 C.3   130  TYR130      0.1605
    103  C         23.2810   14.5170  -10.4660 C.2   130  TYR130      0.2264
    104  O         22.9350   15.2360  -11.4110 O.2   130  TYR130     -0.2867
    105  CB        25.4700   15.1780   -9.5450 C.3   130  TYR130      0.0534
    106  CG        26.8860   14.8460   -9.1510 C.ar  130  TYR130     -0.0201
    107  CD1       27.9280   14.9010  -10.0830 C.ar  130  TYR130     -0.0009
    108  CD2       27.1910   14.4850   -7.8400 C.ar  130  TYR130     -0.0009
    109  CE1       29.2380   14.5900   -9.7100 C.ar  130  TYR130      0.0417
    110  CE2       28.4840   14.1740   -7.4630 C.ar  130  TYR130      0.0417
    111  CZ        29.4980   14.2280   -8.3960 C.ar  130  TYR130      0.1957
    112  OH        30.7800   13.9260   -8.0090 O.3   130  TYR130     -0.2866
@<TRIPOS>BOND
     1    84    85    1
     2    81    80    2
     3    80    79    1
     4    87    86    2
     5    86    85    1
     6    85    88    1
     7    78    79    1
     8    79    82    1
     9    63    62    2
    10    52    53    1
    11    74    73    2
    12    73    72    1
    13    62    61    1
    14    54    53    1
    15    54    55    2
    16    60    61    1
    17    88    89    1
    18    53    56    1
    19    71    72    1
    20    90    91    1
    21    82    83    1
    22    61    64    1
    23    72    75    1
    24    93    92    2
    25    92    91    1
    26    91    94    1
    27    56    57    1
    28    56    58    1
    29    57    59    1
    30    64    65    1
    31    75    76    1
    32    75    77    1
    33    65    66    1
    34    94    95    1
    35    95    96    1
    36   101   102    1
    37   104   103    2
    38    66    67    1
    39    96    97    1
    40    50    49    1
    41    69    68    1
    42   103   102    1
    43    67    68    2
    44   102   105    1
    45    68    70    1
    46   107   109   ar
    47   107   106   ar
    48    97    98    2
    49    47    48    1
    50    47    46    1
    51    49    48    2
    52    49    51    1
    53   109   111   ar
    54   105   106    1
    55   106   108   ar
    56    46    45    1
    57    98    99    1
    58    98   100    1
    59   111   112    1
    60   111   110   ar
    61    40    38   ar
    62    45    42    1
    63    20    19   ar
    64    20    18   ar
    65   108   110   ar
    66    19    17   ar
    67    18    16   ar
    68    38    39   ar
    69    38    37    1
    70    27    25    1
    71    42    43    1
    72    42    41    1
    73    17    15   ar
    74    16    15   ar
    75    26    25    1
    76    43    44    2
    77    37    34    1
    78    25    22    1
    79    15    14    1
    80    34    35    1
    81    34    33    1
    82    22    21    1
    83    22    23    1
    84    36    35    2
    85    14    11    1
    86    33    30   am
    87    23    28   am
    88    23    24    2
    89    28    29    1
    90     5     6    1
    91     5     2    1
    92    13    12    2
    93     9     7   am
    94     6     7    1
    95    11    12    1
    96    11    10    1
    97    30    29    1
    98    30    31    2
    99     4     3    2
   100    10     3   am
   101    29    32    1
   102     3     2    1
   103     7     8    2
   104     2     1    1
