@<TRIPOS>MOLECULE
tmp/4azpA00.pdb
 216 198 0 0 0
SMALL
GASTEIGER

@<TRIPOS>ATOM
      1  N         14.3770   13.5390    4.4460 N.3    18  PHE18      -0.1241
      2  CA        15.4450   13.8180    3.4840 C.3    18  PHE18       0.1605
      3  C         14.9590   14.6280    2.2610 C.2    18  PHE18       0.2264
      4  O         15.5800   15.6360    1.8740 O.2    18  PHE18      -0.2867
      5  CB        16.1390   12.5090    3.0630 C.3    18  PHE18       0.0534
      6  CG        17.4410   12.7220    2.3440 C.ar   18  PHE18      -0.0203
      7  CD1       18.3340   13.7170    2.7650 C.ar   18  PHE18      -0.0042
      8  CD2       17.7790   11.9390    1.2470 C.ar   18  PHE18      -0.0042
      9  CE1       19.5370   13.9430    2.0940 C.ar   18  PHE18      -0.0003
     10  CE2       19.0030   12.1410    0.5670 C.ar   18  PHE18      -0.0003
     11  CZ        19.8850   13.1410    0.9920 C.ar   18  PHE18      -0.0000
     12  N         14.3480   18.2080    3.2320 N.3    21  TYR21      -0.1227
     13  CA        15.6660   18.8290    3.3850 C.3    21  TYR21       0.1736
     14  C         16.2690   19.1950    2.0240 C.2    21  TYR21       0.2595
     15  O         16.6490   20.3340    1.7990 O.2    21  TYR21      -0.2718
     16  CB        16.6360   17.9420    4.1930 C.3    21  TYR21       0.0548
     17  CG        18.0420   18.4920    4.2420 C.ar   21  TYR21      -0.0200
     18  CD1       18.3450   19.6320    4.9930 C.ar   21  TYR21      -0.0009
     19  CD2       19.0710   17.8850    3.5230 C.ar   21  TYR21      -0.0009
     20  CE1       19.6570   20.1590    5.0310 C.ar   21  TYR21       0.0417
     21  CE2       20.3790   18.4000    3.5440 C.ar   21  TYR21       0.0417
     22  CZ        20.6630   19.5370    4.2950 C.ar   21  TYR21       0.1957
     23  OH        21.9580   20.0390    4.3140 O.3    21  TYR21      -0.2866
     24  N         16.3120   18.2340    1.1080 N.am   22  MET22      -0.1979
     25  CA        16.7930   18.5070   -0.2470 C.3    22  MET22       0.1605
     26  C         16.0000   19.6220   -0.9730 C.2    22  MET22       0.2287
     27  O         16.5860   20.4670   -1.6640 O.2    22  MET22      -0.2864
     28  CB        16.8270   17.2230   -1.0640 C.3    22  MET22       0.0413
     29  CG        17.9710   16.2790   -0.6580 C.3    22  MET22       0.0598
     30  SD        18.1410   14.8640   -1.7670 S.3    22  MET22      -0.1393
     31  CE        16.5810   13.9960   -1.5200 C.3    22  MET22       0.0692
     32  N         17.1450   22.7900    0.2280 N.3    25  LEU25      -0.1245
     33  CA        18.4380   23.0770   -0.4270 C.3    25  LEU25       0.1561
     34  C         18.2960   23.5740   -1.8640 C.2    25  LEU25       0.2260
     35  O         19.2360   24.1400   -2.3990 O.2    25  LEU25      -0.2867
     36  CB        19.3490   21.8450   -0.4220 C.3    25  LEU25       0.0270
     37  CG        19.9730   21.3460    0.8850 C.3    25  LEU25       0.0019
     38  CD1       20.7340   20.0610    0.5760 C.3    25  LEU25       0.0001
     39  CD2       20.9260   22.4090    1.4600 C.3    25  LEU25       0.0001
     40  N         17.3120   21.3400   -4.3910 N.3    27  VAL27      -0.1245
     41  CA        17.4670   20.1880   -5.2760 C.3    27  VAL27       0.1561
     42  C         16.1380   19.9210   -6.0250 C.2    27  VAL27       0.2260
     43  O         15.0750   19.8120   -5.4010 O.2    27  VAL27      -0.2867
     44  CB        17.8800   18.9020   -4.4860 C.3    27  VAL27       0.0252
     45  CG1       18.3490   17.8240   -5.4260 C.3    27  VAL27       0.0019
     46  CG2       18.9840   19.1890   -3.4590 C.3    27  VAL27       0.0019
     47  N         16.4610   14.7570   -9.3230 N.3    31  LEU31      -0.1245
     48  CA        17.6430   14.5590   -8.5290 C.3    31  LEU31       0.1561
     49  C         17.2950   14.0850   -7.1200 C.2    31  LEU31       0.2260
     50  O         17.9880   13.2130   -6.5710 O.2    31  LEU31      -0.2867
     51  CB        18.3900   15.8750   -8.4490 C.3    31  LEU31       0.0270
     52  CG        19.8090   15.8950   -8.9870 C.3    31  LEU31       0.0019
     53  CD1       19.8160   15.6580  -10.4980 C.3    31  LEU31       0.0001
     54  CD2       20.4530   17.2480   -8.6340 C.3    31  LEU31       0.0001
     55  N         16.4210   10.4190   -7.1880 N.3    34  MET34      -0.1230
     56  CA        17.6430    9.6670   -7.4110 C.3    34  MET34       0.1702
     57  C         18.4180    9.5910   -6.1030 C.2    34  MET34       0.2592
     58  O         18.8890    8.5210   -5.7080 O.2    34  MET34      -0.2718
     59  CB        18.4800   10.3720   -8.4560 C.3    34  MET34       0.0401
     60  CG        19.5280    9.5300   -9.1390 C.3    34  MET34       0.0596
     61  SD        20.0300   10.4440  -10.6160 S.3    34  MET34      -0.1393
     62  CE        18.8470    9.8820  -11.8590 C.3    34  MET34       0.0692
     63  N         18.5350   10.7260   -5.4250 N.am   35  ALA35      -0.1980
     64  CA        19.2150   10.7590   -4.1520 C.3    35  ALA35       0.1597
     65  C         18.5360    9.8220   -3.1440 C.2    35  ALA35       0.2287
     66  O         19.2110    9.0380   -2.4910 O.2    35  ALA35      -0.2864
     67  CB        19.2820   12.1650   -3.6240 C.3    35  ALA35       0.0319
     68  N         18.9440    5.7310   -4.2920 N.3    38  ALA38      -0.1245
     69  CA        20.3190    5.2290   -4.2200 C.3    38  ALA38       0.1562
     70  C         20.8640    5.5510   -2.8430 C.2    38  ALA38       0.2260
     71  O         21.1970    6.6950   -2.5630 O.2    38  ALA38      -0.2867
     72  CB        21.2000    5.8590   -5.3180 C.3    38  ALA38       0.0290
     73  N         23.5290    5.4010   -0.1040 N.3    40  PRO40      -0.2116
     74  CA        24.9870    5.2800   -0.1020 C.3    40  PRO40       0.1372
     75  C         25.7350    4.4950    0.9690 C.2    40  PRO40       0.2244
     76  O         25.1600    3.8490    1.8950 O.2    40  PRO40      -0.2868
     77  CB        25.4260    6.7300   -0.0410 C.3    40  PRO40       0.0268
     78  CG        24.3900    7.4080   -0.9330 C.3    40  PRO40       0.0207
     79  CD        23.1260    6.7990   -0.3490 C.3    40  PRO40       0.0892
     80  N         29.1290    5.8330    3.3130 N.3    42  CYS42      -0.1235
     81  CA        29.8420    7.0580    3.6780 C.3    42  CYS42       0.1677
     82  C         31.1030    6.5780    4.3480 C.2    42  CYS42       0.2270
     83  O         31.0450    5.8790    5.3660 O.2    42  CYS42      -0.2867
     84  CB        28.9920    7.9500    4.5940 C.3    42  CYS42       0.0956
     85  SG        29.8270    9.4730    5.1730 S.3    42  CYS42      -0.0801
     86  N         31.3640   10.1910    0.1640 N.3    55  THR55      -0.1218
     87  CA        30.0380    9.6000    0.0400 C.3    55  THR55       0.1862
     88  C         29.9190    8.9510   -1.3400 C.2    55  THR55       0.2287
     89  O         30.1360    9.5950   -2.3650 O.2    55  THR55      -0.2866
     90  CB        28.9020   10.6070    0.3710 C.3    55  THR55       0.1770
     91  OG1       29.2120   11.3170    1.5930 O.3    55  THR55      -0.2211
     92  CG2       27.6060    9.8600    0.5960 C.3    55  THR55       0.0375
     93  N         27.9730    6.3970   -4.2060 N.3    57  SER57      -0.1217
     94  CA        26.7650    5.7770   -4.6990 C.3    57  SER57       0.1889
     95  C         26.9960    5.3420   -6.1480 C.2    57  SER57       0.2288
     96  O         28.0360    5.6590   -6.7300 O.2    57  SER57      -0.2866
     97  CB        25.5670    6.7400   -4.5290 C.3    57  SER57       0.2089
     98  OG        25.4630    7.6670   -5.6040 O.3    57  SER57      -0.2183
     99  N         25.4630    6.3850   -8.6060 N.3    59  VAL59      -0.1231
    100  CA        25.0840    7.4810   -9.4780 C.3    59  VAL59       0.1692
    101  C         26.0300    8.6840   -9.3340 C.2    59  VAL59       0.2591
    102  O         26.3140    9.3570  -10.3120 O.2    59  VAL59      -0.2718
    103  CB        23.5810    7.8250   -9.3020 C.3    59  VAL59       0.0266
    104  CG1       23.3360    8.6140   -8.0360 C.3    59  VAL59       0.0020
    105  CG2       23.0550    8.5460  -10.5250 C.3    59  VAL59       0.0020
    106  N         26.5700    8.8860   -8.1360 N.am   60  LYS60      -0.1980
    107  CA        27.4610    9.9980   -7.8360 C.3    60  LYS60       0.1596
    108  C         28.3550    9.6730   -6.6250 C.2    60  LYS60       0.2287
    109  O         27.8780    9.0820   -5.6530 O.2    60  LYS60      -0.2864
    110  CB        26.6150   11.2410   -7.5330 C.3    60  LYS60       0.0298
    111  CG        27.4080   12.5250   -7.2700 C.3    60  LYS60       0.0038
    112  CD        26.9980   13.6030   -8.2630 C.3    60  LYS60       0.0206
    113  CE        27.7020   14.9300   -8.0150 C.3    60  LYS60       0.1093
    114  NZ        29.1550   14.8280   -8.2270 N.3    60  LYS60      -0.1314
    115  N         31.0460   11.8110   -3.9800 N.3    62  THR62      -0.1218
    116  CA        31.6730   13.0870   -3.5890 C.3    62  THR62       0.1862
    117  C         32.6530   12.8300   -2.4420 C.2    62  THR62       0.2287
    118  O         32.4400   11.9230   -1.6280 O.2    62  THR62      -0.2866
    119  CB        30.6320   14.1360   -3.0970 C.3    62  THR62       0.1770
    120  OG1       30.0250   13.6670   -1.8930 O.3    62  THR62      -0.2211
    121  CG2       29.5540   14.3340   -4.0790 C.3    62  THR62       0.0375
    122  N         29.2130   20.6040   -3.3310 N.3    76  THR76      -0.1203
    123  CA        28.3730   19.5600   -2.6990 C.3    76  THR76       0.1994
    124  C         27.8400   18.5920   -3.7500 C.2    76  THR76       0.2618
    125  O         27.9070   18.8550   -4.9410 O.2    76  THR76      -0.2717
    126  CB        27.1660   20.1530   -1.9750 C.3    76  THR76       0.1784
    127  OG1       26.3390   20.7970   -2.9560 O.3    76  THR76      -0.2211
    128  CG2       27.6030   21.1400   -0.8990 C.3    76  THR76       0.0376
    129  N         27.2820   17.4730   -3.3160 N.am   77  ALA77      -0.1965
    130  CA        26.7680   16.4780   -4.2960 C.3    77  ALA77       0.1728
    131  C         25.7010   17.0470   -5.2680 C.2    77  ALA77       0.2616
    132  O         25.6180   16.6490   -6.4440 O.2    77  ALA77      -0.2715
    133  CB        26.2520   15.2480   -3.5660 C.3    77  ALA77       0.0334
    134  N         24.9160   18.0080   -4.7910 N.am   78  ASP78      -0.1971
    135  CA        23.9170   18.6620   -5.6270 C.3    78  ASP78       0.1709
    136  C         24.4810   19.8440   -6.4080 C.2    78  ASP78       0.2293
    137  O         23.7860   20.4610   -7.2020 O.2    78  ASP78      -0.2864
    138  CB        22.6840   19.0550   -4.7920 C.3    78  ASP78       0.1436
    139  CG        23.0310   19.8930   -3.5540 C.2    78  ASP78       0.3671
    140  OD1       23.8270   19.4460   -2.6910 O.co2  78  ASP78      -0.2456
    141  OD2       22.4740   21.0050   -3.4340 O.co2  78  ASP78      -0.2456
    142  N         26.0930   22.7410   -5.2080 N.3    80  ARG80      -0.1245
    143  CA        26.3270   23.9930   -4.4970 C.3    80  ARG80       0.1563
    144  C         27.8220   24.2540   -4.2910 C.2    80  ARG80       0.2260
    145  O         28.5860   23.3340   -4.0350 O.2    80  ARG80      -0.2867
    146  CB        25.6120   24.0080   -3.1390 C.3    80  ARG80       0.0307
    147  CG        24.1240   24.3750   -3.2190 C.3    80  ARG80       0.0489
    148  CD        23.4340   24.0200   -1.8990 C.3    80  ARG80       0.2205
    149  NE        23.5760   22.6160   -1.5560 N.pl3  80  ARG80      -0.0865
    150  CZ        24.0450   22.1550   -0.4030 C.cat  80  ARG80       0.5346
    151  NH1       24.4290   22.9930    0.5630 N.pl3  80  ARG80       0.1354
    152  NH2       24.1260   20.8460   -0.2180 N.pl3  80  ARG80       0.1354
    153  N         27.9070   24.7820    6.3770 N.3    97  GLN97      -0.1245
    154  CA        28.0300   25.2610    4.9860 C.3    97  GLN97       0.1566
    155  C         27.3270   26.5910    4.8210 C.2    97  GLN97       0.2260
    156  O         26.2110   26.7650    5.3360 O.2    97  GLN97      -0.2867
    157  CB        27.3740   24.2840    4.0230 C.3    97  GLN97       0.0367
    158  CG        27.9290   22.8590    4.1030 C.3    97  GLN97       0.0905
    159  CD        27.1860   21.8900    3.1900 C.2    97  GLN97       0.2608
    160  OE1       25.8510   21.9990    3.1510 O.2    97  GLN97      -0.2717
    161  NE2       27.8020   21.0410    2.5460 N.am   97  GLN97      -0.0878
    162  N         25.3280   20.0460    8.9860 N.3   106  ILE106     -0.1245
    163  CA        25.2570   18.6150    9.0620 C.3   106  ILE106      0.1561
    164  C         26.0940   18.1600   10.2470 C.2   106  ILE106      0.2260
    165  O         27.2930   18.4550   10.3390 O.2   106  ILE106     -0.2867
    166  CB        25.7790   17.9920    7.7620 C.3   106  ILE106      0.0252
    167  CG1       24.9160   18.4620    6.5700 C.3   106  ILE106      0.0019
    168  CG2       25.8450   16.4540    7.8770 C.3   106  ILE106      0.0019
    169  CD1       25.6740   18.4290    5.2780 C.3   106  ILE106      0.0001
    170  N         27.3470   14.8720   12.6050 N.3   108  ARG108     -0.1245
    171  CA        27.5370   13.4190   12.6020 C.3   108  ARG108      0.1563
    172  C         27.9910   12.9930   13.9680 C.2   108  ARG108      0.2260
    173  O         28.9590   13.5240   14.4980 O.2   108  ARG108     -0.2867
    174  CB        28.5650   13.0040   11.5390 C.3   108  ARG108      0.0307
    175  CG        28.1180   13.3510   10.1280 C.3   108  ARG108      0.0489
    176  CD        29.1790   12.9850    9.1200 C.3   108  ARG108      0.2205
    177  NE        28.7370   13.2370    7.7500 N.pl3 108  ARG108     -0.0865
    178  CZ        28.9360   14.3820    7.0970 C.cat 108  ARG108      0.5346
    179  NH1       29.5630   15.4220    7.6880 N.pl3 108  ARG108      0.1354
    180  NH2       28.4990   14.4820    5.8450 N.pl3 108  ARG108      0.1354
    181  N         23.2270   11.1290   11.4720 N.3   117  VAL117     -0.1245
    182  CA        23.5490   12.2810   10.6490 C.3   117  VAL117      0.1561
    183  C         22.3210   13.1610   10.6330 C.2   117  VAL117      0.2260
    184  O         21.2830   12.7700   10.0720 O.2   117  VAL117     -0.2867
    185  CB        23.9300   11.8490    9.2190 C.3   117  VAL117      0.0252
    186  CG1       24.2790   13.0640    8.3670 C.3   117  VAL117      0.0019
    187  CG2       25.1260   10.8700    9.2240 C.3   117  VAL117      0.0019
    188  N         20.7440   16.7140    9.4360 N.3   119  CYS119     -0.1235
    189  CA        20.9170   17.8330    8.5000 C.3   119  CYS119      0.1677
    190  C         19.8450   18.8920    8.7500 C.2   119  CYS119      0.2270
    191  O         18.6600   18.5840    8.7720 O.2   119  CYS119     -0.2867
    192  CB        20.8550   17.3640    7.0450 C.3   119  CYS119      0.0956
    193  SG        21.8610   15.9170    6.6680 S.3   119  CYS119     -0.0801
    194  N         19.4320   10.9090    9.3770 N.3   128  ARG128     -0.1245
    195  CA        19.8500    9.7210    8.6380 C.3   128  ARG128      0.1563
    196  C         20.6890    8.8000    9.5180 C.2   128  ARG128      0.2260
    197  O         21.6070    9.2660   10.1860 O.2   128  ARG128     -0.2867
    198  CB        20.6210   10.1160    7.3900 C.3   128  ARG128      0.0307
    199  CG        19.6760   10.5170    6.2550 C.3   128  ARG128      0.0489
    200  CD        20.4080   11.4050    5.2680 C.3   128  ARG128      0.2205
    201  NE        21.0910   10.7220    4.1580 N.pl3 128  ARG128     -0.0865
    202  CZ        20.5180    9.9890    3.2020 C.cat 128  ARG128      0.5346
    203  NH1       19.2060    9.7140    3.2040 N.pl3 128  ARG128      0.1354
    204  NH2       21.2850    9.4990    2.2270 N.pl3 128  ARG128      0.1354
    205  N         23.2420    5.6330    9.9110 N.3   130  TYR130     -0.1241
    206  CA        24.1940    4.7270    9.2670 C.3   130  TYR130      0.1605
    207  C         24.6860    3.6650   10.2330 C.2   130  TYR130      0.2264
    208  O         24.8440    3.9170   11.4360 O.2   130  TYR130     -0.2867
    209  CB        25.4050    5.4890    8.6920 C.3   130  TYR130      0.0534
    210  CG        25.1120    6.4250    7.5210 C.ar  130  TYR130     -0.0201
    211  CD1       24.5350    7.6670    7.7260 C.ar  130  TYR130     -0.0009
    212  CD2       25.4570    6.0780    6.2080 C.ar  130  TYR130     -0.0009
    213  CE1       24.2840    8.5440    6.6630 C.ar  130  TYR130      0.0417
    214  CE2       25.1950    6.9560    5.1180 C.ar  130  TYR130      0.0417
    215  CZ        24.6140    8.1710    5.3640 C.ar  130  TYR130      0.1957
    216  OH        24.3440    9.0240    4.3220 O.3   130  TYR130     -0.2866
@<TRIPOS>BOND
     1    62    61    1
     2    61    60    1
     3   105   103    1
     4    53    52    1
     5   102   101    2
     6   100   101    1
     7   100   103    1
     8   100    99    1
     9   101   106   am
    10    47    48    1
    11   103   104    1
    12    60    59    1
    13    52    54    1
    14    52    51    1
    15    48    51    1
    16    48    49    1
    17    59    56    1
    18   112   113    1
    19   112   111    1
    20   114   113    1
    21   106   107    1
    22   107   110    1
    23   107   108    1
    24   110   111    1
    25    56    55    1
    26    56    57    1
    27   137   136    2
    28    49    50    2
    29    96    95    2
    30   108   109    2
    31   132   131    2
    32   136   135    1
    33    95    94    1
    34    57    58    2
    35    57    63   am
    36    42    43    2
    37    42    41    1
    38   135   138    1
    39   135   134    1
    40    98    97    1
    41    45    44    1
    42    63    64    1
    43    72    69    1
    44    41    44    1
    45    41    40    1
    46   131   134   am
    47   131   130    1
    48   142   143    1
    49   125   124    2
    50   138   139    1
    51    94    97    1
    52    94    93    1
    53   143   144    1
    54   143   146    1
    55    44    46    1
    56   130   133    1
    57   130   129    1
    58    68    69    1
    59   144   145    2
    60    69    70    1
    61    64    67    1
    62    64    65    1
    63   121   119    1
    64   115   116    1
    65   124   129   am
    66   124   123    1
    67   116   119    1
    68   116   117    1
    69   139   141   ar
    70   139   140   ar
    71   122   123    1
    72   147   146    1
    73   147   148    1
    74    65    66    2
    75   119   120    1
    76   127   126    1
    77    70    71    2
    78   123   126    1
    79   117   118    2
    80    35    34    2
    81    89    88    2
    82   126   128    1
    83   148   149    1
    84    34    33    1
    85    30    31    1
    86    30    29    1
    87    27    26    2
    88   149   150    2
    89    88    87    1
    90    28    29    1
    91    28    25    1
    92    26    25    1
    93    78    79    1
    94    78    77    1
    95    33    36    1
    96    33    32    1
    97    36    37    1
    98   150   152    1
    99   150   151    1
   100    79    73    1
   101    25    24    1
   102    73    74    1
   103    74    77    1
   104    74    75    1
   105    87    86    1
   106    87    90    1
   107    90    92    1
   108    90    91    1
   109    10    11   ar
   110    10     8   ar
   111    38    37    1
   112    37    39    1
   113    75    76    2
   114    11     9   ar
   115    24    14   am
   116     8     6   ar
   117    15    14    2
   118     4     3    2
   119    14    13    1
   120     9     7   ar
   121   204   202    1
   122     3     2    1
   123     6     7   ar
   124     6     5    1
   125   161   159   am
   126     5     2    1
   127   160   159    2
   128   159   158    1
   129   202   203    1
   130   202   201    2
   131    12    13    1
   132    80    81    1
   133    13    16    1
   134     2     1    1
   135    19    21   ar
   136    19    17   ar
   137    21    22   ar
   138    81    82    1
   139    81    84    1
   140   157   158    1
   141   157   154    1
   142   201   200    1
   143    16    17    1
   144    17    18   ar
   145    22    23    1
   146    22    20   ar
   147   216   215    1
   148    82    83    2
   149    84    85    1
   150   155   154    1
   151   155   156    2
   152   154   153    1
   153    18    20   ar
   154   214   215   ar
   155   214   212   ar
   156   200   199    1
   157   169   167    1
   158   215   213   ar
   159   180   178    1
   160   212   210   ar
   161   199   198    1
   162   167   166    1
   163   213   211   ar
   164   193   192    1
   165   192   189    1
   166   178   179    1
   167   178   177    2
   168   198   195    1
   169   210   211   ar
   170   210   209    1
   171   177   176    1
   172   166   168    1
   173   166   163    1
   174   186   185    1
   175   189   190    1
   176   189   188    1
   177   195   194    1
   178   195   196    1
   179   209   206    1
   180   190   191    2
   181   162   163    1
   182   163   164    1
   183   176   175    1
   184   185   187    1
   185   185   182    1
   186   206   205    1
   187   206   207    1
   188   196   197    2
   189   184   183    2
   190   175   174    1
   191   207   208    2
   192   164   165    2
   193   183   182    1
   194   182   181    1
   195   174   171    1
   196   171   170    1
   197   171   172    1
   198   172   173    2
