@<TRIPOS>MOLECULE
tmp/4azqA00.pdb
 231 211 0 0 0
SMALL
GASTEIGER

@<TRIPOS>ATOM
      1  N         18.8850    5.5150    9.3450 N.3    20  PHE20      -0.1241
      2  CA        19.6500    6.2820   10.3070 C.3    20  PHE20       0.1605
      3  C         20.0660    5.4530   11.5380 C.2    20  PHE20       0.2264
      4  O         21.2280    5.4890   11.9490 O.2    20  PHE20      -0.2867
      5  CB        18.8820    7.5410   10.7130 C.3    20  PHE20       0.0534
      6  CG        19.7370    8.5750   11.3970 C.ar   20  PHE20      -0.0203
      7  CD1       21.0120    8.8880   10.9040 C.ar   20  PHE20      -0.0042
      8  CD2       19.2660    9.2400   12.5350 C.ar   20  PHE20      -0.0042
      9  CE1       21.8250    9.8290   11.5510 C.ar   20  PHE20      -0.0003
     10  CE2       20.0600   10.2050   13.1760 C.ar   20  PHE20      -0.0003
     11  CZ        21.3510   10.4950   12.6890 C.ar   20  PHE20      -0.0000
     12  N         22.8760    3.1490   10.4900 N.3    23  TYR23      -0.1227
     13  CA        24.1130    3.9460   10.3990 C.3    23  TYR23       0.1736
     14  C         24.6810    4.2950   11.7920 C.2    23  TYR23       0.2595
     15  O         25.8800    4.1100   12.0730 O.2    23  TYR23      -0.2718
     16  CB        23.8740    5.2210    9.5560 C.3    23  TYR23       0.0548
     17  CG        25.0550    6.1650    9.5290 C.ar   23  TYR23      -0.0200
     18  CD1       26.2130    5.8440    8.8300 C.ar   23  TYR23      -0.0009
     19  CD2       25.0190    7.3710   10.2160 C.ar   23  TYR23      -0.0009
     20  CE1       27.3190    6.7070    8.8090 C.ar   23  TYR23       0.0417
     21  CE2       26.1190    8.2380   10.2100 C.ar   23  TYR23       0.0417
     22  CZ        27.2680    7.9000    9.5090 C.ar   23  TYR23       0.1957
     23  OH        28.3510    8.7730    9.5010 O.3    23  TYR23      -0.2866
     24  N         23.8270    4.7970   12.6760 N.am   24  MET24      -0.1979
     25  CA        24.3060    5.0990   14.0170 C.3    24  MET24       0.1605
     26  C         24.8330    3.8560   14.7330 C.2    24  MET24       0.2287
     27  O         25.7780    3.9480   15.5220 O.2    24  MET24      -0.2864
     28  CB        23.2310    5.7890   14.8460 C.3    24  MET24       0.0413
     29  CG        22.9500    7.2340   14.4180 C.3    24  MET24       0.0598
     30  SD        21.7690    8.0250   15.5340 S.3    24  MET24      -0.1393
     31  CE        20.2720    7.0670   15.2460 C.3    24  MET24       0.0692
     32  N         28.3330    3.3030   13.6060 N.3    27  LEU27      -0.1245
     33  CA        29.2280    4.2810   14.2580 C.3    27  LEU27       0.1561
     34  C         29.5480    3.9200   15.6990 C.2    27  LEU27       0.2260
     35  O         30.5320    4.3960   16.2470 O.2    27  LEU27      -0.2867
     36  CB        28.6270    5.6900   14.2460 C.3    27  LEU27       0.0270
     37  CG        28.4000    6.4250   12.9260 C.3    27  LEU27       0.0019
     38  CD1       27.4050    7.5610   13.1700 C.3    27  LEU27       0.0001
     39  CD2       29.7240    6.9530   12.4240 C.3    27  LEU27       0.0001
     40  N         26.9790    4.1150   18.1850 N.3    29  VAL29      -0.1245
     41  CA        25.9780    4.7780   19.0340 C.3    29  VAL29       0.1561
     42  C         25.0490    3.7640   19.7220 C.2    29  VAL29       0.2260
     43  O         24.3530    2.9780   19.0550 O.2    29  VAL29      -0.2867
     44  CB        25.1230    5.8120   18.2390 C.3    29  VAL29       0.0252
     45  CG1       24.3280    6.6980   19.1860 C.3    29  VAL29       0.0019
     46  CG2       25.9990    6.6650   17.3280 C.3    29  VAL29       0.0019
     47  N         20.9510    6.7990   22.9750 N.3    33  LEU33      -0.1245
     48  CA        21.2540    7.9930   22.2310 C.3    33  LEU33       0.1561
     49  C         20.7140    7.9070   20.8060 C.2    33  LEU33       0.2260
     50  O         20.4300    8.9440   20.1910 O.2    33  LEU33      -0.2867
     51  CB        22.7600    8.2500   22.1900 C.3    33  LEU33       0.0270
     52  CG        23.6620    8.3160   23.4230 C.3    33  LEU33       0.0019
     53  CD1       24.9750    8.9850   22.9990 C.3    33  LEU33       0.0001
     54  CD2       23.0310    9.0420   24.6340 C.3    33  LEU33       0.0001
     55  N         17.1790    8.9280   21.0160 N.3    36  MET36      -0.1230
     56  CA        17.1900   10.3490   21.3040 C.3    36  MET36       0.1702
     57  C         17.4470   11.1060   20.0030 C.2    36  MET36       0.2592
     58  O         16.8110   12.1190   19.7190 O.2    36  MET36      -0.2718
     59  CB        18.3010   10.6450   22.2990 C.3    36  MET36       0.0401
     60  CG        17.9060   11.5230   23.4580 C.3    36  MET36       0.0596
     61  SD        19.0460   11.2120   24.8160 S.3    36  MET36      -0.1393
     62  CE        20.5690   11.9320   24.2110 C.3    36  MET36       0.0692
     63  N         18.3790   10.5930   19.2130 N.am   37  ALA37      -0.1980
     64  CA        18.7290   11.2110   17.9440 C.3    37  ALA37       0.1597
     65  C         17.6340   11.0320   16.8860 C.2    37  ALA37       0.2287
     66  O         17.5000   11.8600   15.9800 O.2    37  ALA37      -0.2864
     67  CB        20.0610   10.6680   17.4400 C.3    37  ALA37       0.0319
     68  N         14.8190   13.5170   17.4350 N.3    40  ALA40      -0.1245
     69  CA        15.3820   14.8720   17.5520 C.3    40  ALA40       0.1562
     70  C         14.9730   15.8340   16.4500 C.2    40  ALA40       0.2260
     71  O         14.8990   17.0510   16.7010 O.2    40  ALA40      -0.2867
     72  CB        16.8940   14.8140   17.6550 C.3    40  ALA40       0.0290
     73  N         16.1640   17.7080   13.8820 N.3    42  PRO42      -0.2116
     74  CA        16.8280   19.0140   14.0240 C.3    42  PRO42       0.1372
     75  C         16.6440   20.0270   12.8770 C.2    42  PRO42       0.2244
     76  O         15.8410   19.8050   11.9340 O.2    42  PRO42      -0.2868
     77  CB        18.3060   18.6190   14.0720 C.3    42  PRO42       0.0268
     78  CG        18.3580   17.4530   13.1670 C.3    42  PRO42       0.0207
     79  CD        17.1520   16.6550   13.5870 C.3    42  PRO42       0.0892
     80  N         19.6090   22.0430   10.3980 N.3    44  CYS44      -0.1235
     81  CA        21.0010   22.0990   10.0340 C.3    44  CYS44       0.1677
     82  C         21.1870   23.4720    9.4370 C.2    44  CYS44       0.2270
     83  O         20.5820   23.7920    8.4100 O.2    44  CYS44      -0.2867
     84  CB        21.3180   21.0370    9.0020 C.3    44  CYS44       0.0956
     85  SG        23.0700   20.9690    8.6370 S.3    44  CYS44      -0.0801
     86  N         28.9420   24.3580    9.6970 N.3    55  VAL55      -0.1245
     87  CA        27.7550   23.5030    9.7670 C.3    55  VAL55       0.1561
     88  C         27.3480   23.3660   11.2200 C.2    55  VAL55       0.2260
     89  O         28.0680   22.7970   12.0350 O.2    55  VAL55      -0.2867
     90  CB        27.9880   22.1230    9.0750 C.3    55  VAL55       0.0252
     91  CG1       26.7330   21.2240    9.1670 C.3    55  VAL55       0.0019
     92  CG2       28.3980   22.3340    7.6240 C.3    55  VAL55       0.0019
     93  N         24.4340   21.9960   13.7000 N.3    57  THR57      -0.1218
     94  CA        23.3180   21.0650   13.8820 C.3    57  THR57       0.1862
     95  C         22.6840   21.3580   15.2330 C.2    57  THR57       0.2287
     96  O         23.3340   21.2550   16.2750 O.2    57  THR57      -0.2866
     97  CB        23.8040   19.6020   13.7810 C.3    57  THR57       0.1770
     98  OG1       24.4170   19.4050   12.4870 O.3    57  THR57      -0.2211
     99  CG2       22.6460   18.6080   13.9570 C.3    57  THR57       0.0375
    100  N         19.4850   21.0290   17.9980 N.3    59  SER59      -0.1217
    101  CA        18.3520   20.2740   18.4810 C.3    59  SER59       0.1889
    102  C         18.1140   20.6690   19.9370 C.2    59  SER59       0.2288
    103  O         18.9050   21.4130   20.5270 O.2    59  SER59      -0.2866
    104  CB        18.6110   18.7650   18.3210 C.3    59  SER59       0.2089
    105  OG        19.4840   18.2800   19.3360 O.3    59  SER59      -0.2183
    106  N         18.2330   18.6890   22.3100 N.3    61  VAL61      -0.1231
    107  CA        19.0000   17.7720   23.1420 C.3    61  VAL61       0.1692
    108  C         20.4700   18.1820   23.1740 C.2    61  VAL61       0.2591
    109  O         21.0840   18.2230   24.2440 O.2    61  VAL61      -0.2718
    110  CB        18.7980   16.2960   22.7080 C.3    61  VAL61       0.0266
    111  CG1       19.9280   15.4280   23.2240 C.3    61  VAL61       0.0020
    112  CG2       17.4600   15.7740   23.2440 C.3    61  VAL61       0.0020
    113  N         20.9970   18.5290   22.0040 N.am   62  LYS62      -0.1980
    114  CA        22.3900   18.9050   21.8350 C.3    62  LYS62       0.1596
    115  C         22.5670   19.7760   20.5900 C.2    62  LYS62       0.2287
    116  O         21.8670   19.5960   19.5960 O.2    62  LYS62      -0.2864
    117  CB        23.2310   17.6410   21.6900 C.3    62  LYS62       0.0298
    118  CG        24.7080   17.8400   21.9460 C.3    62  LYS62       0.0038
    119  CD        25.4910   16.6310   21.4860 C.3    62  LYS62       0.0206
    120  CE        26.9550   16.9640   21.3420 C.3    62  LYS62       0.1093
    121  NZ        27.5360   17.1750   22.6690 N.3    62  LYS62      -0.1314
    122  N         25.6990   21.0400   17.8820 N.3    64  THR64      -0.1218
    123  CA        27.0820   20.8870   17.4410 C.3    64  THR64       0.1862
    124  C         27.3880   21.8890   16.3470 C.2    64  THR64       0.2287
    125  O         26.5350   22.1520   15.4990 O.2    64  THR64      -0.2866
    126  CB        27.3430   19.4610   16.8770 C.3    64  THR64       0.1770
    127  OG1       26.7430   19.3440   15.5760 O.3    64  THR64      -0.2211
    128  CG2       26.7550   18.4070   17.7830 C.3    64  THR64       0.0375
    129  N         32.3490   14.8900   17.2040 N.3    78  THR78      -0.1203
    130  CA        31.0510   14.6390   16.5900 C.3    78  THR78       0.1994
    131  C         29.9670   14.6820   17.6450 C.2    78  THR78       0.2618
    132  O         30.2450   14.6240   18.8360 O.2    78  THR78      -0.2717
    133  CB        31.0050   13.2780   15.8530 C.3    78  THR78       0.1784
    134  OG1       31.1150   12.2140   16.8040 O.3    78  THR78      -0.2211
    135  CG2       32.1230   13.1780   14.8170 C.3    78  THR78       0.0376
    136  N         28.7220   14.7410   17.2120 N.am   79  ALA79      -0.1965
    137  CA        27.6170   14.7880   18.1670 C.3    79  ALA79       0.1728
    138  C         27.5820   13.5600   19.0920 C.2    79  ALA79       0.2616
    139  O         27.2240   13.6680   20.2700 O.2    79  ALA79      -0.2715
    140  CB        26.2940   14.9650   17.4380 C.3    79  ALA79       0.0334
    141  N         27.9700   12.4000   18.5670 N.am   80  ASP80      -0.1971
    142  CA        28.0450   11.1860   19.3930 C.3    80  ASP80       0.1709
    143  C         29.3350   11.1060   20.1980 C.2    80  ASP80       0.2293
    144  O         29.5440   10.1610   20.9610 O.2    80  ASP80      -0.2864
    145  CB        27.8520    9.9160   18.5510 C.3    80  ASP80       0.1436
    146  CG        28.7950    9.8440   17.3630 C.2    80  ASP80       0.3671
    147  OD1       28.8170   10.7920   16.5400 O.co2  80  ASP80      -0.2456
    148  OD2       29.5070    8.8260   17.2510 O.co2  80  ASP80      -0.2456
    149  N         32.7010   11.1780   19.0800 N.3    82  ARG82      -0.1245
    150  CA        33.9290   10.6670   18.4710 C.3    82  ARG82       0.1563
    151  C         34.8720   11.8330   18.2230 C.2    82  ARG82       0.2260
    152  O         34.4320   12.9200   17.8830 O.2    82  ARG82      -0.2867
    153  CB        33.6480    9.9780   17.1280 C.3    82  ARG82       0.0307
    154  CG        33.0550    8.5740   17.2490 C.3    82  ARG82       0.0489
    155  CD        32.4240    8.1210   15.9450 C.3    82  ARG82       0.2205
    156  NE        31.3090    8.9770   15.5470 N.pl3  82  ARG82      -0.0865
    157  CZ        31.1770    9.5560   14.3620 C.cat  82  ARG82       0.5346
    158  NH1       32.0990    9.3820   13.4110 N.pl3  82  ARG82       0.1354
    159  NH2       30.1110   10.3170   14.1240 N.pl3  82  ARG82       0.1354
    160  N         35.3670   11.5840    7.5350 N.3    99  GLN99      -0.1245
    161  CA        35.8510   11.4690    8.9080 C.3    99  GLN99       0.1566
    162  C         36.6480   10.1900    9.0610 C.2    99  GLN99       0.2260
    163  O         36.2230    9.1390    8.5910 O.2    99  GLN99      -0.2867
    164  CB        34.6860   11.4240    9.8950 C.3    99  GLN99       0.0367
    165  CG        33.7160   12.5860    9.7880 C.3    99  GLN99       0.0905
    166  CD        32.4810   12.3780   10.6520 C.2    99  GLN99       0.2608
    167  OE1       31.9440   11.2740   10.7270 O.2    99  GLN99      -0.2717
    168  NE2       32.0110   13.4410   11.2810 N.am   99  GLN99      -0.0878
    169  N         29.9680   11.6970    4.9410 N.3   108  ILE108     -0.1245
    170  CA        28.6770   12.3590    4.8620 C.3   108  ILE108      0.1561
    171  C         28.7140   13.2950    3.6640 C.2   108  ILE108      0.2260
    172  O         29.5720   14.1710    3.5780 O.2   108  ILE108     -0.2867
    173  CB        28.3970   13.1610    6.1380 C.3   108  ILE108      0.0252
    174  CG1       28.4100   12.2280    7.3630 C.3   108  ILE108      0.0019
    175  CG2       27.0610   13.9490    6.0310 C.3   108  ILE108      0.0019
    176  CD1       28.7750   12.9520    8.6360 C.3   108  ILE108      0.0001
    177  N         26.4690   16.0520    1.2730 N.3   110  ARG110     -0.1245
    178  CA        25.3120   16.9330    1.2820 C.3   110  ARG110      0.1563
    179  C         25.2040   17.5630   -0.0880 C.2   110  ARG110      0.2260
    180  O         26.1600   18.1440   -0.5980 O.2   110  ARG110     -0.2867
    181  CB        25.4650   18.0330    2.3460 C.3   110  ARG110      0.0307
    182  CG        25.5950   17.4890    3.7910 C.3   110  ARG110      0.0489
    183  CD        25.6990   18.6180    4.7820 C.3   110  ARG110      0.2205
    184  NE        25.6940   18.1410    6.1770 N.pl3 110  ARG110     -0.0865
    185  CZ        26.7810   17.7100    6.8260 C.cat 110  ARG110      0.5346
    186  NH1       27.9830   17.6820    6.2220 N.pl3 110  ARG110      0.1354
    187  NH2       26.6670   17.3100    8.0910 N.pl3 110  ARG110      0.1354
    188  N         17.8510   19.4000    0.4480 N.3   117  MET117     -0.1245
    189  CA        19.2200   18.9970    0.7570 C.3   117  MET117      0.1570
    190  C         19.1870   17.5130    1.0880 C.2   117  MET117      0.2261
    191  O         18.5030   17.0850    2.0150 O.2   117  MET117     -0.2867
    192  CB        19.8650   19.8410    1.8780 C.3   117  MET117      0.0387
    193  CG        21.2510   19.3220    2.2590 C.3   117  MET117      0.0595
    194  SD        22.1510   20.3100    3.4650 S.3   117  MET117     -0.1393
    195  CE        21.1590   19.9740    4.9580 C.3   117  MET117      0.0692
    196  N         21.1640   14.3910    2.3790 N.3   119  VAL119     -0.1245
    197  CA        22.3310   14.0840    3.1930 C.3   119  VAL119      0.1561
    198  C         22.4510   12.5710    3.2440 C.2   119  VAL119      0.2260
    199  O         21.5820   11.8860    3.8080 O.2   119  VAL119     -0.2867
    200  CB        22.1790   14.6450    4.6240 C.3   119  VAL119      0.0252
    201  CG1       23.4030   14.3070    5.4750 C.3   119  VAL119      0.0019
    202  CG2       21.9420   16.1510    4.6030 C.3   119  VAL119      0.0019
    203  N         24.7830    9.4000    4.3990 N.3   121  CYS121     -0.1235
    204  CA        25.8320    8.9900    5.3370 C.3   121  CYS121      0.1677
    205  C         26.2000    7.5440    5.0580 C.2   121  CYS121      0.2270
    206  O         25.3150    6.6760    4.9120 O.2   121  CYS121     -0.2867
    207  CB        25.3590    9.1330    6.7880 C.3   121  CYS121      0.0956
    208  SG        24.5270   10.7280    7.1530 S.3   121  CYS121     -0.0801
    209  N         19.0950   11.1730    4.5430 N.3   130  ARG130     -0.1245
    210  CA        18.2370   12.1390    5.2170 C.3   130  ARG130      0.1563
    211  C         17.8360   13.2800    4.2870 C.2   130  ARG130      0.2260
    212  O         18.6660   13.8080    3.5440 O.2   130  ARG130     -0.2867
    213  CB        18.9130   12.6300    6.5050 C.3   130  ARG130      0.0307
    214  CG        18.7800   11.5730    7.6200 C.3   130  ARG130      0.0489
    215  CD        19.8740   11.6460    8.6500 C.3   130  ARG130      0.2205
    216  NE        19.7040   12.6710    9.6910 N.pl3 130  ARG130     -0.0865
    217  CZ        18.8070   12.6530   10.6810 C.cat 130  ARG130      0.5346
    218  NH1       17.8750   11.7010   10.7810 N.pl3 130  ARG130      0.1354
    219  NH2       18.8230   13.6380   11.5710 N.pl3 130  ARG130      0.1354
    220  N         16.3540   17.0870    3.9230 N.3   132  TYR132     -0.1241
    221  CA        16.0810   18.3870    4.5400 C.3   132  TYR132      0.1605
    222  C         15.4200   19.3340    3.5680 C.2   132  TYR132      0.2264
    223  O         15.7760   19.3620    2.3860 O.2   132  TYR132     -0.2867
    224  CB        17.3930   19.0280    5.0080 C.3   132  TYR132      0.0534
    225  CG        18.0210   18.3670    6.2130 C.ar  132  TYR132     -0.0201
    226  CD1       18.7110   17.1710    6.0920 C.ar  132  TYR132     -0.0009
    227  CD2       17.9170   18.9390    7.4860 C.ar  132  TYR132     -0.0009
    228  CE1       19.2910   16.5540    7.1900 C.ar  132  TYR132      0.0417
    229  CE2       18.4910   18.3240    8.5980 C.ar  132  TYR132      0.0417
    230  CZ        19.1720   17.1300    8.4420 C.ar  132  TYR132      0.1957
    231  OH        19.7690   16.5060    9.5210 O.3   132  TYR132     -0.2866
@<TRIPOS>BOND
     1   180   179    2
     2   179   178    1
     3   188   189    1
     4   189   190    1
     5   189   192    1
     6   190   191    2
     7   177   178    1
     8   178   181    1
     9   192   193    1
    10   193   194    1
    11   181   182    1
    12   196   197    1
    13   223   222    2
    14   197   198    1
    15   197   200    1
    16   198   199    2
    17   194   195    1
    18   212   211    2
    19   222   221    1
    20   172   171    2
    21   171   170    1
    22   182   183    1
    23   220   221    1
    24   211   210    1
    25   203   204    1
    26   221   224    1
    27   209   210    1
    28   202   200    1
    29   200   201    1
    30   183   184    1
    31   170   169    1
    32   170   173    1
    33   206   205    2
    34   224   225    1
    35   205   204    1
    36   210   213    1
    37   204   207    1
    38   175   173    1
    39   226   225   ar
    40   226   228   ar
    41   173   174    1
    42   184   185    2
    43   225   227   ar
    44   186   185    1
    45   213   214    1
    46   207   208    1
    47   185   187    1
    48   228   230   ar
    49   174   176    1
    50   227   229   ar
    51   160   161    1
    52   214   215    1
    53    92    90    1
    54    83    82    2
    55   230   229   ar
    56   230   231    1
    57   163   162    2
    58    85    84    1
    59   215   216    1
    60    20    18   ar
    61    20    22   ar
    62    18    17   ar
    63   161   162    1
    64   161   164    1
    65    84    81    1
    66    90    91    1
    67    90    87    1
    68     1     2    1
    69    82    81    1
    70    23    22    1
    71    22    21   ar
    72    17    16    1
    73    17    19   ar
    74    16    13    1
    75   216   217    2
    76    86    87    1
    77    87    88    1
    78   165   164    1
    79   165   166    1
    80    81    80    1
    81    21    19   ar
    82     2     5    1
    83     2     3    1
    84    13    12    1
    85    13    14    1
    86   166   167    2
    87   166   168   am
    88   217   218    1
    89   217   219    1
    90     5     6    1
    91     7     6   ar
    92     7     9   ar
    93    88    89    2
    94     6     8   ar
    95     3     4    2
    96     9    11   ar
    97    14    15    2
    98    14    24   am
    99    76    75    2
   100    39    37    1
   101    98    97    1
   102     8    10   ar
   103    24    25    1
   104    11    10   ar
   105    75    74    1
   106    37    38    1
   107    37    36    1
   108    78    79    1
   109    78    77    1
   110   158   157    1
   111    79    73    1
   112    32    33    1
   113    93    94    1
   114    97    94    1
   115    97    99    1
   116    94    95    1
   117    73    74    1
   118    25    26    1
   119    25    28    1
   120    74    77    1
   121   159   157    1
   122    36    33    1
   123    33    34    1
   124   157   156    2
   125    29    28    1
   126    29    30    1
   127    26    27    2
   128   135   133    1
   129    95    96    2
   130    31    30    1
   131   125   124    2
   132   156   155    1
   133   127   126    1
   134    34    35    2
   135   133   130    1
   136   133   134    1
   137   155   154    1
   138    66    65    2
   139   124   123    1
   140    70    71    2
   141    70    69    1
   142   147   146   ar
   143   130   129    1
   144   130   131    1
   145   126   123    1
   146   126   128    1
   147    65    64    1
   148   153   154    1
   149   153   150    1
   150   136   131   am
   151   136   137    1
   152   148   146   ar
   153    46    44    1
   154   146   145    1
   155    68    69    1
   156   140   137    1
   157    67    64    1
   158   123   122    1
   159    69    72    1
   160   131   132    2
   161   152   151    2
   162    64    63    1
   163   100   101    1
   164   137   138    1
   165    40    41    1
   166   151   150    1
   167    44    41    1
   168    44    45    1
   169   104   101    1
   170   104   105    1
   171   150   149    1
   172   101   102    1
   173   145   142    1
   174   141   138   am
   175   141   142    1
   176    41    42    1
   177    43    42    2
   178   138   139    2
   179    63    57   am
   180   142   143    1
   181   116   115    2
   182    58    57    2
   183   102   103    2
   184    57    56    1
   185    50    49    2
   186   143   144    2
   187   115   114    1
   188    49    48    1
   189    55    56    1
   190    56    59    1
   191   120   119    1
   192   120   121    1
   193   119   118    1
   194   117   114    1
   195   117   118    1
   196   114   113    1
   197   113   108   am
   198    51    48    1
   199    51    52    1
   200    48    47    1
   201    59    60    1
   202   106   107    1
   203   110   107    1
   204   110   111    1
   205   110   112    1
   206    53    52    1
   207   107   108    1
   208   108   109    2
   209    52    54    1
   210    60    61    1
   211    62    61    1
