@<TRIPOS>MOLECULE
tmp/4azrA00.pdb
 124 112 0 0 0
SMALL
GASTEIGER

@<TRIPOS>ATOM
      1  N        -17.6590  -16.3700   15.8860 N.3    36  MET36      -0.1245
      2  CA       -17.7340  -15.8040   14.5400 C.3    36  MET36       0.1570
      3  C        -19.0940  -15.1600   14.3430 C.2    36  MET36       0.2261
      4  O        -19.1960  -14.0590   13.8410 O.2    36  MET36      -0.2867
      5  CB       -17.5380  -16.9170   13.5050 C.3    36  MET36       0.0387
      6  CG       -17.1090  -16.4690   12.1060 C.3    36  MET36       0.0595
      7  SD       -15.3370  -16.1860   11.9750 S.3    36  MET36      -0.1393
      8  CE       -14.7130  -17.7810   12.4640 C.3    36  MET36       0.0692
      9  N        -16.5420   -9.3140    8.0270 N.3    61  VAL61      -0.1245
     10  CA       -15.9190   -9.7990    9.2660 C.3    61  VAL61       0.1561
     11  C        -14.5150   -9.1780    9.4830 C.2    61  VAL61       0.2260
     12  O        -13.5170   -9.9030    9.5070 O.2    61  VAL61      -0.2867
     13  CB       -15.7920  -11.3740    9.2660 C.3    61  VAL61       0.0252
     14  CG1      -15.7200  -11.9460   10.7040 C.3    61  VAL61       0.0019
     15  CG2      -16.9270  -12.0530    8.4570 C.3    61  VAL61       0.0019
     16  N         -5.9020  -10.4280   12.9610 N.3    65  GLN65      -0.1245
     17  CA        -5.4080  -11.7670   13.2380 C.3    65  GLN65       0.1566
     18  C         -4.5430  -11.6560   14.4820 C.2    65  GLN65       0.2260
     19  O         -4.8710  -12.2380   15.5330 O.2    65  GLN65      -0.2867
     20  CB        -4.5600  -12.3020   12.0840 C.3    65  GLN65       0.0367
     21  CG        -5.2500  -12.3610   10.7370 C.3    65  GLN65       0.0905
     22  CD        -5.9030  -13.7140   10.4720 C.2    65  GLN65       0.2608
     23  OE1       -6.9930  -13.9960   11.0020 O.2    65  GLN65      -0.2717
     24  NE2       -5.2530  -14.5550    9.6310 N.am   65  GLN65      -0.0878
     25  N         -6.6730  -17.6140   16.9190 N.3    78  THR78      -0.1203
     26  CA        -6.9770  -17.8070   15.4990 C.3    78  THR78       0.1994
     27  C         -8.4700  -17.7890   15.2150 C.2    78  THR78       0.2618
     28  O         -9.3000  -17.9970   16.1050 O.2    78  THR78      -0.2717
     29  CB        -6.5020  -19.1800   14.9950 C.3    78  THR78       0.1784
     30  OG1       -7.0280  -20.1930   15.8620 O.3    78  THR78      -0.2211
     31  CG2       -4.9640  -19.2740   14.9090 C.3    78  THR78       0.0376
     32  N         -8.7860  -17.5800   13.9410 N.am   79  ALA79      -0.1965
     33  CA       -10.1520  -17.6190   13.4160 C.3    79  ALA79       0.1728
     34  C        -10.9160  -18.9060   13.7420 C.2    79  ALA79       0.2616
     35  O        -12.1290  -18.8750   13.8850 O.2    79  ALA79      -0.2715
     36  CB       -10.1130  -17.4110   11.9020 C.3    79  ALA79       0.0334
     37  N        -10.2130  -20.0340   13.8350 N.am   80  ASP80      -0.1971
     38  CA       -10.8650  -21.3080   14.0690 C.3    80  ASP80       0.1709
     39  C        -10.9350  -21.6090   15.5510 C.2    80  ASP80       0.2293
     40  O        -11.5900  -22.5700   15.9640 O.2    80  ASP80      -0.2864
     41  CB       -10.1870  -22.4380   13.2920 C.3    80  ASP80       0.1436
     42  CG        -8.7760  -22.7380   13.7760 C.2    80  ASP80       0.3671
     43  OD1       -7.8810  -21.8740   13.6570 O.co2  80  ASP80      -0.2456
     44  OD2       -8.5560  -23.8700   14.2590 O.co2  80  ASP80      -0.2456
     45  N         -8.1990  -21.6800   17.9690 N.3    82  ARG82      -0.1245
     46  CA        -7.0520  -22.2410   18.6580 C.3    82  ARG82       0.1563
     47  C         -6.3070  -21.1640   19.4300 C.2    82  ARG82       0.2260
     48  O         -6.2540  -20.0000   19.0010 O.2    82  ARG82      -0.2867
     49  CB        -6.0820  -22.8490   17.6530 C.3    82  ARG82       0.0307
     50  CG        -6.2140  -24.3310   17.4450 C.3    82  ARG82       0.0489
     51  CD        -5.3560  -24.7530   16.2750 C.3    82  ARG82       0.2205
     52  NE        -5.7270  -24.0400   15.0580 N.pl3  82  ARG82      -0.0865
     53  CZ        -4.8770  -23.4270   14.2400 C.cat  82  ARG82       0.5346
     54  NH1       -3.5680  -23.4470   14.4670 N.pl3  82  ARG82       0.1354
     55  NH2       -5.3480  -22.8010   13.1750 N.pl3  82  ARG82       0.1354
     56  N          3.2810  -21.0750    8.3750 N.3   108  ILE108     -0.1245
     57  CA         2.6620  -20.3220    7.3050 C.3   108  ILE108      0.1561
     58  C          3.6760  -19.3560    6.7420 C.2   108  ILE108      0.2260
     59  O          4.1490  -18.4490    7.4420 O.2   108  ILE108     -0.2867
     60  CB         1.4330  -19.5230    7.7730 C.3   108  ILE108      0.0252
     61  CG1        0.4200  -20.4430    8.4720 C.3   108  ILE108      0.0019
     62  CG2        0.7980  -18.7990    6.5880 C.3   108  ILE108      0.0019
     63  CD1       -0.6440  -19.7230    9.2890 C.3   108  ILE108      0.0001
     64  N          4.7880  -16.4980    3.7560 N.3   110  ARG110     -0.1245
     65  CA         4.2820  -15.4670    2.8490 C.3   110  ARG110      0.1563
     66  C          5.4120  -14.8210    2.0790 C.2   110  ARG110      0.2260
     67  O          6.2530  -14.1660    2.6640 O.2   110  ARG110     -0.2867
     68  CB         3.4810  -14.4200    3.5990 C.3   110  ARG110      0.0307
     69  CG         2.1550  -14.9210    4.1290 C.3   110  ARG110      0.0489
     70  CD         1.5370  -13.8110    4.9160 C.3   110  ARG110      0.2205
     71  NE         0.4210  -14.1780    5.7890 N.pl3 110  ARG110     -0.0865
     72  CZ         0.5370  -14.7630    6.9800 C.cat 110  ARG110      0.5346
     73  NH1        1.7280  -15.1490    7.4430 N.pl3 110  ARG110      0.1354
     74  NH2       -0.5540  -15.0010    7.6950 N.pl3 110  ARG110      0.1354
     75  N          1.0400  -12.2340   -3.8960 N.3   117  LEU117     -0.1245
     76  CA         1.3610  -12.6970   -2.5520 C.3   117  LEU117      0.1561
     77  C          1.0500  -14.1630   -2.5140 C.2   117  LEU117      0.2260
     78  O         -0.1080  -14.5380   -2.4980 O.2   117  LEU117     -0.2867
     79  CB         0.5590  -11.9460   -1.4800 C.3   117  LEU117      0.0270
     80  CG         0.9080  -12.2460   -0.0120 C.3   117  LEU117      0.0019
     81  CD1        2.0620  -11.4190    0.4760 C.3   117  LEU117      0.0001
     82  CD2       -0.2870  -12.0380    0.9040 C.3   117  LEU117      0.0001
     83  N          0.9400  -17.4530   -0.5020 N.3   119  VAL119     -0.1245
     84  CA         0.8580  -17.8730    0.8830 C.3   119  VAL119      0.1561
     85  C          0.8760  -19.4000    0.9750 C.2   119  VAL119      0.2260
     86  O          0.1170  -20.0790    0.2890 O.2   119  VAL119     -0.2867
     87  CB        -0.4040  -17.2760    1.5460 C.3   119  VAL119      0.0252
     88  CG1       -0.4990  -17.6960    3.0000 C.3   119  VAL119      0.0019
     89  CG2       -0.3830  -15.7630    1.4260 C.3   119  VAL119      0.0019
     90  N          0.9430  -22.9480    3.4610 N.3   121  CYS121     -0.1235
     91  CA         0.6560  -23.4840    4.7660 C.3   121  CYS121      0.1677
     92  C          1.0540  -24.9490    4.7620 C.2   121  CYS121      0.2270
     93  O          1.0970  -25.5800    3.7120 O.2   121  CYS121     -0.2867
     94  CB        -0.8210  -23.2870    5.0920 C.3   121  CYS121      0.0956
     95  SG        -1.3610  -21.5270    4.9930 S.3   121  CYS121     -0.0801
     96  N         -0.9060  -26.3930    1.3390 N.3   128  CYS128     -0.1235
     97  CA        -1.9520  -25.5030    0.8690 C.3   128  CYS128      0.1677
     98  C         -1.3520  -24.2030    0.3050 C.2   128  CYS128      0.2270
     99  O         -0.4930  -23.6030    0.9570 O.2   128  CYS128     -0.2867
    100  CB        -2.8590  -25.2110    2.0520 C.3   128  CYS128      0.0956
    101  SG        -3.7770  -23.7140    1.9850 S.3   128  CYS128     -0.0801
    102  N         -2.2090  -20.2870   -1.4150 N.3   130  ARG130     -0.1245
    103  CA        -3.1680  -19.2410   -1.7280 C.3   130  ARG130      0.1563
    104  C         -2.4710  -18.0660   -2.4100 C.2   130  ARG130      0.2260
    105  O         -1.4620  -17.5590   -1.9120 O.2   130  ARG130     -0.2867
    106  CB        -3.8840  -18.8080   -0.4540 C.3   130  ARG130      0.0307
    107  CG        -4.8910  -19.8200    0.0250 C.3   130  ARG130      0.0489
    108  CD        -5.1850  -19.6930    1.5050 C.3   130  ARG130      0.2205
    109  NE        -6.3390  -18.8330    1.8060 N.pl3 130  ARG130     -0.0865
    110  CZ        -7.6040  -19.0710    1.4370 C.cat 130  ARG130      0.5346
    111  NH1       -7.9370  -20.1310    0.6930 N.pl3 130  ARG130      0.1354
    112  NH2       -8.5470  -18.2160    1.7940 N.pl3 130  ARG130      0.1354
    113  N         -2.6210  -14.1540   -3.6740 N.3   132  TYR132     -0.1241
    114  CA        -3.3330  -12.8980   -3.5000 C.3   132  TYR132      0.1605
    115  C         -2.8570  -11.8800   -4.5050 C.2   132  TYR132      0.2264
    116  O         -1.7060  -11.9080   -4.9120 O.2   132  TYR132     -0.2867
    117  CB        -3.0950  -12.3390   -2.1040 C.3   132  TYR132      0.0534
    118  CG        -3.7440  -13.1430   -1.0190 C.ar  132  TYR132     -0.0201
    119  CD1       -3.1290  -14.2770   -0.5150 C.ar  132  TYR132     -0.0009
    120  CD2       -4.9760  -12.7620   -0.4920 C.ar  132  TYR132     -0.0009
    121  CE1       -3.7120  -15.0040    0.4570 C.ar  132  TYR132      0.0417
    122  CE2       -5.5790  -13.5010    0.4990 C.ar  132  TYR132      0.0417
    123  CZ        -4.9350  -14.6230    0.9660 C.ar  132  TYR132      0.1957
    124  OH        -5.5100  -15.3850    1.9560 O.3   132  TYR132     -0.2866
@<TRIPOS>BOND
     1   116   115    2
     2   115   114    1
     3    75    76    1
     4   113   114    1
     5   114   117    1
     6    76    77    1
     7    76    79    1
     8    77    78    2
     9   104   105    2
    10   104   103    1
    11   117   118    1
    12   103   102    1
    13   103   106    1
    14    79    80    1
    15   118   119   ar
    16   118   120   ar
    17   119   121   ar
    18    83    84    1
    19   120   122   ar
    20   106   107    1
    21    80    81    1
    22    80    82    1
    23   107   108    1
    24    86    85    2
    25    98    97    1
    26    98    99    2
    27   121   123   ar
    28   122   123   ar
    29   111   110    1
    30    97    96    1
    31    97   100    1
    32    84    85    1
    33    84    87    1
    34   123   124    1
    35    89    87    1
    36   110   112    1
    37   110   109    2
    38   108   109    1
    39    87    88    1
    40   101   100    1
    41    66    67    2
    42    66    65    1
    43    65    68    1
    44    65    64    1
    45    90    91    1
    46    68    69    1
    47    93    92    2
    48    69    70    1
    49    92    91    1
    50    91    94    1
    51    70    71    1
    52    95    94    1
    53    71    72    2
    54    62    60    1
    55    58    57    1
    56    58    59    2
    57    72    73    1
    58    72    74    1
    59    57    60    1
    60    57    56    1
    61    60    61    1
    62     9    10    1
    63    15    13    1
    64    61    63    1
    65    13    10    1
    66    13    14    1
    67    10    11    1
    68    11    12    2
    69    24    22   am
    70    22    21    1
    71    22    23    2
    72    21    20    1
    73    36    33    1
    74     7     6    1
    75     7     8    1
    76    20    17    1
    77     6     5    1
    78    16    17    1
    79    55    53    1
    80    17    18    1
    81    41    42    1
    82    41    38    1
    83    33    34    1
    84    33    32    1
    85     5     2    1
    86    43    42   ar
    87    34    37   am
    88    34    35    2
    89    42    44   ar
    90    37    38    1
    91     4     3    2
    92    32    27   am
    93    38    39    1
    94    53    54    1
    95    53    52    2
    96     3     2    1
    97    18    19    2
    98     2     1    1
    99    31    29    1
   100    29    26    1
   101    29    30    1
   102    52    51    1
   103    27    26    1
   104    27    28    2
   105    26    25    1
   106    39    40    2
   107    51    50    1
   108    50    49    1
   109    49    46    1
   110    45    46    1
   111    46    47    1
   112    48    47    2
