@<TRIPOS>MOLECULE
tmp/4azrA01.pdb
 121 110 0 0 0
SMALL
GASTEIGER

@<TRIPOS>ATOM
      1  N        -27.8280   -4.5920   11.4370 N.3    14  LEU14      -0.1245
      2  CA       -27.8710   -4.9590   12.8540 C.3    14  LEU14       0.1561
      3  C        -27.3090   -3.8540   13.7570 C.2    14  LEU14       0.2260
      4  O        -26.2190   -3.3280   13.5040 O.2    14  LEU14      -0.2867
      5  CB       -27.1300   -6.2770   13.0860 C.3    14  LEU14       0.0270
      6  CG       -27.0180   -6.7240   14.5360 C.3    14  LEU14       0.0019
      7  CD1      -28.3280   -7.2840   14.9300 C.3    14  LEU14       0.0001
      8  CD2      -25.9300   -7.7440   14.7370 C.3    14  LEU14       0.0001
      9  N        -28.2370  -13.9350   21.5730 N.3    20  PHE20      -0.1241
     10  CA       -27.8510  -14.6600   20.3650 C.3    20  PHE20       0.1605
     11  C        -26.9010  -15.8210   20.6420 C.2    20  PHE20       0.2264
     12  O        -27.0560  -16.8850   20.0480 O.2    20  PHE20      -0.2867
     13  CB       -27.2320  -13.7180   19.3350 C.3    20  PHE20       0.0534
     14  CG       -27.1300  -14.3060   17.9700 C.ar   20  PHE20      -0.0203
     15  CD1      -28.1410  -15.1240   17.4700 C.ar   20  PHE20      -0.0042
     16  CD2      -26.0230  -14.0280   17.1580 C.ar   20  PHE20      -0.0042
     17  CE1      -28.0460  -15.6800   16.1760 C.ar   20  PHE20      -0.0003
     18  CE2      -25.9110  -14.5710   15.8440 C.ar   20  PHE20      -0.0003
     19  CZ       -26.9210  -15.4010   15.3560 C.ar   20  PHE20      -0.0000
     20  N        -28.9170  -18.5360   22.0140 N.3    23  TYR23      -0.1227
     21  CA       -29.7050  -19.1080   20.9230 C.3    23  TYR23       0.1736
     22  C        -28.8870  -20.0710   20.0490 C.2    23  TYR23       0.2595
     23  O        -29.3400  -21.1800   19.7190 O.2    23  TYR23      -0.2718
     24  CB       -30.3450  -18.0220   20.0720 C.3    23  TYR23       0.0548
     25  CG       -31.1640  -18.5720   18.9180 C.ar   23  TYR23      -0.0200
     26  CD1      -32.3850  -19.2000   19.1450 C.ar   23  TYR23      -0.0009
     27  CD2      -30.7090  -18.4670   17.5920 C.ar   23  TYR23      -0.0009
     28  CE1      -33.1470  -19.7080   18.0850 C.ar   23  TYR23       0.0417
     29  CE2      -31.4520  -18.9730   16.5240 C.ar   23  TYR23       0.0417
     30  CZ       -32.6690  -19.6020   16.7750 C.ar   23  TYR23       0.1957
     31  OH       -33.4110  -20.1290   15.7290 O.3    23  TYR23      -0.2866
     32  N        -27.6820  -19.6680   19.6650 N.am   24  MET24      -0.1979
     33  CA       -26.8410  -20.5480   18.8760 C.3    24  MET24       0.1605
     34  C        -26.5010  -21.8270   19.6470 C.2    24  MET24       0.2287
     35  O        -26.4420  -22.9160   19.0580 O.2    24  MET24      -0.2864
     36  CB       -25.5750  -19.8240   18.4570 C.3    24  MET24       0.0413
     37  CG       -25.7660  -18.8590   17.3010 C.3    24  MET24       0.0598
     38  SD       -24.2040  -18.0820   16.8380 S.3    24  MET24      -0.1393
     39  CE       -24.0100  -16.8950   18.1680 C.3    24  MET24       0.0692
     40  N        -29.2990  -24.3500   19.3790 N.3    27  LEU27      -0.1245
     41  CA       -29.2610  -25.0450   18.1080 C.3    27  LEU27       0.1561
     42  C        -28.1860  -26.1380   18.0640 C.2    27  LEU27       0.2260
     43  O        -28.3070  -27.1050   17.3200 O.2    27  LEU27      -0.2867
     44  CB       -29.0710  -24.0450   16.9500 C.3    27  LEU27       0.0270
     45  CG       -30.2290  -23.0360   16.7640 C.3    27  LEU27       0.0019
     46  CD1      -29.8410  -21.8190   15.9810 C.3    27  LEU27       0.0001
     47  CD2      -31.4310  -23.7310   16.1250 C.3    27  LEU27       0.0001
     48  N        -24.6610  -25.0860   17.9030 N.3    29  VAL29      -0.1245
     49  CA       -23.4870  -24.4230   17.3000 C.3    29  VAL29       0.1561
     50  C        -22.2530  -24.4680   18.2210 C.2    29  VAL29       0.2260
     51  O        -22.3080  -24.0830   19.4050 O.2    29  VAL29      -0.2867
     52  CB       -23.8050  -22.9550   16.9030 C.3    29  VAL29       0.0252
     53  CG1      -22.6590  -22.3280   16.1690 C.3    29  VAL29       0.0019
     54  CG2      -25.0240  -22.9050   16.0170 C.3    29  VAL29       0.0019
     55  N        -17.5050  -21.2390   15.7510 N.3    33  LEU33      -0.1245
     56  CA       -18.5490  -20.6840   14.8970 C.3    33  LEU33       0.1561
     57  C        -19.4520  -19.7110   15.6560 C.2    33  LEU33       0.2260
     58  O        -19.9220  -18.7220   15.0930 O.2    33  LEU33      -0.2867
     59  CB       -19.3890  -21.8160   14.3050 C.3    33  LEU33       0.0270
     60  CG       -20.4040  -21.4760   13.2150 C.3    33  LEU33       0.0019
     61  CD1      -19.7120  -20.8620   12.0300 C.3    33  LEU33       0.0001
     62  CD2      -21.1830  -22.7160   12.8020 C.3    33  LEU33       0.0001
     63  N        -17.6590  -16.3700   15.8860 N.3    36  MET36      -0.1230
     64  CA       -17.7340  -15.8040   14.5400 C.3    36  MET36       0.1702
     65  C        -19.0940  -15.1600   14.3430 C.2    36  MET36       0.2592
     66  O        -19.1960  -14.0590   13.8410 O.2    36  MET36      -0.2718
     67  CB       -17.5380  -16.9170   13.5050 C.3    36  MET36       0.0401
     68  CG       -17.1090  -16.4690   12.1060 C.3    36  MET36       0.0596
     69  SD       -15.3370  -16.1860   11.9750 S.3    36  MET36      -0.1393
     70  CE       -14.7130  -17.7810   12.4640 C.3    36  MET36       0.0692
     71  N        -20.1470  -15.8530   14.7560 N.am   37  GLY37      -0.1957
     72  CA       -21.5020  -15.3470   14.6030 C.3    37  GLY37       0.1869
     73  C        -21.7140  -14.0330   15.3300 C.2    37  GLY37       0.2309
     74  O        -22.4630  -13.1820   14.8720 O.2    37  GLY37      -0.2863
     75  N        -19.9510  -10.5170   13.8480 N.3    40  ALA40      -0.1245
     76  CA       -20.3280  -10.0980   12.5080 C.3    40  ALA40       0.1562
     77  C        -21.4810   -9.1190   12.5630 C.2    40  ALA40       0.2260
     78  O        -22.4810   -9.3630   13.2370 O.2    40  ALA40      -0.2867
     79  CB       -20.6980  -11.2970   11.6660 C.3    40  ALA40       0.0290
     80  N        -23.9970   -8.4060   10.3700 N.3    42  PRO42      -0.2116
     81  CA       -24.6630   -8.8790    9.1780 C.3    42  PRO42       0.1372
     82  C        -25.6920   -7.8650    8.6860 C.2    42  PRO42       0.2244
     83  O        -26.3400   -7.1940    9.4990 O.2    42  PRO42      -0.2868
     84  CB       -25.3490  -10.1470    9.6590 C.3    42  PRO42       0.0268
     85  CG       -25.6670   -9.8660   11.0300 C.3    42  PRO42       0.0207
     86  CD       -24.5450   -9.0570   11.5670 C.3    42  PRO42       0.0892
     87  N        -29.1680   -7.7690    6.5810 N.3    44  CYS44      -0.1235
     88  CA       -30.2360   -8.6480    6.1830 C.3    44  CYS44       0.1677
     89  C        -30.9790   -8.0150    5.0050 C.2    44  CYS44       0.2270
     90  O        -31.4010   -6.8650    5.1030 O.2    44  CYS44      -0.2867
     91  CB       -31.1520   -8.7890    7.3740 C.3    44  CYS44       0.0956
     92  SG       -32.3810   -9.9970    7.1910 S.3    44  CYS44      -0.0801
     93  N        -34.2880   -8.3430    2.4420 N.3    46  ILE46      -0.1245
     94  CA       -35.5490   -9.0160    2.2670 C.3    46  ILE46       0.1561
     95  C        -36.1880   -8.4350    1.0350 C.2    46  ILE46       0.2260
     96  O        -36.1380   -7.2210    0.8530 O.2    46  ILE46      -0.2867
     97  CB       -36.4840   -8.7960    3.4910 C.3    46  ILE46       0.0252
     98  CG1      -35.8210   -9.3070    4.7740 C.3    46  ILE46       0.0019
     99  CG2      -37.8510   -9.4770    3.2830 C.3    46  ILE46       0.0019
    100  CD1      -36.5640   -8.9730    6.0490 C.3    46  ILE46       0.0001
    101  N        -34.6220  -13.9850    1.3920 N.3    55  ILE55      -0.1245
    102  CA       -33.8750  -13.3610    2.4840 C.3    55  ILE55       0.1561
    103  C        -32.3880  -13.6340    2.3420 C.2    55  ILE55       0.2260
    104  O        -31.9640  -14.7740    2.2840 O.2    55  ILE55      -0.2867
    105  CB       -34.3530  -13.8040    3.8680 C.3    55  ILE55       0.0252
    106  CG1      -35.8290  -13.4860    4.0210 C.3    55  ILE55       0.0019
    107  CG2      -33.5800  -13.0660    4.9590 C.3    55  ILE55       0.0019
    108  CD1      -36.3930  -13.7690    5.3590 C.3    55  ILE55       0.0001
    109  N        -28.3090  -12.6250    3.5310 N.3    57  THR57      -0.1218
    110  CA       -27.4340  -12.0430    4.5240 C.3    57  THR57       0.1862
    111  C        -26.1050  -11.6370    3.8560 C.2    57  THR57       0.2287
    112  O        -25.6740  -12.2130    2.8430 O.2    57  THR57      -0.2866
    113  CB       -27.2160  -12.9910    5.7090 C.3    57  THR57       0.1770
    114  OG1      -28.4160  -13.7310    5.9430 O.3    57  THR57      -0.2211
    115  CG2      -26.8840  -12.2020    6.9700 C.3    57  THR57       0.0375
    116  N        -22.6020  -10.2150    5.6390 N.3    59  SER59      -0.1217
    117  CA       -21.7890   -9.8390    6.7860 C.3    59  SER59       0.1889
    118  C        -20.3300   -9.6910    6.4040 C.2    59  SER59       0.2288
    119  O        -19.7310  -10.6080    5.8490 O.2    59  SER59      -0.2866
    120  CB       -21.9080  -10.8900    7.8780 C.3    59  SER59       0.2089
    121  OG       -21.7780  -12.1900    7.3340 O.3    59  SER59      -0.2183
@<TRIPOS>BOND
     1    96    95    2
     2    95    94    1
     3   101   102    1
     4    94    93    1
     5    94    97    1
     6   104   103    2
     7   103   102    1
     8   102   105    1
     9   112   111    2
    10    99    97    1
    11    97    98    1
    12   109   110    1
    13   111   110    1
    14   105   106    1
    15   105   107    1
    16   106   108    1
    17   110   113    1
    18    98   100    1
    19    89    90    2
    20    89    88    1
    21   116   117    1
    22   113   114    1
    23   113   115    1
    24   119   118    2
    25    88    87    1
    26    88    91    1
    27   118   117    1
    28   117   120    1
    29    92    91    1
    30   121   120    1
    31    82    81    1
    32    82    83    2
    33    81    84    1
    34    81    80    1
    35    84    85    1
    36    80    86    1
    37    85    86    1
    38     1     2    1
    39    79    76    1
    40    69    68    1
    41    69    70    1
    42    61    60    1
    43    68    67    1
    44    76    77    1
    45    76    75    1
    46    77    78    2
    47    62    60    1
    48     2     5    1
    49     2     3    1
    50     5     6    1
    51    60    59    1
    52     4     3    2
    53    67    64    1
    54    66    65    2
    55    59    56    1
    56    65    64    1
    57    65    71   am
    58     6     8    1
    59     6     7    1
    60    64    63    1
    61    72    71    1
    62    72    73    1
    63    74    73    2
    64    56    57    1
    65    56    55    1
    66    58    57    2
    67    19    18   ar
    68    19    17   ar
    69    31    30    1
    70    18    16   ar
    71    46    45    1
    72    54    52    1
    73    47    45    1
    74    53    52    1
    75    17    15   ar
    76    29    30   ar
    77    29    27   ar
    78    45    44    1
    79    30    28   ar
    80    38    37    1
    81    38    39    1
    82    52    49    1
    83    44    41    1
    84    16    14   ar
    85    49    48    1
    86    49    50    1
    87    37    36    1
    88    43    42    2
    89    15    14   ar
    90    27    25   ar
    91    14    13    1
    92    42    41    1
    93    28    26   ar
    94    41    40    1
    95    50    51    2
    96    36    33    1
    97    33    34    1
    98    33    32    1
    99    25    26   ar
   100    25    24    1
   101    35    34    2
   102    13    10    1
   103    32    22   am
   104    23    22    2
   105    12    11    2
   106    22    21    1
   107    24    21    1
   108    10    11    1
   109    10     9    1
   110    21    20    1
