@<TRIPOS>MOLECULE
tmp/4azsA00.pdb
 187 189 0 0 0
SMALL
GASTEIGER

@<TRIPOS>ATOM
      1  N         13.5090  -48.0090    9.2110 N.3   223  GLN223     -0.1245
      2  CA        13.8380  -47.1510   10.3140 C.3   223  GLN223      0.1566
      3  C         15.0130  -46.2970    9.8980 C.2   223  GLN223      0.2260
      4  O         15.9600  -46.8020    9.3070 O.2   223  GLN223     -0.2867
      5  CB        14.3530  -48.0620   11.4020 C.3   223  GLN223      0.0367
      6  CG        13.9670  -47.7730   12.8000 C.3   223  GLN223      0.0905
      7  CD        14.5140  -48.8740   13.6770 C.2   223  GLN223      0.2608
      8  OE1       15.4540  -48.6630   14.4390 O.2   223  GLN223     -0.2717
      9  NE2       13.9880  -50.0790   13.5050 N.am  223  GLN223     -0.0878
     10  N         21.8080  -47.4930   18.8200 N.3   225  GLN225     -0.1339
     11  CA        22.7300  -47.5500   19.9700 C.3   225  GLN225      0.0882
     12  C         22.8000  -46.1980   20.6530 C.3   225  GLN225      0.1714
     13  O         23.8710  -45.5720   20.6700 O.3   225  GLN225     -0.4777
     14  CB        24.1030  -47.9450   19.4720 C.3   225  GLN225      0.0399
     15  CG        24.1680  -49.2610   18.7450 C.3   225  GLN225      0.0033
     16  CD        23.9300  -50.4870   19.6090 C.3   225  GLN225      0.0637
     17  OE1       23.9850  -50.4100   20.8420 O.3   225  GLN225     -0.3719
     18  NE2       23.5950  -51.6390   19.0580 N.4   225  GLN225     -0.1785
     19  N         18.4570  -46.9980   19.8250 N.3   227  TYR227     -0.1245
     20  CA        17.4420  -46.8330   18.7600 C.3   227  TYR227      0.1563
     21  C         16.6050  -45.5640   18.9160 C.2   227  TYR227      0.2260
     22  O         17.1300  -44.4530   18.8990 O.2   227  TYR227     -0.2867
     23  CB        16.5310  -48.0820   18.5880 C.3   227  TYR227      0.0319
     24  CG        15.7550  -48.6050   19.8090 C.3   227  TYR227      0.0567
     25  CD1       16.4230  -49.1280   20.9310 C.3   227  TYR227      0.1273
     26  CD2       14.3510  -48.6440   19.8090 C.3   227  TYR227      0.1201
     27  CE1       15.7210  -49.6300   22.0230 C.3   227  TYR227      0.1132
     28  CE2       13.6440  -49.1420   20.8990 C.3   227  TYR227      0.0322
     29  CZ        14.3340  -49.6330   22.0030 C.3   227  TYR227      0.1729
     30  OH        13.6580  -50.1340   23.0900 O.3   227  TYR227     -0.3490
     31  N         17.7060  -48.5620    7.9580 N.3   232  TYR232     -0.1241
     32  CA        17.6030  -50.0060    8.1120 C.3   232  TYR232      0.1605
     33  C         16.2780  -50.4910    7.5450 C.2   232  TYR232      0.2264
     34  O         15.2510  -49.9640    7.8880 O.2   232  TYR232     -0.2867
     35  CB        17.7350  -50.4060    9.5910 C.3   232  TYR232      0.0534
     36  CG        19.0250  -49.8990   10.2170 C.ar  232  TYR232     -0.0201
     37  CD1       19.1210  -48.5940   10.6360 C.ar  232  TYR232     -0.0009
     38  CD2       20.1080  -50.7260   10.4030 C.ar  232  TYR232     -0.0009
     39  CE1       20.2710  -48.0960   11.1830 C.ar  232  TYR232      0.0417
     40  CE2       21.2830  -50.2370   10.9580 C.ar  232  TYR232      0.0417
     41  CZ        21.3530  -48.9140   11.3440 C.ar  232  TYR232      0.1957
     42  OH        22.4750  -48.3630   11.9150 O.3   232  TYR232     -0.2866
     43  N         13.7660  -53.8520    7.0650 N.3   234  PHE234     -0.1241
     44  CA        13.4690  -55.2110    7.6160 C.3   234  PHE234      0.1605
     45  C         12.5250  -55.9750    6.6900 C.2   234  PHE234      0.2264
     46  O         11.4170  -55.4930    6.3730 O.2   234  PHE234     -0.2867
     47  CB        12.8600  -55.0730    9.0050 C.3   234  PHE234      0.0534
     48  CG        13.7900  -54.3800    9.9990 C.ar  234  PHE234     -0.0203
     49  CD1       13.9270  -52.9990   10.0020 C.ar  234  PHE234     -0.0042
     50  CD2       14.5210  -55.1150   10.9150 C.ar  234  PHE234     -0.0042
     51  CE1       14.7930  -52.3590   10.8890 C.ar  234  PHE234     -0.0003
     52  CE2       15.3770  -54.4780   11.8110 C.ar  234  PHE234     -0.0003
     53  CZ        15.5240  -53.0900   11.7890 C.ar  234  PHE234     -0.0000
     54  N         17.8140  -58.0230    7.2880 N.3   239  VAL239     -0.1245
     55  CA        17.9160  -56.6260    7.5680 C.3   239  VAL239      0.1561
     56  C         18.9360  -56.0870    6.5870 C.2   239  VAL239      0.2260
     57  O         19.9910  -56.7120    6.3570 O.2   239  VAL239     -0.2867
     58  CB        18.3350  -56.3800    9.0060 C.3   239  VAL239      0.0252
     59  CG1       18.4140  -54.8880    9.2980 C.3   239  VAL239      0.0019
     60  CG2       17.3370  -57.0510    9.9370 C.3   239  VAL239      0.0019
     61  N         21.1580  -52.7950    5.8480 N.3   241  LYS241     -0.1245
     62  CA        21.7120  -51.5850    6.4570 C.3   241  LYS241      0.1561
     63  C         22.1530  -50.7430    5.2970 C.2   241  LYS241      0.2260
     64  O         22.9930  -51.1920    4.5100 O.2   241  LYS241     -0.2867
     65  CB        22.9730  -51.8600    7.2590 C.3   241  LYS241      0.0271
     66  CG        22.7950  -52.4080    8.6470 C.3   241  LYS241      0.0035
     67  CD        24.1090  -52.3640    9.4620 C.3   241  LYS241      0.0206
     68  CE        24.1560  -53.4910   10.5020 C.3   241  LYS241      0.1093
     69  NZ        25.1040  -53.3630   11.6500 N.3   241  LYS241     -0.1314
     70  N         26.4800  -62.7600   12.5260 N.3   281  PRO281     -0.2116
     71  CA        25.3720  -62.7970   11.5780 C.3   281  PRO281      0.1372
     72  C         25.8730  -62.9870   10.1680 C.2   281  PRO281      0.2244
     73  O         26.9110  -62.4380    9.8380 O.2   281  PRO281     -0.2868
     74  CB        24.7510  -61.3920   11.6600 C.3   281  PRO281      0.0268
     75  CG        25.3950  -60.7190   12.8080 C.3   281  PRO281      0.0207
     76  CD        26.6220  -61.4630   13.2070 C.3   281  PRO281      0.0892
     77  N         22.0670  -58.4880    5.8150 N.3   297  MET297     -0.1230
     78  CA        22.4290  -59.5610    6.7440 C.3   297  MET297      0.1702
     79  C         21.2280  -60.4230    7.1020 C.2   297  MET297      0.2592
     80  O         20.0980  -59.9680    7.0260 O.2   297  MET297     -0.2718
     81  CB        22.7720  -58.9590    8.0730 C.3   297  MET297      0.0401
     82  CG        24.0230  -58.1630    8.1120 C.3   297  MET297      0.0596
     83  SD        24.0350  -57.4950    9.7660 S.3   297  MET297     -0.1393
     84  CE        22.8660  -56.1750    9.5410 C.3   297  MET297      0.0692
     85  N         21.4820  -61.6060    7.6350 N.am  298  GLU298     -0.1966
     86  CA        20.4090  -62.3840    8.2740 C.3   298  GLU298      0.1733
     87  C         19.8320  -61.5530    9.4100 C.2   298  GLU298      0.2616
     88  O         20.5380  -60.7800   10.0650 O.2   298  GLU298     -0.2715
     89  CB        20.9190  -63.7260    8.8420 C.3   298  GLU298      0.0429
     90  CG        21.3380  -63.6260   10.3180 C.3   298  GLU298      0.1163
     91  CD        21.9010  -64.9200   10.9250 C.2   298  GLU298      0.3649
     92  OE1       21.1080  -65.8250   11.2540 O.co2 298  GLU298     -0.2457
     93  OE2       23.1380  -65.0110   11.0940 O.co2 298  GLU298     -0.2457
     94  N         18.5530  -61.7460    9.6700 N.am  299  LYS299     -0.1963
     95  CA        17.8420  -61.0050   10.6880 C.3   299  LYS299      0.1728
     96  C         17.9430  -61.7850   11.9690 C.2   299  LYS299      0.2616
     97  O         17.6620  -62.9430   11.9520 O.2   299  LYS299     -0.2715
     98  CB        16.3690  -60.9260   10.3230 C.3   299  LYS299      0.0311
     99  CG        15.5290  -60.2420   11.3770 C.3   299  LYS299      0.0038
    100  CD        14.0480  -60.5520   11.2000 C.3   299  LYS299      0.0206
    101  CE        13.4530  -59.6530   10.1380 C.3   299  LYS299      0.1093
    102  NZ        12.0240  -59.9630    9.8970 N.3   299  LYS299     -0.1314
    103  N         18.2920  -61.1290   13.0680 N.am  300  LEU300     -0.1977
    104  CA        18.4370  -61.7820   14.3450 C.3   300  LEU300      0.1596
    105  C         17.2260  -61.5470   15.2200 C.2   300  LEU300      0.2287
    106  O         16.6010  -60.4700   15.2090 O.2   300  LEU300     -0.2864
    107  CB        19.6620  -61.2570   15.0710 C.3   300  LEU300      0.0297
    108  CG        20.9750  -61.3860   14.3190 C.3   300  LEU300      0.0022
    109  CD1       22.0110  -60.4180   14.8820 C.3   300  LEU300      0.0001
    110  CD2       21.4580  -62.8110   14.3940 C.3   300  LEU300      0.0001
    111  N         15.3440  -60.7330   18.7120 N.3   302  GLY302     -0.1210
    112  CA        15.6090  -60.1070   19.9890 C.3   302  GLY302      0.1956
    113  C         15.3190  -58.6420   19.8920 C.2   302  GLY302      0.2612
    114  O         14.8630  -58.1670   18.8620 O.2   302  GLY302     -0.2717
    115  N         15.5840  -57.9250   20.9750 N.am  303  ARG303     -0.1965
    116  CA        15.4810  -56.4740   20.9810 C.3   303  ARG303      0.1729
    117  C         16.8190  -55.8190   21.3220 C.2   303  ARG303      0.2616
    118  O         17.6650  -56.3820   22.0790 O.2   303  ARG303     -0.2715
    119  CB        14.4230  -56.0270   21.9890 C.3   303  ARG303      0.0348
    120  CG        12.9990  -56.4620   21.6600 C.3   303  ARG303      0.0492
    121  CD        12.1990  -56.7360   22.9240 C.3   303  ARG303      0.2205
    122  NE        10.7970  -56.9850   22.6090 N.pl3 303  ARG303     -0.0865
    123  CZ        10.3100  -58.1330   22.1350 C.cat 303  ARG303      0.5346
    124  NH1       11.1050  -59.1790   21.9250 N.pl3 303  ARG303      0.1354
    125  NH2        9.0100  -58.2370   21.8730 N.pl3 303  ARG303      0.1354
    126  N         16.9920  -54.6230   20.7780 N.am  304  LEU304     -0.1977
    127  CA        18.1600  -53.8100   21.0280 C.3   304  LEU304      0.1596
    128  C         18.1690  -53.4020   22.5170 C.2   304  LEU304      0.2287
    129  O         17.1330  -53.0590   23.1070 O.2   304  LEU304     -0.2864
    130  CB        18.1620  -52.6100   20.0820 C.3   304  LEU304      0.0297
    131  CG        19.4860  -51.9070   19.7990 C.3   304  LEU304      0.0022
    132  CD1       20.3960  -52.7700   18.9590 C.3   304  LEU304      0.0001
    133  CD2       19.2260  -50.5790   19.1060 C.3   304  LEU304      0.0001
    134  N         16.7830  -49.9410   23.7290 N.3   307  ASP307     -0.1218
    135  CA        15.3220  -49.8320   23.7080 C.3   307  ASP307      0.1855
    136  C         14.7470  -50.4530   24.9830 C.2   307  ASP307      0.2287
    137  O         13.8830  -49.8510   25.6320 O.2   307  ASP307     -0.2866
    138  CB        14.6930  -50.4960   22.4650 C.3   307  ASP307      0.1698
    139  CG        15.0130  -49.7570   21.1790 C.3   307  ASP307      0.2168
    140  OD1       15.3920  -48.5710   21.2390 O.3   307  ASP307     -0.3343
    141  OD2       14.8850  -50.3560   20.0940 O.3   307  ASP307     -0.3345
    142  N         23.1550  -49.5630   22.4120 N.3   344  TRP344     -0.1312
    143  CA        22.5750  -49.5220   21.0690 C.3   344  TRP344      0.1143
    144  C         23.2870  -50.3780   20.0630 C.3   344  TRP344      0.2272
    145  O         22.9050  -50.3840   18.9080 O.3   344  TRP344     -0.2707
    146  CB        22.4840  -48.0930   20.5460 C.3   344  TRP344      0.0756
    147  CG        23.7400  -47.2940   20.7110 C.3   344  TRP344      0.0732
    148  CD1       24.7990  -47.1670   19.8170 C.3   344  TRP344      0.0987
    149  CD2       24.0950  -46.4400   21.8580 C.ar  344  TRP344      0.1530
    150  NE1       25.7780  -46.3340   20.3350 N.pl3 344  TRP344     -0.2361
    151  CE2       25.4100  -45.8620   21.5510 C.ar  344  TRP344      0.0991
    152  CE3       23.4750  -46.1150   23.0680 C.ar  344  TRP344      0.0382
    153  CZ2       26.0530  -44.9930   22.4260 C.ar  344  TRP344      0.0192
    154  CZ3       24.1390  -45.2440   23.9530 C.ar  344  TRP344      0.0032
    155  CH2       25.3920  -44.6910   23.6350 C.ar  344  TRP344      0.0015
    156  N         24.3200  -51.0960   20.4830 N.4   345  ASN345      0.4592
    157  CA        25.0390  -52.0200   19.6150 C.3   345  ASN345      0.1467
    158  C         24.8540  -53.4580   20.0620 C.2   345  ASN345      0.2115
    159  O         25.5020  -54.3610   19.5340 O.2   345  ASN345     -0.2888
    160  CB        26.5290  -51.7090   19.6370 C.3   345  ASN345      0.1003
    161  CG        26.8670  -50.4430   18.8810 C.2   345  ASN345      0.2608
    162  OD1       26.1940  -50.0910   17.8980 O.2   345  ASN345     -0.2717
    163  ND2       27.9070  -49.7360   19.3370 N.am  345  ASN345     -0.0878
    164  N         22.1330  -56.6130   21.1060 N.3   347  MET347     -0.1245
    165  CA        20.8140  -57.1990   20.9800 C.3   347  MET347      0.1570
    166  C         20.6760  -58.3680   21.9360 C.2   347  MET347      0.2261
    167  O         21.5940  -59.2210   22.1000 O.2   347  MET347     -0.2867
    168  CB        20.5300  -57.6540   19.5580 C.3   347  MET347      0.0387
    169  CG        20.0490  -56.5070   18.6740 C.3   347  MET347      0.0595
    170  SD        19.1260  -57.0200   17.2120 S.3   347  MET347     -0.1393
    171  CE        17.8430  -57.9350   18.0590 C.3   347  MET347      0.0692
    172  N         25.7560  -56.3600   17.4450 N.3   357  ILE357     -0.1231
    173  CA        25.1460  -56.3240   16.1300 C.3   357  ILE357      0.1692
    174  C         25.7010  -55.2590   15.1950 C.2   357  ILE357      0.2592
    175  O         25.2180  -55.1300   14.0290 O.2   357  ILE357     -0.2718
    176  CB        23.6590  -56.0440   16.2320 C.3   357  ILE357      0.0266
    177  CG1       23.4560  -54.7450   17.0210 C.3   357  ILE357      0.0019
    178  CG2       22.9470  -57.2410   16.8570 C.3   357  ILE357      0.0020
    179  CD1       22.3790  -53.8800   16.4370 C.3   357  ILE357      0.0001
    180  N         26.6650  -54.4830   15.6720 N.am  358  ASP358     -0.1974
    181  CA        27.3240  -53.5350   14.7830 C.3   358  ASP358      0.1709
    182  C         28.8100  -53.7570   14.8330 C.2   358  ASP358      0.2293
    183  O         29.4190  -53.6290   15.8890 O.2   358  ASP358     -0.2864
    184  CB        27.0030  -52.0860   15.1450 C.3   358  ASP358      0.1436
    185  CG        27.2660  -51.1310   13.9710 C.2   358  ASP358      0.3671
    186  OD1       26.3900  -51.0040   13.0450 O.co2 358  ASP358     -0.2456
    187  OD2       28.3690  -50.5350   13.9540 O.co2 358  ASP358     -0.2456
@<TRIPOS>BOND
     1    64    63    2
     2    63    62    1
     3    77    78    1
     4    61    62    1
     5    57    56    2
     6    46    45    2
     7    62    65    1
     8    56    55    1
     9    45    44    1
    10    78    79    1
    11    78    81    1
    12    80    79    2
    13    43    44    1
    14    79    85   am
    15    65    66    1
    16    54    55    1
    17    33    34    2
    18    33    32    1
    19    55    58    1
    20    44    47    1
    21    85    86    1
    22    31    32    1
    23    81    82    1
    24    82    83    1
    25    32    35    1
    26    86    89    1
    27    86    87    1
    28    66    67    1
    29    89    90    1
    30    47    48    1
    31    58    59    1
    32    58    60    1
    33     1     2    1
    34     4     3    2
    35    87    94   am
    36    87    88    2
    37    67    68    1
    38    84    83    1
    39    35    36    1
    40    94    95    1
    41    73    72    2
    42   102   101    1
    43     3     2    1
    44    48    49   ar
    45    48    50   ar
    46    49    51   ar
    47   101   100    1
    48    72    71    1
    49    36    38   ar
    50    36    37   ar
    51     2     5    1
    52    90    91    1
    53    98    95    1
    54    98    99    1
    55    38    40   ar
    56    68    69    1
    57    37    39   ar
    58    95    96    1
    59    51    53   ar
    60    50    52   ar
    61    91    93   ar
    62    91    92   ar
    63    40    41   ar
    64    39    41   ar
    65   100    99    1
    66    41    42    1
    67     5     6    1
    68    71    74    1
    69    71    70    1
    70    74    75    1
    71    53    52   ar
    72    97    96    2
    73    96   103   am
    74    70    76    1
    75     6     7    1
    76    75    76    1
    77   186   185   ar
    78   103   104    1
    79     9     7   am
    80     7     8    2
    81   187   185   ar
    82   185   184    1
    83   175   174    2
    84   108   110    1
    85   108   109    1
    86   108   107    1
    87   104   107    1
    88   104   105    1
    89   181   182    1
    90   181   184    1
    91   181   180    1
    92   182   183    2
    93   174   180   am
    94   174   173    1
    95   106   105    2
    96   173   176    1
    97   173   172    1
    98   176   178    1
    99   176   177    1
   100   179   177    1
   101   170   171    1
   102   170   169    1
   103   162   161    2
   104    23    20    1
   105    23    24    1
   106   169   168    1
   107   111   112    1
   108    15    14    1
   109    20    21    1
   110    20    19    1
   111    10    11    1
   112   114   113    2
   113   161   163   am
   114   161   160    1
   115    22    21    2
   116   145    18    1
   117   145   144    1
   118   132   131    1
   119    18   157    1
   120    18   156    1
   121   133   131    1
   122    14   148    1
   123    14    11    1
   124    14   147    1
   125   159   158    2
   126   168   165    1
   127    16   144    1
   128    16   156    1
   129   157   160    1
   130   157   158    1
   131   157   156    1
   132   131   130    1
   133    24    26    1
   134    24    25    1
   135    26   141    1
   136    26    28    1
   137   148   150    1
   138   148   147    1
   139   113   112    1
   140   113   115   am
   141    11   146    1
   142    11   147    1
   143   144    17    1
   144   130   127    1
   145   141   139    1
   146   150   151    1
   147   156    17    1
   148   146    12    1
   149   146   143    1
   150    12    13    1
   151    12   147    1
   152    13   149    1
   153   126   127    1
   154   126   117   am
   155    25   140    1
   156    25    27    1
   157   115   116    1
   158   165   164    1
   159   165   166    1
   160   116   117    1
   161   116   119    1
   162   127   128    1
   163   143   142    1
   164   139   140    1
   165   139    29    1
   166   139    27    1
   167   117   118    2
   168   151   149   ar
   169   151   153   ar
   170   120   119    1
   171   120   121    1
   172   149   152   ar
   173   125   123    1
   174   124   123    1
   175   166   167    2
   176    29    27    1
   177    29   138    1
   178    29    30    1
   179   123   122    2
   180   153   155   ar
   181   138    30    1
   182   138   135    1
   183   128   129    2
   184   122   121    1
   185   152   154   ar
   186   155   154   ar
   187   135   134    1
   188   135   136    1
   189   136   137    2
