@<TRIPOS>MOLECULE
tmp/4aztA01.pdb
 161 155 0 0 0
SMALL
GASTEIGER

@<TRIPOS>ATOM
      1  N          9.2550  -53.1580    7.1260 N.3   221  HIS221     -0.1241
      2  CA         9.3790  -51.8600    7.8300 C.3   221  HIS221      0.1621
      3  C         10.7690  -51.2950    7.7540 C.2   221  HIS221      0.2264
      4  O         11.7210  -51.9930    7.3870 O.2   221  HIS221     -0.2867
      5  CB         8.8380  -51.8940    9.2660 C.3   221  HIS221      0.0745
      6  CG         9.5500  -52.8670   10.1520 C.ar  221  HIS221      0.0817
      7  ND1        9.2000  -54.1760   10.2220 N.ar  221  HIS221     -0.2268
      8  CD2       10.6530  -52.7040   11.0060 C.ar  221  HIS221      0.1154
      9  CE1       10.0300  -54.8290   11.0810 C.ar  221  HIS221      0.1986
     10  NE2       10.9210  -53.9270   11.5700 N.ar  221  HIS221     -0.2212
     11  N         13.6310  -47.9990    9.3170 N.3   223  GLN223     -0.1231
     12  CA        14.0030  -47.1590   10.4540 C.3   223  GLN223      0.1698
     13  C         15.3390  -46.4230   10.2200 C.2   223  GLN223      0.2592
     14  O         16.2360  -46.9650    9.5640 O.2   223  GLN223     -0.2718
     15  CB        14.3060  -48.1100   11.5960 C.3   223  GLN223      0.0381
     16  CG        13.8670  -47.6680   12.9470 C.3   223  GLN223      0.0905
     17  CD        13.6600  -48.8740   13.8160 C.2   223  GLN223      0.2608
     18  OE1       13.6930  -50.0150   13.3400 O.2   223  GLN223     -0.2717
     19  NE2       13.4450  -48.6400   15.0870 N.am  223  GLN223     -0.0878
     20  N         15.5100  -45.2640   10.8560 N.am  224  ASN224     -0.1974
     21  CA        16.8090  -44.5560   10.9300 C.3   224  ASN224      0.1688
     22  C         17.7730  -45.0130   12.0150 C.2   224  ASN224      0.2292
     23  O         17.4440  -45.8920   12.7900 O.2   224  ASN224     -0.2864
     24  CB        16.5920  -43.0520   11.0640 C.3   224  ASN224      0.1181
     25  CG        16.3140  -42.4080    9.7340 C.2   224  ASN224      0.2629
     26  OD1       17.0320  -42.6380    8.7480 O.2   224  ASN224     -0.2716
     27  ND2       15.2660  -41.6150    9.6780 N.am  224  ASN224     -0.0877
     28  N         17.7190  -48.6260    7.9390 N.3   229  TYR229     -0.1241
     29  CA        17.5610  -50.0720    8.1120 C.3   229  TYR229      0.1605
     30  C         16.2300  -50.5490    7.5480 C.2   229  TYR229      0.2264
     31  O         15.1710  -50.0730    7.9390 O.2   229  TYR229     -0.2867
     32  CB        17.6730  -50.4770    9.5970 C.3   229  TYR229      0.0534
     33  CG        18.9870  -50.0520   10.2100 C.ar  229  TYR229     -0.0201
     34  CD1       19.1630  -48.7470   10.6870 C.ar  229  TYR229     -0.0009
     35  CD2       20.0310  -50.9480   10.3250 C.ar  229  TYR229     -0.0009
     36  CE1       20.3550  -48.3340   11.2250 C.ar  229  TYR229      0.0417
     37  CE2       21.2340  -50.5540   10.8910 C.ar  229  TYR229      0.0417
     38  CZ        21.3890  -49.2390   11.3240 C.ar  229  TYR229      0.1957
     39  OH        22.5860  -48.8480   11.8700 O.3   229  TYR229     -0.2866
     40  N         13.7320  -53.7890    7.0360 N.3   231  PHE231     -0.1241
     41  CA        13.4490  -55.1170    7.5990 C.3   231  PHE231      0.1605
     42  C         12.4800  -55.8650    6.7040 C.2   231  PHE231      0.2264
     43  O         11.3710  -55.3750    6.3910 O.2   231  PHE231     -0.2867
     44  CB        12.9290  -54.9850    9.0260 C.3   231  PHE231      0.0534
     45  CG        13.9200  -54.3330    9.9770 C.ar  231  PHE231     -0.0203
     46  CD1       14.8520  -55.1050   10.6810 C.ar  231  PHE231     -0.0042
     47  CD2       13.9440  -52.9350   10.1540 C.ar  231  PHE231     -0.0042
     48  CE1       15.7600  -54.5030   11.5570 C.ar  231  PHE231     -0.0003
     49  CE2       14.8530  -52.3410   11.0350 C.ar  231  PHE231     -0.0003
     50  CZ        15.7610  -53.1240   11.7360 C.ar  231  PHE231     -0.0000
     51  N         17.8380  -57.9390    7.2070 N.3   236  VAL236     -0.1245
     52  CA        17.9670  -56.5170    7.4940 C.3   236  VAL236      0.1561
     53  C         18.9220  -56.0150    6.4490 C.2   236  VAL236      0.2260
     54  O         20.0070  -56.6170    6.2260 O.2   236  VAL236     -0.2867
     55  CB        18.6920  -56.2290    8.8130 C.3   236  VAL236      0.0252
     56  CG1       18.5590  -54.7520    9.1790 C.3   236  VAL236      0.0019
     57  CG2       18.1400  -57.0970    9.9160 C.3   236  VAL236      0.0019
     58  N         21.1860  -52.8260    5.6420 N.3   238  LYS238     -0.1245
     59  CA        21.7740  -51.6760    6.3260 C.3   238  LYS238      0.1561
     60  C         22.2690  -50.7350    5.2560 C.2   238  LYS238      0.2260
     61  O         23.1500  -51.0940    4.4820 O.2   238  LYS238     -0.2867
     62  CB        22.9170  -52.1760    7.1820 C.3   238  LYS238      0.0271
     63  CG        23.3520  -51.2150    8.2600 C.3   238  LYS238      0.0035
     64  CD        24.3510  -51.8710    9.2210 C.3   238  LYS238      0.0206
     65  CE        25.1010  -50.7910   10.0210 C.3   238  LYS238      0.1093
     66  NZ        25.9180  -51.3310   11.1730 N.3   238  LYS238     -0.1314
     67  N         26.2280  -62.7490   12.0570 N.3   278  PRO278     -0.2116
     68  CA        25.1350  -62.8380   11.0720 C.3   278  PRO278      0.1372
     69  C         25.6620  -63.0570    9.6670 C.2   278  PRO278      0.2244
     70  O         26.6140  -62.4120    9.2810 O.2   278  PRO278     -0.2868
     71  CB        24.4900  -61.4440   11.1280 C.3   278  PRO278      0.0268
     72  CG        24.9500  -60.8410   12.4070 C.3   278  PRO278      0.0207
     73  CD        26.2870  -61.4340   12.7210 C.3   278  PRO278      0.0892
     74  N         21.9860  -58.5910    5.6080 N.3   294  MET294     -0.1230
     75  CA        22.3660  -59.6340    6.5610 C.3   294  MET294      0.1702
     76  C         21.1390  -60.4450    6.9510 C.2   294  MET294      0.2592
     77  O         20.0160  -59.9820    6.8460 O.2   294  MET294     -0.2718
     78  CB        22.8950  -59.0150    7.8470 C.3   294  MET294      0.0401
     79  CG        24.0310  -58.0550    7.6170 C.3   294  MET294      0.0596
     80  SD        24.4520  -57.1190    9.0980 S.3   294  MET294     -0.1393
     81  CE        23.1580  -55.8930    9.2820 C.3   294  MET294      0.0692
     82  N         21.3500  -61.6390    7.4580 N.am  295  GLU295     -0.1966
     83  CA        20.2520  -62.3460    8.0410 C.3   295  GLU295      0.1733
     84  C         19.8270  -61.5370    9.2760 C.2   295  GLU295      0.2616
     85  O         20.6100  -60.8000    9.8700 O.2   295  GLU295     -0.2715
     86  CB        20.6470  -63.7870    8.3660 C.3   295  GLU295      0.0429
     87  CG        21.0160  -63.9930    9.8300 C.3   295  GLU295      0.1163
     88  CD        21.8930  -65.2270   10.0810 C.2   295  GLU295      0.3649
     89  OE1       21.8860  -66.1800    9.2480 O.co2 295  GLU295     -0.2457
     90  OE2       22.6040  -65.2250   11.1170 O.co2 295  GLU295     -0.2457
     91  N         18.5790  -61.6660    9.6500 N.am  296  LYS296     -0.1963
     92  CA        17.9890  -60.7720   10.6100 C.3   296  LYS296      0.1728
     93  C         18.0550  -61.4770   11.9400 C.2   296  LYS296      0.2616
     94  O         17.7760  -62.6510   12.0080 O.2   296  LYS296     -0.2715
     95  CB        16.5420  -60.5580   10.1620 C.3   296  LYS296      0.0311
     96  CG        15.5530  -59.9280   11.1160 C.3   296  LYS296      0.0038
     97  CD        14.1840  -60.4350   10.6910 C.3   296  LYS296      0.0206
     98  CE        13.0740  -59.4550   10.9710 C.3   296  LYS296      0.1093
     99  NZ        12.0800  -59.6220    9.8890 N.3   296  LYS296     -0.1314
    100  N         18.4490  -60.7820   12.9970 N.am  297  LEU297     -0.1964
    101  CA        18.4940  -61.4190   14.3250 C.3   297  LEU297      0.1713
    102  C         17.1800  -61.2350   15.1040 C.2   297  LEU297      0.2458
    103  O         16.4890  -60.2190   14.9470 O.2   297  LEU297     -0.2730
    104  CB        19.6520  -60.8510   15.1440 C.3   297  LEU297      0.0310
    105  CG        21.0620  -60.8980   14.5530 C.3   297  LEU297      0.0022
    106  CD1       22.0250  -60.0350   15.3780 C.3   297  LEU297      0.0001
    107  CD2       21.5140  -62.3510   14.4760 C.3   297  LEU297      0.0001
    108  N         16.8230  -62.2110   15.9500 N.am  298  PRO298     -0.2716
    109  CA        15.6300  -61.9440   16.7650 C.3   298  PRO298      0.1536
    110  C         15.9850  -61.0740   18.0040 C.2   298  PRO298      0.2599
    111  O         17.1400  -61.0320   18.4230 O.2   298  PRO298     -0.2715
    112  CB        15.2050  -63.3570   17.2030 C.3   298  PRO298      0.0310
    113  CG        16.5200  -64.0920   17.3660 C.3   298  PRO298      0.0237
    114  CD        17.4540  -63.5070   16.3040 C.3   298  PRO298      0.0939
    115  N         14.9910  -60.4010   18.5710 N.am  299  GLY299     -0.1941
    116  CA        15.1030  -59.7350   19.8760 C.3   299  GLY299      0.2014
    117  C         14.8690  -58.2370   19.7940 C.2   299  GLY299      0.2639
    118  O         14.4150  -57.7220   18.7710 O.2   299  GLY299     -0.2714
    119  N         15.1790  -57.5240   20.8700 N.am  300  ARG300     -0.1963
    120  CA        15.1600  -56.0650   20.8170 C.3   300  ARG300      0.1729
    121  C         16.5190  -55.4790   21.1590 C.2   300  ARG300      0.2616
    122  O         17.3570  -56.1070   21.8200 O.2   300  ARG300     -0.2715
    123  CB        14.0810  -55.4300   21.7290 C.3   300  ARG300      0.0348
    124  CG        12.6520  -55.9390   21.5880 C.3   300  ARG300      0.0492
    125  CD        12.3370  -56.8950   22.7300 C.3   300  ARG300      0.2205
    126  NE        10.9020  -57.0110   22.9580 N.pl3 300  ARG300     -0.0865
    127  CZ        10.1230  -57.9140   22.3690 C.cat 300  ARG300      0.5346
    128  NH1       10.6490  -58.7960   21.5150 N.pl3 300  ARG300      0.1354
    129  NH2        8.8160  -57.9340   22.6270 N.pl3 300  ARG300      0.1354
    130  N         16.7040  -54.2450   20.7200 N.am  301  LEU301     -0.1977
    131  CA        17.9120  -53.5110   20.9660 C.3   301  LEU301      0.1596
    132  C         17.9260  -53.1650   22.4710 C.2   301  LEU301      0.2287
    133  O         16.8820  -52.8440   23.0570 O.2   301  LEU301     -0.2864
    134  CB        17.9120  -52.2800   20.0710 C.3   301  LEU301      0.0297
    135  CG        19.2230  -51.6790   19.5850 C.3   301  LEU301      0.0022
    136  CD1       20.0460  -52.6710   18.8020 C.3   301  LEU301      0.0001
    137  CD2       18.9610  -50.4300   18.7590 C.3   301  LEU301      0.0001
    138  N         16.4810  -49.7500   23.6790 N.3   304  ASP304     -0.1239
    139  CA        15.0210  -49.7220   23.6970 C.3   304  ASP304      0.1674
    140  C         14.4550  -50.3340   24.9670 C.2   304  ASP304      0.2266
    141  O         13.4700  -49.8360   25.5240 O.2   304  ASP304     -0.2867
    142  CB        14.4360  -50.4450   22.4800 C.3   304  ASP304      0.1410
    143  CG        14.7020  -49.7100   21.2070 C.2   304  ASP304      0.3668
    144  OD1       14.9170  -48.4860   21.2930 O.co2 304  ASP304     -0.2456
    145  OD2       14.6930  -50.3330   20.1200 O.co2 304  ASP304     -0.2456
    146  N         21.8790  -56.4500   20.9420 N.3   344  MET344     -0.1245
    147  CA        20.5410  -56.9790   20.8710 C.3   344  MET344      0.1570
    148  C         20.3240  -58.1120   21.8440 C.2   344  MET344      0.2261
    149  O         21.2270  -58.9270   22.1020 O.2   344  MET344     -0.2867
    150  CB        20.2100  -57.3880   19.4470 C.3   344  MET344      0.0387
    151  CG        19.8340  -56.1660   18.6340 C.3   344  MET344      0.0595
    152  SD        18.6330  -56.5480   17.3870 S.3   344  MET344     -0.1393
    153  CE        17.6330  -57.8080   18.1670 C.3   344  MET344      0.0692
    154  N         25.7050  -55.9660   17.4210 N.3   354  ILE354     -0.1245
    155  CA        25.1430  -55.9070   16.0700 C.3   354  ILE354      0.1561
    156  C         25.8220  -54.9610   15.1270 C.2   354  ILE354      0.2260
    157  O         25.5290  -54.9910   13.9150 O.2   354  ILE354     -0.2867
    158  CB        23.6690  -55.5170   16.0620 C.3   354  ILE354      0.0252
    159  CG1       23.4710  -54.2760   16.9450 C.3   354  ILE354      0.0019
    160  CG2       22.8160  -56.7120   16.4740 C.3   354  ILE354      0.0019
    161  CD1       22.5510  -53.2370   16.3450 C.3   354  ILE354      0.0001
@<TRIPOS>BOND
     1    61    60    2
     2    60    59    1
     3    74    75    1
     4    58    59    1
     5    54    53    2
     6    59    62    1
     7    43    42    2
     8    53    52    1
     9    75    76    1
    10    75    78    1
    11    42    41    1
    12    77    76    2
    13    76    82   am
    14    40    41    1
    15     1     2    1
    16    62    63    1
    17    51    52    1
    18     4     3    2
    19    82    83    1
    20    52    55    1
    21    30    31    2
    22    30    29    1
    23    41    44    1
    24    79    78    1
    25    79    80    1
    26     3     2    1
    27     2     5    1
    28    28    29    1
    29    83    86    1
    30    83    84    1
    31    29    32    1
    32    63    64    1
    33    86    87    1
    34    26    25    2
    35    55    56    1
    36    55    57    1
    37    44    45    1
    38    80    81    1
    39    64    65    1
    40    89    88   ar
    41     5     6    1
    42    84    91   am
    43    84    85    2
    44    70    69    2
    45    11    12    1
    46    14    13    2
    47    32    33    1
    48    91    92    1
    49    69    68    1
    50    27    25   am
    51    25    24    1
    52    87    88    1
    53    99    98    1
    54    45    47   ar
    55    45    46   ar
    56    65    66    1
    57    88    90   ar
    58     6     7   ar
    59     6     8   ar
    60    47    49   ar
    61    95    92    1
    62    95    96    1
    63    33    35   ar
    64    33    34   ar
    65    13    12    1
    66    13    20   am
    67     7     9   ar
    68    35    37   ar
    69    12    15    1
    70    92    93    1
    71    46    48   ar
    72    34    36   ar
    73    97    98    1
    74    97    96    1
    75    20    21    1
    76    37    38   ar
    77    21    24    1
    78    21    22    1
    79     8    10   ar
    80    49    50   ar
    81    68    71    1
    82    68    67    1
    83     9    10   ar
    84    71    72    1
    85    36    38   ar
    86    38    39    1
    87    48    50   ar
    88    15    16    1
    89    93    94    2
    90    93   100   am
    91    22    23    2
    92    67    73    1
    93    72    73    1
    94    16    17    1
    95   100   101    1
    96    18    17    2
    97    17    19   am
    98   157   156    2
    99   101   102    1
   100   101   104    1
   101   107   105    1
   102   105   104    1
   103   105   106    1
   104   103   102    2
   105   102   108   am
   106   156   155    1
   107   108   114    1
   108   108   109    1
   109   158   155    1
   110   158   160    1
   111   158   159    1
   112   155   154    1
   113   114   113    1
   114   161   159    1
   115   109   112    1
   116   109   110    1
   117   112   113    1
   118   152   153    1
   119   152   151    1
   120   110   111    2
   121   110   115   am
   122   115   116    1
   123   151   150    1
   124   137   135    1
   125   118   117    2
   126   136   135    1
   127   150   147    1
   128   135   134    1
   129   117   116    1
   130   117   119   am
   131   134   131    1
   132   145   143   ar
   133   130   131    1
   134   130   121   am
   135   120   119    1
   136   120   121    1
   137   120   123    1
   138   147   146    1
   139   147   148    1
   140   131   132    1
   141   121   122    2
   142   143   144   ar
   143   143   142    1
   144   128   127    1
   145   124   123    1
   146   124   125    1
   147   148   149    2
   148   127   129    1
   149   127   126    2
   150   132   133    2
   151   142   139    1
   152   125   126    1
   153   138   139    1
   154   139   140    1
   155   140   141    2
