@<TRIPOS>MOLECULE
tmp/4azwA00.pdb
 225 216 0 0 0
SMALL
GASTEIGER

@<TRIPOS>ATOM
      1  N        -20.3100   17.0010  -16.8520 N.3   215  GLN215     -0.1245
      2  CA       -20.1840   18.0390  -15.8230 C.3   215  GLN215      0.1566
      3  C        -19.0900   19.0140  -16.1270 C.2   215  GLN215      0.2260
      4  O        -18.1120   18.7080  -16.8030 O.2   215  GLN215     -0.2867
      5  CB       -20.0200   17.4790  -14.4080 C.3   215  GLN215      0.0367
      6  CG       -18.9720   16.4320  -14.2770 C.3   215  GLN215      0.0905
      7  CD       -19.1440   15.5450  -13.0220 C.2   215  GLN215      0.2608
      8  OE1      -18.2250   15.4290  -12.1890 O.2   215  GLN215     -0.2717
      9  NE2      -20.3010   14.8960  -12.9000 N.am  215  GLN215     -0.0878
     10  N        -15.0260   18.8550  -11.5870 N.3   218  PRO218     -0.2102
     11  CA       -14.5530   17.4940  -11.4610 C.3   218  PRO218      0.1504
     12  C        -15.3160   16.6300  -10.4400 C.2   218  PRO218      0.2575
     13  O        -15.4050   15.4000  -10.6010 O.2   218  PRO218     -0.2718
     14  CB       -13.0660   17.6610  -11.1370 C.3   218  PRO218      0.0282
     15  CG       -12.9330   19.0340  -10.6240 C.3   218  PRO218      0.0208
     16  CD       -13.9800   19.8420  -11.3150 C.3   218  PRO218      0.0893
     17  N        -15.9030   17.2560   -9.4270 N.am  219  TYR219     -0.1977
     18  CA       -16.5310   16.5070   -8.3180 C.3   219  TYR219      0.1639
     19  C        -17.4370   17.4410   -7.5110 C.2   219  TYR219      0.2290
     20  O        -17.2330   18.6500   -7.4990 O.2   219  TYR219     -0.2864
     21  CB       -15.4610   15.8260   -7.4040 C.3   219  TYR219      0.0560
     22  CG       -14.4050   16.7760   -6.8980 C.ar  219  TYR219     -0.0198
     23  CD1      -14.5780   17.4730   -5.7310 C.ar  219  TYR219     -0.0009
     24  CD2      -13.2220   16.9400   -7.5730 C.ar  219  TYR219     -0.0009
     25  CE1      -13.6290   18.3640   -5.2800 C.ar  219  TYR219      0.0417
     26  CE2      -12.2630   17.8290   -7.1330 C.ar  219  TYR219      0.0417
     27  CZ       -12.4740   18.5410   -5.9920 C.ar  219  TYR219      0.1957
     28  OH       -11.5220   19.4340   -5.5640 O.3   219  TYR219     -0.2866
     29  N        -12.5890   26.2410   -9.4050 N.3   225  ALA225     -0.1231
     30  CA       -11.0980   26.2490   -9.5060 C.3   225  ALA225      0.1694
     31  C        -10.5310   26.3670  -10.9230 C.2   225  ALA225      0.2592
     32  O         -9.4920   26.9750  -11.1100 O.2   225  ALA225     -0.2718
     33  CB       -10.5180   25.0100   -8.8440 C.3   225  ALA225      0.0304
     34  N        -11.2100   25.7730  -11.9050 N.am  226  HIS226     -0.1976
     35  CA       -10.7380   25.7730  -13.2830 C.3   226  HIS226      0.1656
     36  C        -11.4980   26.7630  -14.1080 C.2   226  HIS226      0.2291
     37  O        -11.4360   26.7670  -15.3430 O.2   226  HIS226     -0.2864
     38  CB       -10.8440   24.3670  -13.8450 C.3   226  HIS226      0.0771
     39  CG       -10.0860   23.3560  -13.0450 C.ar  226  HIS226      0.0820
     40  ND1       -8.7720   23.4490  -12.8520 N.ar  226  HIS226     -0.2267
     41  CD2      -10.5170   22.2510  -12.3020 C.ar  226  HIS226      0.1154
     42  CE1       -8.3570   22.4370  -12.0480 C.ar  226  HIS226      0.1986
     43  NE2       -9.4230   21.7020  -11.7170 N.ar  226  HIS226     -0.2212
     44  N        -12.6660   23.2050  -17.9360 N.3   230  ARG230     -0.1245
     45  CA       -12.6570   21.7690  -18.2240 C.3   230  ARG230      0.1563
     46  C        -14.0630   21.1510  -18.2070 C.2   230  ARG230      0.2260
     47  O        -14.8640   21.4560  -17.3290 O.2   230  ARG230     -0.2867
     48  CB       -11.7800   21.0130  -17.2380 C.3   230  ARG230      0.0307
     49  CG       -10.6930   21.8720  -16.6430 C.3   230  ARG230      0.0489
     50  CD        -9.5700   21.0260  -16.1280 C.3   230  ARG230      0.2205
     51  NE        -8.3460   21.7670  -16.0060 N.pl3 230  ARG230     -0.0865
     52  CZ        -7.2740   21.3050  -15.3590 C.cat 230  ARG230      0.5346
     53  NH1       -7.2950   20.1040  -14.7920 N.pl3 230  ARG230      0.1354
     54  NH2       -6.1780   22.0330  -15.2960 N.pl3 230  ARG230      0.1354
     55  N        -16.1240   17.3750  -18.4870 N.3   232  TYR232     -0.1241
     56  CA       -16.0160   15.9520  -18.3040 C.3   232  TYR232      0.1605
     57  C        -17.2950   15.2370  -18.7960 C.2   232  TYR232      0.2264
     58  O        -18.4060   15.5800  -18.3640 O.2   232  TYR232     -0.2867
     59  CB       -15.8090   15.7190  -16.8110 C.3   232  TYR232      0.0534
     60  CG       -14.6700   16.5470  -16.2320 C.ar  232  TYR232     -0.0201
     61  CD1      -13.3570   16.2030  -16.4220 C.ar  232  TYR232     -0.0009
     62  CD2      -14.9370   17.7150  -15.5320 C.ar  232  TYR232     -0.0009
     63  CE1      -12.3260   16.9880  -15.8830 C.ar  232  TYR232      0.0417
     64  CE2      -13.9560   18.4920  -14.9990 C.ar  232  TYR232      0.0417
     65  CZ       -12.6520   18.1500  -15.1610 C.ar  232  TYR232      0.1957
     66  OH       -11.7100   18.9840  -14.6060 O.3   232  TYR232     -0.2866
     67  N        -19.2140   11.4710  -19.4950 N.3   234  PHE234     -0.1241
     68  CA       -19.2850   10.0940  -18.9960 C.3   234  PHE234      0.1605
     69  C        -20.1470    9.2610  -19.9270 C.2   234  PHE234      0.2264
     70  O        -21.3780    9.4810  -20.0580 O.2   234  PHE234     -0.2867
     71  CB       -19.9040   10.0340  -17.6030 C.3   234  PHE234      0.0534
     72  CG       -19.0900   10.7310  -16.5690 C.ar  234  PHE234     -0.0203
     73  CD1      -19.1220   12.0940  -16.4660 C.ar  234  PHE234     -0.0042
     74  CD2      -18.2490   10.0310  -15.7640 C.ar  234  PHE234     -0.0042
     75  CE1      -18.3320   12.7490  -15.5700 C.ar  234  PHE234     -0.0003
     76  CE2      -17.4560   10.6720  -14.8660 C.ar  234  PHE234     -0.0003
     77  CZ       -17.5000   12.0360  -14.7600 C.ar  234  PHE234     -0.0000
     78  N        -14.5250    7.8180  -19.9890 N.3   239  VAL239     -0.1245
     79  CA       -14.5790    9.1800  -19.5250 C.3   239  VAL239      0.1561
     80  C        -13.7400   10.0520  -20.4620 C.2   239  VAL239      0.2260
     81  O        -12.6070    9.6800  -20.8140 O.2   239  VAL239     -0.2867
     82  CB       -14.0840    9.3070  -18.0870 C.3   239  VAL239      0.0252
     83  CG1      -14.3430   10.7250  -17.5740 C.3   239  VAL239      0.0019
     84  CG2      -14.7960    8.2960  -17.2280 C.3   239  VAL239      0.0019
     85  N        -12.0700   13.8060  -20.8760 N.3   241  LYS241     -0.1245
     86  CA       -11.6260   15.0800  -20.3190 C.3   241  LYS241      0.1561
     87  C        -11.4140   16.0150  -21.5090 C.2   241  LYS241      0.2260
     88  O        -10.6880   15.6580  -22.4460 O.2   241  LYS241     -0.2867
     89  CB       -10.3330   14.8820  -19.5260 C.3   241  LYS241      0.0271
     90  CG       -10.5800   14.2600  -18.1530 C.3   241  LYS241      0.0035
     91  CD        -9.3250   13.6520  -17.5080 C.3   241  LYS241      0.0206
     92  CE        -8.7680   14.5300  -16.3940 C.3   241  LYS241      0.1093
     93  NZ        -7.4480   14.0570  -15.8950 N.3   241  LYS241     -0.1314
     94  N        -10.4670   19.9390  -22.1790 N.3   243  PHE243     -0.1241
     95  CA        -9.9230   21.1630  -21.5840 C.3   243  PHE243      0.1605
     96  C         -9.8070   22.2830  -22.6200 C.2   243  PHE243      0.2264
     97  O         -9.2170   22.0990  -23.6700 O.2   243  PHE243     -0.2867
     98  CB        -8.4830   20.8930  -21.0690 C.3   243  PHE243      0.0534
     99  CG        -8.3920   19.9930  -19.8580 C.ar  243  PHE243     -0.0203
    100  CD1       -9.4530   19.2360  -19.4220 C.ar  243  PHE243     -0.0042
    101  CD2       -7.1890   19.8900  -19.1720 C.ar  243  PHE243     -0.0042
    102  CE1       -9.3150   18.4120  -18.3100 C.ar  243  PHE243     -0.0003
    103  CE2       -7.0420   19.0350  -18.0820 C.ar  243  PHE243     -0.0003
    104  CZ        -8.1260   18.3150  -17.6370 C.ar  243  PHE243     -0.0000
    105  N         -1.0550   19.7990  -17.4280 N.3   263  GLU263     -0.1245
    106  CA        -1.7650   18.7350  -16.7760 C.3   263  GLU263      0.1567
    107  C         -2.2820   17.7060  -17.7910 C.2   263  GLU263      0.2260
    108  O         -2.0480   16.5250  -17.6050 O.2   263  GLU263     -0.2867
    109  CB        -2.8460   19.2920  -15.8940 C.3   263  GLU263      0.0388
    110  CG        -3.6670   18.2200  -15.1910 C.3   263  GLU263      0.1160
    111  CD        -4.3140   18.7120  -13.9160 C.2   263  GLU263      0.3649
    112  OE1       -4.3940   19.9630  -13.7530 O.co2 263  GLU263     -0.2457
    113  OE2       -4.6870   17.8520  -13.0700 O.co2 263  GLU263     -0.2457
    114  N         -0.7330   13.7700  -18.3270 N.3   267  GLU267     -0.1245
    115  CA        -1.5970   12.6100  -18.1490 C.3   267  GLU267      0.1567
    116  C         -1.5170   11.6680  -19.3090 C.2   267  GLU267      0.2260
    117  O         -1.3360   10.4760  -19.1050 O.2   267  GLU267     -0.2867
    118  CB        -3.0850   12.9890  -17.8960 C.3   267  GLU267      0.0388
    119  CG        -3.9170   11.7600  -17.5030 C.3   267  GLU267      0.1160
    120  CD        -5.2870   12.0710  -16.9230 C.2   267  GLU267      0.3649
    121  OE1       -5.9020   13.0620  -17.4260 O.co2 267  GLU267     -0.2457
    122  OE2       -5.7270   11.3040  -15.9630 O.co2 267  GLU267     -0.2457
    123  N         -5.8570    3.0290  -16.1760 N.3   281  PRO281     -0.2116
    124  CA        -6.9170    2.9970  -17.1880 C.3   281  PRO281      0.1372
    125  C         -6.3610    3.2380  -18.5570 C.2   281  PRO281      0.2244
    126  O         -5.5070    4.1160  -18.6880 O.2   281  PRO281     -0.2868
    127  CB        -7.8020    4.1910  -16.7950 C.3   281  PRO281      0.0268
    128  CG        -6.9160    5.1070  -16.0440 C.3   281  PRO281      0.0207
    129  CD        -6.0000    4.1970  -15.2840 C.3   281  PRO281      0.0892
    130  N        -10.4990    8.0560  -21.8240 N.3   297  MET297     -0.1230
    131  CA        -9.8890    6.8800  -21.1450 C.3   297  MET297      0.1702
    132  C        -10.9590    5.9280  -20.6260 C.2   297  MET297      0.2592
    133  O        -12.1550    6.2800  -20.6210 O.2   297  MET297     -0.2718
    134  CB        -8.9620    7.2940  -19.9950 C.3   297  MET297      0.0401
    135  CG        -9.6830    7.8250  -18.7710 C.3   297  MET297      0.0596
    136  SD        -8.6150    8.6720  -17.5680 S.3   297  MET297     -0.1393
    137  CE        -8.7470   10.3930  -18.0000 C.3   297  MET297      0.0692
    138  N        -10.5300    4.7320  -20.1970 N.am  298  GLU298     -0.1966
    139  CA       -11.4840    3.7260  -19.7200 C.3   298  GLU298      0.1733
    140  C        -12.0580    4.1860  -18.3630 C.2   298  GLU298      0.2616
    141  O        -11.3510    4.7380  -17.5420 O.2   298  GLU298     -0.2715
    142  CB       -10.8620    2.3230  -19.6760 C.3   298  GLU298      0.0429
    143  CG       -10.0870    2.0110  -18.4080 C.3   298  GLU298      0.1163
    144  CD        -9.5780    0.5590  -18.3250 C.2   298  GLU298      0.3649
    145  OE1       -9.0060    0.0510  -19.3430 O.co2 298  GLU298     -0.2457
    146  OE2       -9.7590   -0.0570  -17.2380 O.co2 298  GLU298     -0.2457
    147  N        -13.3480    3.9820  -18.1680 N.am  299  LYS299     -0.1963
    148  CA       -14.0530    4.3810  -16.9590 C.3   299  LYS299      0.1728
    149  C        -13.8600    3.2940  -15.8810 C.2   299  LYS299      0.2616
    150  O        -14.2260    2.1400  -16.0730 O.2   299  LYS299     -0.2715
    151  CB       -15.5470    4.5760  -17.2970 C.3   299  LYS299      0.0311
    152  CG       -16.4960    4.7170  -16.1120 C.3   299  LYS299      0.0038
    153  CD       -17.7920    5.3950  -16.5470 C.3   299  LYS299      0.0206
    154  CE       -19.0330    4.5480  -16.3160 C.3   299  LYS299      0.1093
    155  NZ       -20.2570    5.3060  -16.7340 N.3   299  LYS299     -0.1314
    156  N        -13.2590    3.6760  -14.7610 N.am  300  LEU300     -0.1977
    157  CA       -13.0460    2.7880  -13.6470 C.3   300  LEU300      0.1596
    158  C        -14.3670    2.6870  -12.9070 C.2   300  LEU300      0.2287
    159  O        -15.1650    3.6010  -12.9620 O.2   300  LEU300     -0.2864
    160  CB       -11.9550    3.3210  -12.7410 C.3   300  LEU300      0.0297
    161  CG       -10.5800    3.4570  -13.4040 C.3   300  LEU300      0.0022
    162  CD1       -9.6610    4.1460  -12.4200 C.3   300  LEU300      0.0001
    163  CD2      -10.0120    2.1180  -13.9140 C.3   300  LEU300      0.0001
    164  N        -16.1530    8.0230   -6.1910 N.3   304  LEU304     -0.1245
    165  CA       -15.1380    8.7790   -5.5480 C.3   304  LEU304      0.1561
    166  C        -15.2300    8.6200   -4.0430 C.2   304  LEU304      0.2260
    167  O        -16.3060    8.6970   -3.4330 O.2   304  LEU304     -0.2867
    168  CB       -15.2430   10.2500   -5.8970 C.3   304  LEU304      0.0270
    169  CG       -14.9600   10.6380   -7.3390 C.3   304  LEU304      0.0019
    170  CD1      -14.9960   12.1490   -7.3950 C.3   304  LEU304      0.0001
    171  CD2      -13.6480   10.0720   -7.8570 C.3   304  LEU304      0.0001
    172  N         -1.3790   14.7100   -5.7060 N.3   340  ASP340     -0.1239
    173  CA        -2.6760   15.2010   -5.3460 C.3   340  ASP340      0.1674
    174  C         -3.5500   13.9990   -4.8690 C.2   340  ASP340      0.2266
    175  O         -4.6300   13.7580   -5.3760 O.2   340  ASP340     -0.2867
    176  CB        -3.2380   15.9210   -6.5790 C.3   340  ASP340      0.1410
    177  CG        -4.4370   16.8190   -6.2840 C.2   340  ASP340      0.3668
    178  OD1       -4.6790   17.2690   -5.1330 O.co2 340  ASP340     -0.2456
    179  OD2       -5.1630   17.0530   -7.2680 O.co2 340  ASP340     -0.2456
    180  N        -11.1440   12.9710   -3.4380 N.3   344  TRP344     -0.1227
    181  CA       -11.7800   13.2130   -4.7180 C.3   344  TRP344      0.1737
    182  C        -11.0000   12.7510   -5.9080 C.2   344  TRP344      0.2595
    183  O        -11.5160   12.8730   -7.0240 O.2   344  TRP344     -0.2718
    184  CB       -12.1690   14.6860   -4.8770 C.3   344  TRP344      0.0564
    185  CG       -11.0860   15.6610   -4.5160 C.ar  344  TRP344      0.0003
    186  CD1      -10.0890   16.1580   -5.3390 C.ar  344  TRP344      0.0946
    187  CD2      -10.8270   16.2670   -3.1920 C.ar  344  TRP344      0.0152
    188  NE1       -9.2690   17.0040   -4.6450 N.ar  344  TRP344     -0.2442
    189  CE2       -9.6410   17.1020   -3.3540 C.ar  344  TRP344      0.0810
    190  CE3      -11.4160   16.1700   -1.9310 C.ar  344  TRP344      0.0012
    191  CZ2       -9.1250   17.8500   -2.3140 C.ar  344  TRP344      0.0191
    192  CZ3      -10.8700   16.9070   -0.8760 C.ar  344  TRP344      0.0001
    193  CH2       -9.7530   17.7330   -1.0690 C.ar  344  TRP344      0.0015
    194  N         -9.7810   12.2360   -5.6990 N.am  345  ASN345     -0.1974
    195  CA        -9.0240   11.5420   -6.7430 C.3   345  ASN345      0.1688
    196  C         -8.7950   10.0690   -6.4480 C.2   345  ASN345      0.2292
    197  O         -7.8420    9.4650   -6.9660 O.2   345  ASN345     -0.2864
    198  CB        -7.6340   12.1860   -6.9430 C.3   345  ASN345      0.1181
    199  CG        -7.7270   13.6020   -7.4430 C.2   345  ASN345      0.2629
    200  OD1       -8.6910   13.9330   -8.1450 O.2   345  ASN345     -0.2716
    201  ND2       -6.7720   14.4720   -7.0400 N.am  345  ASN345     -0.0877
    202  N        -10.8490    6.4330   -6.5770 N.3   347  MET347     -0.1245
    203  CA       -12.0430    5.6670   -6.9150 C.3   347  MET347      0.1570
    204  C        -12.0510    4.3490   -6.1630 C.2   347  MET347      0.2261
    205  O        -11.0100    3.6240   -6.1700 O.2   347  MET347     -0.2867
    206  CB       -12.1380    5.3660   -8.3970 C.3   347  MET347      0.0387
    207  CG       -13.5690    5.0520   -8.8260 C.3   347  MET347      0.0595
    208  SD       -14.4220    6.5080   -9.4670 S.3   347  MET347     -0.1393
    209  CE       -12.9320    7.4990   -9.6000 C.3   347  MET347      0.0692
    210  N         -6.9880    8.0650   -9.6630 N.3   357  ILE357     -0.1231
    211  CA        -7.3190    8.6130  -10.9760 C.3   357  ILE357      0.1692
    212  C         -6.5600    9.9510  -11.0170 C.2   357  ILE357      0.2592
    213  O         -5.6470   10.1640  -10.1780 O.2   357  ILE357     -0.2718
    214  CB        -8.8490    8.7310  -11.1750 C.3   357  ILE357      0.0266
    215  CG1       -9.4720    9.7560  -10.2160 C.3   357  ILE357      0.0019
    216  CG2       -9.4940    7.3660  -10.9970 C.3   357  ILE357      0.0020
    217  CD1      -10.9220   10.0480  -10.5170 C.3   357  ILE357      0.0001
    218  N         -6.8800   10.8210  -11.9770 N.am  358  ASP358     -0.1974
    219  CA        -6.2300   12.1510  -12.0810 C.3   358  ASP358      0.1709
    220  C         -4.6760   11.9950  -12.2020 C.2   358  ASP358      0.2293
    221  O         -3.8780   12.5500  -11.4030 O.2   358  ASP358     -0.2864
    222  CB        -6.6670   13.0380  -10.9110 C.3   358  ASP358      0.1436
    223  CG        -6.5140   14.5360  -11.1830 C.2   358  ASP358      0.3671
    224  OD1       -5.5090   14.9350  -11.8480 O.co2 358  ASP358     -0.2456
    225  OD2       -7.3720   15.3550  -10.6720 O.co2 358  ASP358     -0.2456
@<TRIPOS>BOND
     1    97    96    2
     2    96    95    1
     3    88    87    2
     4    94    95    1
     5   130   131    1
     6    95    98    1
     7    87    86    1
     8   131   132    1
     9   131   134    1
    10    98    99    1
    11    85    86    1
    12    81    80    2
    13   132   133    2
    14   132   138   am
    15    80    79    1
    16    86    89    1
    17   138   139    1
    18    70    69    2
    19   134   135    1
    20    78    79    1
    21    69    68    1
    22    99   100   ar
    23    99   101   ar
    24   139   142    1
    25   139   140    1
    26   142   143    1
    27    89    90    1
    28    79    82    1
    29    67    68    1
    30   100   102   ar
    31   145   144   ar
    32   116   117    2
    33   116   115    1
    34   101   103   ar
    35    68    71    1
    36    57    58    2
    37    57    56    1
    38   135   136    1
    39   126   125    2
    40   125   124    1
    41    55    56    1
    42   143   144    1
    43   140   147   am
    44   140   141    2
    45   114   115    1
    46   144   146   ar
    47   102   104   ar
    48    56    59    1
    49    45    46    1
    50    45    44    1
    51    45    48    1
    52    46    47    2
    53   147   148    1
    54    90    91    1
    55   115   118    1
    56    82    83    1
    57    82    84    1
    58   103   104   ar
    59   137   136    1
    60   118   119    1
    61   107   108    2
    62   107   106    1
    63    71    72    1
    64    91    92    1
    65   119   120    1
    66   105   106    1
    67   121   120   ar
    68   151   148    1
    69   151   152    1
    70    48    49    1
    71   124   127    1
    72   124   123    1
    73   148   149    1
    74   120   122   ar
    75     1     2    1
    76    59    60    1
    77     4     3    2
    78   127   128    1
    79   106   109    1
    80   155   154    1
    81    49    50    1
    82    72    73   ar
    83    72    74   ar
    84   153   154    1
    85   153   152    1
    86    73    75   ar
    87    61    60   ar
    88    61    63   ar
    89    92    93    1
    90    60    62   ar
    91   123   129    1
    92    50    51    1
    93     3     2    1
    94   150   149    2
    95   128   129    1
    96    51    52    2
    97   109   110    1
    98    63    65   ar
    99   149   156   am
   100     2     5    1
   101    74    76   ar
   102    75    77   ar
   103    62    64   ar
   104    52    54    1
   105    52    53    1
   106    37    36    2
   107   110   111    1
   108    65    64   ar
   109    65    66    1
   110    76    77   ar
   111   156   157    1
   112     5     6    1
   113     6     7    1
   114    36    35    1
   115   111   112   ar
   116   111   113   ar
   117   163   161    1
   118    38    35    1
   119    38    39    1
   120   157   158    1
   121   157   160    1
   122   161   160    1
   123   161   162    1
   124    35    34    1
   125    39    40   ar
   126    39    41   ar
   127     7     9   am
   128     7     8    2
   129   159   158    2
   130    40    42   ar
   131    41    43   ar
   132   220   219    1
   133   220   221    2
   134   219   218    1
   135   219   222    1
   136    42    43   ar
   137   218   212   am
   138    34    31   am
   139   224   223   ar
   140    10    11    1
   141    10    16    1
   142    11    14    1
   143    11    12    1
   144    16    15    1
   145   223   222    1
   146   223   225   ar
   147   214   216    1
   148   214   211    1
   149   214   215    1
   150    14    15    1
   151    32    31    2
   152   212   211    1
   153   212   213    2
   154   211   210    1
   155    31    30    1
   156    13    12    2
   157   217   215    1
   158    12    17   am
   159   209   208    1
   160    30    29    1
   161    30    33    1
   162   208   207    1
   163    17    18    1
   164   207   206    1
   165   206   203    1
   166    18    19    1
   167    18    21    1
   168   200   199    2
   169   171   169    1
   170    24    26   ar
   171    24    22   ar
   172    19    20    2
   173   199   201   am
   174   199   198    1
   175    21    22    1
   176   170   169    1
   177   169   168    1
   178   179   177   ar
   179    26    27   ar
   180   183   182    2
   181   197   196    2
   182   198   195    1
   183   203   202    1
   184   203   204    1
   185    22    23   ar
   186   195   196    1
   187   195   194    1
   188   176   177    1
   189   176   173    1
   190   177   178   ar
   191   164   165    1
   192   205   204    2
   193    27    28    1
   194    27    25   ar
   195   182   194   am
   196   182   181    1
   197   168   165    1
   198    23    25   ar
   199   172   173    1
   200   165   166    1
   201   175   174    2
   202   173   174    1
   203   186   188   ar
   204   186   185   ar
   205   184   181    1
   206   184   185    1
   207   181   180    1
   208   188   189   ar
   209   185   187   ar
   210   166   167    2
   211   189   187   ar
   212   189   191   ar
   213   187   190   ar
   214   191   193   ar
   215   190   192   ar
   216   193   192   ar
