@<TRIPOS>MOLECULE
tmp/4azyA00.pdb
 217 204 0 0 0
SMALL
GASTEIGER

@<TRIPOS>ATOM
      1  N          2.0760   -8.8790  -14.7730 N.3    15  GLY15      -0.1210
      2  CA         3.2260   -7.9860  -14.8330 C.3    15  GLY15       0.1956
      3  C          3.5620   -7.5000  -16.2260 C.2    15  GLY15       0.2612
      4  O          4.5710   -6.8240  -16.3990 O.2    15  GLY15      -0.2717
      5  N          2.7590   -7.8740  -17.2290 N.am   16  GLN16      -0.1965
      6  CA         3.0510   -7.5390  -18.6190 C.3    16  GLN16       0.1733
      7  C          1.9550   -6.6990  -19.2850 C.2    16  GLN16       0.2616
      8  O          1.9510   -6.5430  -20.4990 O.2    16  GLN16      -0.2715
      9  CB         3.3940   -8.8070  -19.4260 C.3    16  GLN16       0.0408
     10  CG         4.5940   -9.5530  -18.7900 C.3    16  GLN16       0.0908
     11  CD         5.0250  -10.7820  -19.5260 C.2    16  GLN16       0.2608
     12  OE1        4.5680  -11.0580  -20.6240 O.2    16  GLN16      -0.2717
     13  NE2        5.9580  -11.5120  -18.9480 N.am   16  GLN16      -0.0878
     14  N          1.0800   -6.1360  -18.4650 N.am   17  GLY17      -0.1955
     15  CA         0.0130   -5.2510  -18.8980 C.3    17  GLY17       0.1869
     16  C         -1.2300   -5.9290  -19.4270 C.2    17  GLY17       0.2309
     17  O         -1.3350   -7.1640  -19.4740 O.2    17  GLY17      -0.2863
     18  N         -1.4670   -2.9650  -25.9030 N.3    34  LEU34      -0.1245
     19  CA        -1.4630   -2.7030  -24.4610 C.3    34  LEU34       0.1561
     20  C         -2.1800   -1.3720  -24.1860 C.2    34  LEU34       0.2260
     21  O         -1.8880   -0.3690  -24.8310 O.2    34  LEU34      -0.2867
     22  CB        -0.0290   -2.6570  -23.9300 C.3    34  LEU34       0.0270
     23  CG         0.1190   -2.4970  -22.4150 C.3    34  LEU34       0.0019
     24  CD1        1.3650   -3.2090  -21.9130 C.3    34  LEU34       0.0001
     25  CD2        0.2870   -1.0530  -22.0420 C.3    34  LEU34       0.0001
     26  N         -2.6150    1.7530  -22.1460 N.3    36  ASP36      -0.1239
     27  CA        -1.7210    2.5500  -21.3140 C.3    36  ASP36       0.1674
     28  C         -2.1860    3.9660  -20.9830 C.2    36  ASP36       0.2266
     29  O         -2.0220    4.8830  -21.7810 O.2    36  ASP36      -0.2867
     30  CB        -0.3490    2.5420  -22.0230 C.3    36  ASP36       0.1410
     31  CG         0.8090    3.1830  -21.2940 C.2    36  ASP36       0.3668
     32  OD1        0.6450    3.5400  -20.0880 O.co2  36  ASP36      -0.2456
     33  OD2        1.8970    3.3000  -21.9070 O.co2  36  ASP36      -0.2456
     34  N         -0.7430    5.8190  -18.9650 N.3    38  GLY38      -0.1210
     35  CA         0.4980    6.5260  -18.6020 C.3    38  GLY38       0.1956
     36  C          1.2700    7.1260  -19.7610 C.2    38  GLY38       0.2612
     37  O          2.3620    7.6720  -19.5610 O.2    38  GLY38      -0.2717
     38  N          0.7520    6.9830  -20.9800 N.am   39  SER39      -0.1952
     39  CA         1.3710    7.5570  -22.1680 C.3    39  SER39       0.1924
     40  C          0.2890    8.0980  -23.0840 C.2    39  SER39       0.2314
     41  O         -0.8960    7.8390  -22.8560 O.2    39  SER39      -0.2863
     42  CB         2.2610    6.5360  -22.8940 C.3    39  SER39       0.2116
     43  OG         1.5170    5.5180  -23.5270 O.3    39  SER39      -0.2180
     44  N          0.9370    8.2310  -26.7880 N.3    41  ASN41      -0.1240
     45  CA         1.1930    7.8660  -28.1700 C.3    41  ASN41       0.1653
     46  C          0.5180    6.5270  -28.4550 C.2    41  ASN41       0.2266
     47  O          0.5360    5.6370  -27.6000 O.2    41  ASN41      -0.2867
     48  CB         2.6740    7.6910  -28.4280 C.3    41  ASN41       0.1155
     49  CG         3.3830    8.9870  -28.6090 C.2    41  ASN41       0.2627
     50  OD1        3.7730    9.6020  -27.6290 O.2    41  ASN41      -0.2716
     51  ND2        3.5500    9.4380  -29.8740 N.am   41  ASN41      -0.0877
     52  N          1.6490    3.6970  -30.4320 N.3    43  ALA43      -0.1245
     53  CA         2.9220    3.2550  -30.9900 C.3    43  ALA43       0.1562
     54  C          2.8960    1.7530  -31.2170 C.2    43  ALA43       0.2260
     55  O          2.5920    0.9910  -30.3000 O.2    43  ALA43      -0.2867
     56  CB         4.0640    3.6560  -30.0580 C.3    43  ALA43       0.0290
     57  N         12.1140    8.0110  -28.8110 N.3    73  VAL73      -0.1245
     58  CA        11.6310    7.9700  -27.4400 C.3    73  VAL73       0.1561
     59  C         12.5220    7.2150  -26.4380 C.2    73  VAL73       0.2260
     60  O         12.2220    6.0780  -26.0730 O.2    73  VAL73      -0.2867
     61  CB        10.0950    7.6560  -27.3070 C.3    73  VAL73       0.0252
     62  CG1        9.6090    7.8730  -25.8720 C.3    73  VAL73       0.0019
     63  CG2        9.2690    8.5190  -28.2590 C.3    73  VAL73       0.0019
     64  N         13.5720    6.4470  -22.7280 N.3    75  TYR75      -0.1241
     65  CA        12.9520    6.5600  -21.4040 C.3    75  TYR75       0.1605
     66  C         13.8080    5.7880  -20.3940 C.2    75  TYR75       0.2264
     67  O         14.6560    4.9810  -20.7910 O.2    75  TYR75      -0.2867
     68  CB        11.4640    6.1470  -21.4140 C.3    75  TYR75       0.0534
     69  CG        11.2010    4.7230  -21.8540 C.ar   75  TYR75      -0.0201
     70  CD1       11.0700    4.4000  -23.2060 C.ar   75  TYR75      -0.0009
     71  CD2       11.0650    3.6980  -20.9220 C.ar   75  TYR75      -0.0009
     72  CE1       10.8600    3.0900  -23.6170 C.ar   75  TYR75       0.0417
     73  CE2       10.8360    2.3860  -21.3230 C.ar   75  TYR75       0.0417
     74  CZ        10.7340    2.0840  -22.6740 C.ar   75  TYR75       0.1957
     75  OH        10.5260    0.7930  -23.0860 O.3    75  TYR75      -0.2866
     76  N         14.0390    3.1210  -18.5790 N.3    77  GLN77      -0.1245
     77  CA        14.2620    1.6820  -18.7020 C.3    77  GLN77       0.1566
     78  C         14.4580    1.1040  -20.1380 C.2    77  GLN77       0.2260
     79  O         14.6580   -0.1000  -20.3040 O.2    77  GLN77      -0.2867
     80  CB        13.0970    0.9560  -17.9830 C.3    77  GLN77       0.0367
     81  CG        12.7210    1.5000  -16.5740 C.3    77  GLN77       0.0905
     82  CD        11.6570    2.5970  -16.5450 C.2    77  GLN77       0.2608
     83  OE1       11.4820    3.3670  -17.4980 O.2    77  GLN77      -0.2717
     84  NE2       10.9580    2.7360  -15.4150 N.am   77  GLN77      -0.0878
     85  N         12.4120    3.4750  -27.7930 N.3    80  TRP80      -0.1241
     86  CA        11.7540    3.1430  -29.0600 C.3    80  TRP80       0.1605
     87  C         11.9270    4.3050  -30.0210 C.2    80  TRP80       0.2264
     88  O         12.0820    5.4500  -29.6090 O.2    80  TRP80      -0.2867
     89  CB        10.2860    2.6560  -28.8980 C.3    80  TRP80       0.0550
     90  CG         9.2890    3.6900  -28.4330 C.ar   80  TRP80       0.0003
     91  CD1        8.8650    3.9000  -27.1520 C.ar   80  TRP80       0.0946
     92  CD2        8.4920    4.5490  -29.2680 C.ar   80  TRP80       0.0152
     93  NE1        7.9090    4.8920  -27.1260 N.ar   80  TRP80      -0.2442
     94  CE2        7.6460    5.2940  -28.4170 C.ar   80  TRP80       0.0810
     95  CE3        8.4630    4.8160  -30.6540 C.ar   80  TRP80       0.0012
     96  CZ2        6.7790    6.2780  -28.9040 C.ar   80  TRP80       0.0191
     97  CZ3        7.5660    5.7490  -31.1380 C.ar   80  TRP80       0.0001
     98  CH2        6.7450    6.4820  -30.2720 C.ar   80  TRP80       0.0015
     99  N         14.3780   -2.9260  -25.1080 N.3   111  LYS111     -0.1231
    100  CA        13.6790   -3.3710  -23.8880 C.3   111  LYS111      0.1693
    101  C         12.2510   -2.8170  -23.8000 C.2   111  LYS111      0.2592
    102  O         11.7610   -2.5020  -22.7140 O.2   111  LYS111     -0.2718
    103  CB        14.4880   -3.0080  -22.6260 C.3   111  LYS111      0.0285
    104  CG        15.8270   -3.7520  -22.5290 C.3   111  LYS111      0.0035
    105  CD        16.6320   -3.3510  -21.2910 C.3   111  LYS111      0.0206
    106  CE        17.4670   -2.1080  -21.5060 C.3   111  LYS111      0.1093
    107  NZ        18.0490   -1.6080  -20.2300 N.3   111  LYS111     -0.1314
    108  N         11.6040   -2.6780  -24.9520 N.am  112  PHE112     -0.1976
    109  CA        10.2490   -2.1550  -25.0290 C.3   112  PHE112      0.1639
    110  C          9.3120   -3.3480  -25.1550 C.2   112  PHE112      0.2290
    111  O          8.4300   -3.5200  -24.3100 O.2   112  PHE112     -0.2864
    112  CB        10.1540   -1.2120  -26.2330 C.3   112  PHE112      0.0560
    113  CG         8.7960   -0.6220  -26.4610 C.ar  112  PHE112     -0.0200
    114  CD1        8.4200    0.5650  -25.8330 C.ar  112  PHE112     -0.0042
    115  CD2        7.9250   -1.1860  -27.3830 C.ar  112  PHE112     -0.0042
    116  CE1        7.1640    1.1400  -26.0860 C.ar  112  PHE112     -0.0003
    117  CE2        6.6610   -0.6160  -27.6210 C.ar  112  PHE112     -0.0003
    118  CZ         6.2960    0.5380  -26.9710 C.ar  112  PHE112     -0.0000
    119  N          8.1940   -7.2690  -24.8670 N.3   114  ILE114     -0.1245
    120  CA         8.4680   -8.3040  -23.8590 C.3   114  ILE114      0.1561
    121  C          8.2000   -9.6700  -24.5000 C.2   114  ILE114      0.2260
    122  O          7.1740   -9.8500  -25.1510 O.2   114  ILE114     -0.2867
    123  CB         7.6010   -8.1230  -22.5830 C.3   114  ILE114      0.0252
    124  CG1        7.7120   -6.6950  -21.9870 C.3   114  ILE114      0.0019
    125  CG2        7.9230   -9.2200  -21.5210 C.3   114  ILE114      0.0019
    126  CD1        6.5160   -6.3170  -20.9950 C.3   114  ILE114      0.0001
    127  N          1.2900   -8.8510  -26.9970 N.3   119  TRP119     -0.1241
    128  CA         0.9150   -7.5370  -27.5580 C.3   119  TRP119      0.1605
    129  C          2.0120   -7.0060  -28.4750 C.2   119  TRP119      0.2264
    130  O          3.1790   -7.3720  -28.2930 O.2   119  TRP119     -0.2867
    131  CB         0.4520   -6.5010  -26.5130 C.3   119  TRP119      0.0550
    132  CG         1.3990   -6.2410  -25.3790 C.ar  119  TRP119      0.0003
    133  CD1        1.2970   -6.7410  -24.1090 C.ar  119  TRP119      0.0946
    134  CD2        2.5420   -5.3620  -25.3750 C.ar  119  TRP119      0.0152
    135  NE1        2.3130   -6.2500  -23.3240 N.ar  119  TRP119     -0.2442
    136  CE2        3.0940   -5.4030  -24.0730 C.ar  119  TRP119      0.0810
    137  CE3        3.1750   -4.5680  -26.3490 C.ar  119  TRP119      0.0012
    138  CZ2        4.2150   -4.6420  -23.7060 C.ar  119  TRP119      0.0191
    139  CZ3        4.2880   -3.8110  -25.9850 C.ar  119  TRP119      0.0001
    140  CH2        4.8240   -3.8850  -24.6910 C.ar  119  TRP119      0.0015
    141  N          1.2510   -0.2140  -28.2260 N.3   122  ILE122     -0.1245
    142  CA         0.6950    0.4020  -27.0190 C.3   122  ILE122      0.1561
    143  C         -0.2250    1.5540  -27.4180 C.2   122  ILE122      0.2260
    144  O          0.1200    2.3770  -28.2770 O.2   122  ILE122     -0.2867
    145  CB         1.8210    0.9030  -26.0700 C.3   122  ILE122      0.0252
    146  CG1        2.7720   -0.2520  -25.6360 C.3   122  ILE122      0.0019
    147  CG2        1.2260    1.6000  -24.8380 C.3   122  ILE122      0.0019
    148  CD1        3.8260    0.1530  -24.5900 C.3   122  ILE122      0.0001
    149  N          4.7120   12.3630  -27.7730 N.3   132  ARG132     -0.1245
    150  CA         6.0150   12.5130  -28.4160 C.3   132  ARG132      0.1563
    151  C          5.8300   12.5620  -29.9390 C.2   132  ARG132      0.2260
    152  O          5.0050   11.8360  -30.4840 O.2   132  ARG132     -0.2867
    153  CB         6.9840   11.3870  -28.0340 C.3   132  ARG132      0.0307
    154  CG         7.2500   11.2470  -26.5290 C.3   132  ARG132      0.0489
    155  CD         7.8940   12.4750  -25.9130 C.3   132  ARG132      0.2205
    156  NE         8.4050   12.1630  -24.5780 N.pl3 132  ARG132     -0.0865
    157  CZ         9.6400   11.7370  -24.3300 C.cat 132  ARG132      0.5346
    158  NH1       10.5150   11.5910  -25.3250 N.pl3 132  ARG132      0.1354
    159  NH2       10.0170   11.4670  -23.0870 N.pl3 132  ARG132      0.1354
    160  N          0.0320    9.7890  -10.3200 N.3   217  ILE217     -0.1245
    161  CA        -0.7040    9.4720  -11.5380 C.3   217  ILE217      0.1561
    162  C         -1.3940    8.0980  -11.4510 C.2   217  ILE217      0.2260
    163  O         -0.9660    7.2340  -10.6800 O.2   217  ILE217     -0.2867
    164  CB         0.2330    9.5440  -12.7810 C.3   217  ILE217      0.0252
    165  CG1        1.2770    8.3620  -12.8270 C.3   217  ILE217      0.0019
    166  CG2        0.9100   10.9630  -12.9280 C.3   217  ILE217      0.0019
    167  CD1        2.0380    8.2750  -14.1930 C.3   217  ILE217      0.0001
    168  N         -1.8420    4.9160  -13.7000 N.3   219  ASP219     -0.1225
    169  CA        -1.1770    4.3730  -14.8680 C.3   219  ASP219      0.1805
    170  C         -1.3470    2.8800  -15.0590 C.2   219  ASP219      0.2598
    171  O         -0.6360    2.0760  -14.4280 O.2   219  ASP219     -0.2718
    172  CB         0.3250    4.7600  -14.7820 C.3   219  ASP219      0.1424
    173  CG         1.1920    4.3340  -15.9740 C.2   219  ASP219      0.3668
    174  OD1        0.6290    3.8350  -16.9710 O.co2 219  ASP219     -0.2456
    175  OD2        2.4300    4.5520  -15.9180 O.co2 219  ASP219     -0.2456
    176  N         -2.2090    2.4990  -16.0240 N.am  220  SER220     -0.1938
    177  CA        -2.4320    1.0880  -16.3500 C.3   220  SER220      0.2055
    178  C         -1.1710    0.4680  -17.0350 C.2   220  SER220      0.2644
    179  O         -1.0760   -0.7610  -17.1270 O.2   220  SER220     -0.2714
    180  CB        -3.6520    0.9400  -17.2590 C.3   220  SER220      0.2130
    181  OG        -3.4380    1.5960  -18.4970 O.3   220  SER220     -0.2179
    182  N         -0.2490    1.3220  -17.5100 N.am  221  GLY221     -0.1939
    183  CA         1.0210    0.9240  -18.1490 C.3   221  GLY221      0.2014
    184  C          2.1930    0.7150  -17.1880 C.2   221  GLY221      0.2640
    185  O          3.3410    0.4990  -17.6190 O.2   221  GLY221     -0.2714
    186  N          1.9280    0.7880  -15.8610 N.am  222  THR222     -0.1936
    187  CA         2.9170    0.4580  -14.8310 C.3   222  THR222      0.2028
    188  C          2.3370   -0.6870  -13.9960 C.2   222  THR222      0.2642
    189  O          1.1900   -0.5900  -13.5680 O.2   222  THR222     -0.2714
    190  CB         3.2190    1.6650  -13.9230 C.3   222  THR222      0.1808
    191  OG1        3.9550    2.6340  -14.6730 O.3   222  THR222     -0.2208
    192  CG2        4.0420    1.2600  -12.6350 C.3   222  THR222      0.0379
    193  N          3.1100   -1.7770  -13.7570 N.am  223  THR223     -0.1950
    194  CA         2.5870   -2.8690  -12.9330 C.3   223  THR223      0.1897
    195  C          2.3900   -2.4550  -11.4710 C.2   223  THR223      0.2313
    196  O          1.3220   -2.6720  -10.9060 O.2   223  THR223     -0.2863
    197  CB         3.5360   -4.0810  -13.0030 C.3   223  THR223      0.1794
    198  OG1        3.6180   -4.4960  -14.3730 O.3   223  THR223     -0.2208
    199  CG2        3.0710   -5.2440  -12.1010 C.3   223  THR223      0.0378
    200  N          3.9910    2.5510   -7.2240 N.3   226  ARG226     -0.1245
    201  CA         5.3300    3.1440   -7.0470 C.3   226  ARG226      0.1563
    202  C          5.1660    4.3590   -6.1450 C.2   226  ARG226      0.2260
    203  O          4.1980    5.1150   -6.3100 O.2   226  ARG226     -0.2867
    204  CB         5.9700    3.4990   -8.3950 C.3   226  ARG226      0.0307
    205  CG         6.0390    2.2660   -9.3330 C.3   226  ARG226      0.0489
    206  CD         6.7770    2.5360  -10.6220 C.3   226  ARG226      0.2205
    207  NE         8.1920    2.8240  -10.4060 N.pl3 226  ARG226     -0.0865
    208  CZ         8.7800    3.9580  -10.7730 C.cat 226  ARG226      0.5346
    209  NH1        8.0880    4.8980  -11.4040 N.pl3 226  ARG226      0.1354
    210  NH2       10.0630    4.1590  -10.5140 N.pl3 226  ARG226      0.1354
    211  N          2.8900    6.3100   -8.5530 N.3   323  VAL323     -0.1245
    212  CA         2.2920    5.7000   -9.7210 C.3   323  VAL323      0.1561
    213  C          1.3320    4.6570   -9.1940 C.2   323  VAL323      0.2260
    214  O          1.7520    3.6860   -8.5640 O.2   323  VAL323     -0.2867
    215  CB         3.2820    5.1000  -10.7540 C.3   323  VAL323      0.0252
    216  CG1        2.5070    4.6340  -11.9820 C.3   323  VAL323      0.0019
    217  CG2        4.3600    6.1220  -11.1770 C.3   323  VAL323      0.0019
@<TRIPOS>BOND
     1    54    53    1
     2    54    55    2
     3    97    95   ar
     4    97    98   ar
     5    53    52    1
     6    53    56    1
     7    95    92   ar
     8   152   151    2
     9    98    96   ar
    10    87    88    2
    11    87    86    1
    12   151   150    1
    13    51    49   am
    14    92    90   ar
    15    92    94   ar
    16    86    89    1
    17    86    85    1
    18    96    94   ar
    19    89    90    1
    20    57    58    1
    21    49    48    1
    22    49    50    2
    23   129   130    2
    24   129   128    1
    25    46    45    1
    26    46    47    2
    27    90    91   ar
    28    48    45    1
    29    94    93   ar
    30   150   153    1
    31   150   149    1
    32   144   143    2
    33    63    61    1
    34   141   142    1
    35    45    44    1
    36   153   154    1
    37   117   115   ar
    38   117   118   ar
    39   128   127    1
    40   128   131    1
    41    58    61    1
    42    58    59    1
    43   143   142    1
    44   115   113   ar
    45    61    62    1
    46    91    93   ar
    47   142   145    1
    48   118   116   ar
    49   154   155    1
    50   131   132    1
    51   113   112    1
    52   113   114   ar
    53    59    60    2
    54   137   139   ar
    55   137   134   ar
    56   112   109    1
    57   116   114   ar
    58   145   146    1
    59   145   147    1
    60   139   140   ar
    61   155   156    1
    62    18    19    1
    63   146   148    1
    64   132   134   ar
    65   132   133   ar
    66   134   136   ar
    67   158   157    1
    68   110   109    1
    69   110   111    2
    70   122   121    2
    71    99   100    1
    72   109   108    1
    73   108   101   am
    74   119   120    1
    75    21    20    2
    76   140   138   ar
    77   156   157    2
    78   121   120    1
    79    19    20    1
    80    19    22    1
    81   157   159    1
    82   133   135   ar
    83   136   138   ar
    84   136   135   ar
    85    22    23    1
    86   100   101    1
    87   100   103    1
    88   120   123    1
    89   101   102    2
    90    72    70   ar
    91    72    74   ar
    92    43    42    1
    93    70    69   ar
    94    75    74    1
    95    40    41    2
    96    40    39    1
    97    42    39    1
    98    64    65    1
    99    74    73   ar
   100   103   104    1
   101   123   124    1
   102   123   125    1
   103   104   105    1
   104    23    25    1
   105    23    24    1
   106    39    38    1
   107    26    27    1
   108    30    27    1
   109    30    31    1
   110   124   126    1
   111    33    31   ar
   112    69    68    1
   113    69    71   ar
   114    29    28    2
   115   106   105    1
   116   106   107    1
   117    68    65    1
   118    65    66    1
   119    73    71   ar
   120    27    28    1
   121    31    32   ar
   122    38    36   am
   123    67    66    2
   124    12    11    2
   125     8     7    2
   126    79    78    2
   127    78    77    1
   128    36    37    2
   129    36    35    1
   130    11    13   am
   131    11    10    1
   132    17    16    2
   133    16    15    1
   134     9    10    1
   135     9     6    1
   136     7     6    1
   137     7    14   am
   138    34    35    1
   139    15    14    1
   140    77    76    1
   141    77    80    1
   142     6     5    1
   143   181   180    1
   144   183   182    1
   145   183   184    1
   146    80    81    1
   147   185   184    2
   148   182   178   am
   149    83    82    2
   150   180   177    1
   151     5     3   am
   152   184   186   am
   153   179   178    2
   154   178   177    1
   155   174   173   ar
   156    81    82    1
   157    82    84   am
   158     4     3    2
   159   177   176    1
   160     3     2    1
   161   176   170   am
   162   173   175   ar
   163   173   172    1
   164   186   187    1
   165   170   169    1
   166   170   171    2
   167   169   172    1
   168   169   168    1
   169     2     1    1
   170   187   188    1
   171   187   190    1
   172   191   190    1
   173   198   197    1
   174   167   165    1
   175   188   193   am
   176   188   189    2
   177   190   192    1
   178   193   194    1
   179   197   194    1
   180   197   199    1
   181   194   195    1
   182   166   164    1
   183   165   164    1
   184   164   161    1
   185   216   215    1
   186   161   162    1
   187   161   160    1
   188   195   196    2
   189   162   163    2
   190   209   208    1
   191   217   215    1
   192   208   210    1
   193   208   207    2
   194   215   212    1
   195   206   207    1
   196   206   205    1
   197   212   213    1
   198   212   211    1
   199   205   204    1
   200   213   214    2
   201   204   201    1
   202   200   201    1
   203   201   202    1
   204   203   202    2
