@<TRIPOS>MOLECULE
tmp/4b05A00.pdb
 206 194 0 0 0
SMALL
GASTEIGER

@<TRIPOS>ATOM
      1  N          1.8460   -8.8430  -14.6910 N.3    16  GLY16      -0.1210
      2  CA         3.0300   -7.9900  -14.7430 C.3    16  GLY16       0.1956
      3  C          3.4240   -7.5620  -16.1470 C.2    16  GLY16       0.2612
      4  O          4.4040   -6.8330  -16.3210 O.2    16  GLY16      -0.2717
      5  N          2.6730   -8.0050  -17.1630 N.am   17  GLN17      -0.1965
      6  CA         3.0320   -7.6800  -18.5450 C.3    17  GLN17       0.1733
      7  C          2.0410   -6.7870  -19.2760 C.2    17  GLN17       0.2616
      8  O          2.1670   -6.5720  -20.4760 O.2    17  GLN17      -0.2715
      9  CB         3.4060   -8.9390  -19.3400 C.3    17  GLN17       0.0408
     10  CG         4.7180   -9.5610  -18.8040 C.3    17  GLN17       0.0908
     11  CD         5.1390  -10.8390  -19.4830 C.2    17  GLN17       0.2608
     12  OE1        4.6010  -11.2330  -20.5130 O.2    17  GLN17      -0.2717
     13  NE2        6.1530  -11.4890  -18.9390 N.am   17  GLN17      -0.0878
     14  N          1.1130   -6.2360  -18.5240 N.am   18  GLY18      -0.1955
     15  CA         0.1280   -5.3060  -19.0250 C.3    18  GLY18       0.1869
     16  C         -1.1260   -5.9580  -19.5440 C.2    18  GLY18       0.2309
     17  O         -1.1900   -7.1740  -19.7270 O.2    18  GLY18      -0.2863
     18  N         -1.3160   -2.8560  -25.9490 N.3    35  LEU35      -0.1245
     19  CA        -1.2830   -2.5560  -24.5120 C.3    35  LEU35       0.1561
     20  C         -2.0710   -1.2650  -24.2150 C.2    35  LEU35       0.2260
     21  O         -1.8300   -0.2370  -24.8380 O.2    35  LEU35      -0.2867
     22  CB         0.1600   -2.3870  -24.0350 C.3    35  LEU35       0.0270
     23  CG         0.2950   -2.0310  -22.5410 C.3    35  LEU35       0.0019
     24  CD1        0.5970   -3.2350  -21.7550 C.3    35  LEU35       0.0001
     25  CD2        1.4240   -1.0320  -22.3330 C.3    35  LEU35       0.0001
     26  N         -2.6160    1.7790  -22.1240 N.3    37  ASP37      -0.1239
     27  CA        -1.6990    2.5580  -21.3100 C.3    37  ASP37       0.1674
     28  C         -2.1630    3.9630  -20.9710 C.2    37  ASP37       0.2266
     29  O         -2.0420    4.8930  -21.7790 O.2    37  ASP37      -0.2867
     30  CB        -0.2980    2.5390  -21.9760 C.3    37  ASP37       0.1410
     31  CG         0.7930    3.2290  -21.1840 C.2    37  ASP37       0.3668
     32  OD1        0.5980    3.4500  -19.9550 O.co2  37  ASP37      -0.2456
     33  OD2        1.8580    3.5130  -21.7710 O.co2  37  ASP37      -0.2456
     34  N         -0.7060    5.8170  -18.9040 N.3    39  GLY39      -0.1210
     35  CA         0.5290    6.5150  -18.5320 C.3    39  GLY39       0.1956
     36  C          1.3190    7.1270  -19.6770 C.2    39  GLY39       0.2612
     37  O          2.4090    7.6520  -19.4500 O.2    39  GLY39      -0.2717
     38  N          0.7950    7.0800  -20.9060 N.am   40  SER40      -0.1952
     39  CA         1.4680    7.6740  -22.0750 C.3    40  SER40       0.1924
     40  C          0.4040    8.1540  -23.0620 C.2    40  SER40       0.2314
     41  O         -0.7730    7.8840  -22.8490 O.2    40  SER40      -0.2863
     42  CB         2.4340    6.6790  -22.7320 C.3    40  SER40       0.2116
     43  OG         1.7550    5.6100  -23.3730 O.3    40  SER40      -0.2180
     44  N          1.0150    8.2460  -26.8150 N.3    42  ASN42      -0.1240
     45  CA         1.2680    7.8660  -28.2090 C.3    42  ASN42       0.1653
     46  C          0.6330    6.5360  -28.5280 C.2    42  ASN42       0.2266
     47  O          0.6570    5.6180  -27.6970 O.2    42  ASN42      -0.2867
     48  CB         2.7840    7.7480  -28.4960 C.3    42  ASN42       0.1155
     49  CG         3.4320    9.0890  -28.6520 C.2    42  ASN42       0.2627
     50  OD1        3.7430    9.7410  -27.6570 O.2    42  ASN42      -0.2716
     51  ND2        3.5470    9.5780  -29.8950 N.am   42  ASN42      -0.0877
     52  N          1.6410    3.7230  -30.6080 N.3    44  ALA44      -0.1245
     53  CA         2.9110    3.2650  -31.1790 C.3    44  ALA44       0.1562
     54  C          2.8850    1.7660  -31.3640 C.2    44  ALA44       0.2260
     55  O          2.5030    1.0260  -30.4430 O.2    44  ALA44      -0.2867
     56  CB         4.0750    3.6870  -30.2790 C.3    44  ALA44       0.0290
     57  N         11.9840    7.9660  -28.6690 N.3    74  VAL74      -0.1245
     58  CA        11.5070    7.9070  -27.2980 C.3    74  VAL74       0.1561
     59  C         12.3950    7.1340  -26.2950 C.2    74  VAL74       0.2260
     60  O         12.1080    5.9720  -25.9710 O.2    74  VAL74      -0.2867
     61  CB         9.9790    7.6130  -27.1580 C.3    74  VAL74       0.0252
     62  CG1        9.5090    7.8490  -25.7250 C.3    74  VAL74       0.0019
     63  CG2        9.1530    8.4570  -28.1290 C.3    74  VAL74       0.0019
     64  N         13.4470    6.3500  -22.4910 N.3    76  TYR76      -0.1241
     65  CA        12.7980    6.4480  -21.1740 C.3    76  TYR76       0.1605
     66  C         13.5510    5.6560  -20.1100 C.2    76  TYR76       0.2264
     67  O         14.5410    4.9940  -20.4240 O.2    76  TYR76      -0.2867
     68  CB        11.3040    6.0600  -21.2370 C.3    76  TYR76       0.0534
     69  CG        11.0490    4.6580  -21.7430 C.ar   76  TYR76      -0.0201
     70  CD1       10.8690    4.4070  -23.1000 C.ar   76  TYR76      -0.0009
     71  CD2       10.9890    3.5800  -20.8650 C.ar   76  TYR76      -0.0009
     72  CE1       10.6560    3.1160  -23.5740 C.ar   76  TYR76       0.0417
     73  CE2       10.7670    2.2850  -21.3280 C.ar   76  TYR76       0.0417
     74  CZ        10.6120    2.0570  -22.6850 C.ar   76  TYR76       0.1957
     75  OH        10.4040    0.7830  -23.1470 O.3    76  TYR76      -0.2866
     76  N         14.3010    3.0460  -18.5730 N.3    77  GLN77      -0.1245
     77  CA        14.3050    1.5840  -18.6140 C.3    77  GLN77       0.1566
     78  C         14.4590    0.9910  -20.0280 C.2    77  GLN77       0.2260
     79  O         14.6070   -0.2240  -20.1720 O.2    77  GLN77      -0.2867
     80  CB        13.0570    1.0110  -17.9180 C.3    77  GLN77       0.0367
     81  CG        12.8330    1.5490  -16.4990 C.3    77  GLN77       0.0905
     82  CD        11.6660    2.5080  -16.4200 C.2    77  GLN77       0.2608
     83  OE1       11.3190    3.2040  -17.3850 O.2    77  GLN77      -0.2717
     84  NE2       11.0350    2.5710  -15.2520 N.am   77  GLN77      -0.0878
     85  N         12.2440    3.3460  -27.6840 N.3    80  TRP80      -0.1241
     86  CA        11.6060    2.9930  -28.9470 C.3    80  TRP80       0.1605
     87  C         11.7730    4.1790  -29.8760 C.2    80  TRP80       0.2264
     88  O         11.8730    5.3150  -29.4220 O.2    80  TRP80      -0.2867
     89  CB        10.1300    2.5320  -28.7900 C.3    80  TRP80       0.0550
     90  CG         9.1460    3.5950  -28.3680 C.ar   80  TRP80       0.0003
     91  CD1        8.7090    3.8460  -27.0970 C.ar   80  TRP80       0.0946
     92  CD2        8.3960    4.4730  -29.2330 C.ar   80  TRP80       0.0152
     93  NE1        7.7810    4.8730  -27.1060 N.ar   80  TRP80      -0.2442
     94  CE2        7.5390    5.2430  -28.4100 C.ar   80  TRP80       0.0810
     95  CE3        8.4120    4.7300  -30.6180 C.ar   80  TRP80       0.0012
     96  CZ2        6.6820    6.2270  -28.9330 C.ar   80  TRP80       0.0191
     97  CZ3        7.5420    5.6760  -31.1330 C.ar   80  TRP80       0.0001
     98  CH2        6.7120    6.4360  -30.2940 C.ar   80  TRP80       0.0015
     99  N         14.4170   -2.9400  -24.8990 N.3   111  LYS111     -0.1231
    100  CA        13.6880   -3.3920  -23.6980 C.3   111  LYS111      0.1693
    101  C         12.2450   -2.8700  -23.6330 C.2   111  LYS111      0.2592
    102  O         11.7180   -2.5970  -22.5520 O.2   111  LYS111     -0.2718
    103  CB        14.4880   -3.0720  -22.4100 C.3   111  LYS111      0.0285
    104  CG        15.8010   -3.8600  -22.3120 C.3   111  LYS111      0.0035
    105  CD        16.4880   -3.7280  -20.9520 C.3   111  LYS111      0.0206
    106  CE        17.4500   -2.5670  -20.8920 C.3   111  LYS111      0.1093
    107  NZ        17.9890   -2.3770  -19.5200 N.3   111  LYS111     -0.1314
    108  N         11.6180   -2.7080  -24.8080 N.am  112  PHE112     -0.1976
    109  CA        10.2520   -2.1960  -24.8970 C.3   112  PHE112      0.1639
    110  C          9.3100   -3.3900  -25.0190 C.2   112  PHE112      0.2290
    111  O          8.4200   -3.5650  -24.1700 O.2   112  PHE112     -0.2864
    112  CB        10.1290   -1.2440  -26.0950 C.3   112  PHE112      0.0560
    113  CG         8.7520   -0.6820  -26.3350 C.ar  112  PHE112     -0.0200
    114  CD1        8.3210    0.4520  -25.6620 C.ar  112  PHE112     -0.0042
    115  CD2        7.9180   -1.2330  -27.3020 C.ar  112  PHE112     -0.0042
    116  CE1        7.0670    1.0080  -25.9310 C.ar  112  PHE112     -0.0003
    117  CE2        6.6570   -0.6840  -27.5600 C.ar  112  PHE112     -0.0003
    118  CZ         6.2510    0.4420  -26.8920 C.ar  112  PHE112     -0.0000
    119  N          8.2360   -7.2880  -24.7130 N.3   114  ILE114     -0.1245
    120  CA         8.4760   -8.3490  -23.7240 C.3   114  ILE114      0.1561
    121  C          8.1700   -9.7000  -24.3800 C.2   114  ILE114      0.2260
    122  O          7.1230   -9.8540  -25.0120 O.2   114  ILE114     -0.2867
    123  CB         7.5890   -8.1690  -22.4450 C.3   114  ILE114      0.0252
    124  CG1        7.5940   -6.7200  -21.8760 C.3   114  ILE114      0.0019
    125  CG2        7.9420   -9.2130  -21.3570 C.3   114  ILE114      0.0019
    126  CD1        6.3430   -6.3970  -20.9920 C.3   114  ILE114      0.0001
    127  N          1.3840   -8.7700  -26.8780 N.3   119  TRP119     -0.1241
    128  CA         1.0460   -7.4530  -27.4620 C.3   119  TRP119      0.1605
    129  C          2.1300   -6.9400  -28.3940 C.2   119  TRP119      0.2264
    130  O          3.3080   -7.2740  -28.2080 O.2   119  TRP119     -0.2867
    131  CB         0.5650   -6.3960  -26.4450 C.3   119  TRP119      0.0550
    132  CG         1.4860   -6.1380  -25.2940 C.ar  119  TRP119      0.0003
    133  CD1        1.3360   -6.6030  -24.0170 C.ar  119  TRP119      0.0946
    134  CD2        2.6150   -5.2430  -25.2650 C.ar  119  TRP119      0.0152
    135  NE1        2.3500   -6.1320  -23.2190 N.ar  119  TRP119     -0.2442
    136  CE2        3.1420   -5.2800  -23.9490 C.ar  119  TRP119      0.0810
    137  CE3        3.2580   -4.4400  -26.2280 C.ar  119  TRP119      0.0012
    138  CZ2        4.2690   -4.5350  -23.5670 C.ar  119  TRP119      0.0191
    139  CZ3        4.3650   -3.6810  -25.8450 C.ar  119  TRP119      0.0001
    140  CH2        4.8890   -3.7660  -24.5420 C.ar  119  TRP119      0.0015
    141  N          1.3630   -0.1370  -28.2520 N.3   122  ILE122     -0.1245
    142  CA         0.8250    0.5170  -27.0550 C.3   122  ILE122      0.1561
    143  C         -0.1540    1.6100  -27.4470 C.2   122  ILE122      0.2260
    144  O          0.1100    2.4080  -28.3640 O.2   122  ILE122     -0.2867
    145  CB         1.9890    1.0660  -26.1540 C.3   122  ILE122      0.0252
    146  CG1        2.8430   -0.0990  -25.5800 C.3   122  ILE122      0.0019
    147  CG2        1.4780    1.9760  -25.0230 C.3   122  ILE122      0.0019
    148  CD1        3.8870    0.2860  -24.5770 C.3   122  ILE122      0.0001
    149  N          0.0130    9.7840  -10.2870 N.3   216  ILE216     -0.1245
    150  CA        -0.7220    9.4760  -11.5110 C.3   216  ILE216      0.1561
    151  C         -1.4120    8.0980  -11.4410 C.2   216  ILE216      0.2260
    152  O         -1.0170    7.2710  -10.6230 O.2   216  ILE216     -0.2867
    153  CB         0.2410    9.5510  -12.7500 C.3   216  ILE216      0.0252
    154  CG1        1.2750    8.3880  -12.7610 C.3   216  ILE216      0.0019
    155  CG2        0.9410   10.9440  -12.8790 C.3   216  ILE216      0.0019
    156  CD1        2.0460    8.2540  -14.1590 C.3   216  ILE216      0.0001
    157  N         -1.8050    4.8710  -13.6820 N.3   218  ASP218     -0.1225
    158  CA        -1.0910    4.3280  -14.8250 C.3   218  ASP218      0.1805
    159  C         -1.2600    2.8230  -15.0490 C.2   218  ASP218      0.2598
    160  O         -0.5710    2.0140  -14.4120 O.2   218  ASP218     -0.2718
    161  CB         0.4060    4.7370  -14.7210 C.3   218  ASP218      0.1424
    162  CG         1.2980    4.2730  -15.8750 C.2   218  ASP218      0.3668
    163  OD1        0.7490    3.7790  -16.9080 O.co2 218  ASP218     -0.2456
    164  OD2        2.5280    4.4310  -15.7660 O.co2 218  ASP218     -0.2456
    165  N         -2.1340    2.4580  -16.0110 N.am  219  SER219     -0.1938
    166  CA        -2.3760    1.0510  -16.3620 C.3   219  SER219      0.2055
    167  C         -1.1520    0.4100  -17.0350 C.2   219  SER219      0.2644
    168  O         -1.0770   -0.8180  -17.1140 O.2   219  SER219     -0.2714
    169  CB        -3.6100    0.9230  -17.2560 C.3   219  SER219      0.2130
    170  OG        -3.4320    1.6230  -18.4780 O.3   219  SER219     -0.2179
    171  N         -0.2000    1.2410  -17.4810 N.am  220  GLY220     -0.1939
    172  CA         1.0340    0.7960  -18.1300 C.3   220  GLY220      0.2014
    173  C          2.2000    0.5930  -17.1750 C.2   220  GLY220      0.2640
    174  O          3.3270    0.3470  -17.6200 O.2   220  GLY220     -0.2714
    175  N          1.9490    0.7030  -15.8530 N.am  221  THR221     -0.1936
    176  CA         2.9560    0.4210  -14.8140 C.3   221  THR221      0.2028
    177  C          2.3820   -0.7270  -13.9720 C.2   221  THR221      0.2642
    178  O          1.2090   -0.6740  -13.6170 O.2   221  THR221     -0.2714
    179  CB         3.2160    1.6580  -13.9170 C.3   221  THR221      0.1808
    180  OG1        3.9930    2.5940  -14.6540 O.3   221  THR221     -0.2208
    181  CG2        3.9610    1.2970  -12.5870 C.3   221  THR221      0.0379
    182  N          3.1880   -1.7580  -13.6550 N.am  222  THR222     -0.1950
    183  CA         2.6740   -2.8690  -12.8240 C.3   222  THR222      0.1897
    184  C          2.4130   -2.4580  -11.3490 C.2   222  THR222      0.2313
    185  O          1.3260   -2.6810  -10.8050 O.2   222  THR222     -0.2863
    186  CB         3.6520   -4.0560  -12.8790 C.3   222  THR222      0.1794
    187  OG1        3.7390   -4.5120  -14.2260 O.3   222  THR222     -0.2208
    188  CG2        3.2140   -5.2190  -11.9830 C.3   222  THR222      0.0378
    189  N          3.9380    2.6040   -7.1610 N.3   225  ARG225     -0.1245
    190  CA         5.2630    3.2180   -6.9610 C.3   225  ARG225      0.1563
    191  C          5.1100    4.4120   -6.0330 C.2   225  ARG225      0.2260
    192  O          4.1350    5.1510   -6.1550 O.2   225  ARG225     -0.2867
    193  CB         5.9410    3.5760   -8.3030 C.3   225  ARG225      0.0307
    194  CG         6.0200    2.3600   -9.2240 C.3   225  ARG225      0.0489
    195  CD         6.7080    2.6440  -10.5440 C.3   225  ARG225      0.2205
    196  NE         8.1450    2.8000  -10.3540 N.pl3 225  ARG225     -0.0865
    197  CZ         8.8230    3.9020  -10.6500 C.cat 225  ARG225      0.5346
    198  NH1        8.2130    4.9310  -11.2290 N.pl3 225  ARG225      0.1354
    199  NH2       10.1230    3.9720  -10.4050 N.pl3 225  ARG225      0.1354
    200  N          2.8960    6.2910   -8.4180 N.3   322  VAL322     -0.1245
    201  CA         2.2880    5.7010   -9.6070 C.3   322  VAL322      0.1561
    202  C          1.3260    4.6520   -9.1060 C.2   322  VAL322      0.2260
    203  O          1.7460    3.6900   -8.4620 O.2   322  VAL322     -0.2867
    204  CB         3.2790    5.1220  -10.6500 C.3   322  VAL322      0.0252
    205  CG1        2.5200    4.7010  -11.9110 C.3   322  VAL322      0.0019
    206  CG2        4.3660    6.1360  -11.0150 C.3   322  VAL322      0.0019
@<TRIPOS>BOND
     1    54    53    1
     2    54    55    2
     3    53    52    1
     4    53    56    1
     5    97    95   ar
     6    97    98   ar
     7    95    92   ar
     8    98    96   ar
     9    51    49   am
    10    87    88    2
    11    87    86    1
    12    92    94   ar
    13    92    90   ar
    14    86    89    1
    15    86    85    1
    16    96    94   ar
    17    89    90    1
    18    57    58    1
    19    49    48    1
    20    49    50    2
    21    46    45    1
    22    46    47    2
    23    48    45    1
    24    94    93   ar
    25   129   130    2
    26   129   128    1
    27    90    91   ar
    28   144   143    2
    29   141   142    1
    30    45    44    1
    31    63    61    1
    32   117   115   ar
    33   117   118   ar
    34   128   127    1
    35   128   131    1
    36   143   142    1
    37   115   113   ar
    38    58    61    1
    39    58    59    1
    40    61    62    1
    41    93    91   ar
    42   142   145    1
    43   118   116   ar
    44   131   132    1
    45   113   112    1
    46   113   114   ar
    47    59    60    2
    48   137   139   ar
    49   137   134   ar
    50   145   146    1
    51   145   147    1
    52   112   109    1
    53    18    19    1
    54   116   114   ar
    55   139   140   ar
    56   146   148    1
    57   132   134   ar
    58   132   133   ar
    59   134   136   ar
    60   110   109    1
    61   110   111    2
    62   122   121    2
    63    99   100    1
    64   109   108    1
    65    21    20    2
    66   108   101   am
    67   119   120    1
    68   140   138   ar
    69    19    20    1
    70    19    22    1
    71   121   120    1
    72    22    23    1
    73   133   135   ar
    74   136   138   ar
    75   136   135   ar
    76   120   123    1
    77   100   101    1
    78   100   103    1
    79   101   102    2
    80    72    70   ar
    81    72    74   ar
    82    43    42    1
    83    75    74    1
    84    70    69   ar
    85    40    41    2
    86    40    39    1
    87    42    39    1
    88    74    73   ar
    89    23    25    1
    90    23    24    1
    91    64    65    1
    92   123   124    1
    93   123   125    1
    94   103   104    1
    95   104   105    1
    96    26    27    1
    97    39    38    1
    98    30    27    1
    99    30    31    1
   100   124   126    1
   101    29    28    2
   102    33    31   ar
   103    69    68    1
   104    69    71   ar
   105    73    71   ar
   106    27    28    1
   107    68    65    1
   108    31    32   ar
   109    65    66    1
   110   105   106    1
   111    38    36   am
   112   106   107    1
   113    12    11    2
   114     8     7    2
   115    67    66    2
   116    79    78    2
   117    78    77    1
   118    17    16    2
   119    36    37    2
   120    36    35    1
   121    16    15    1
   122    11    13   am
   123    11    10    1
   124     9    10    1
   125     9     6    1
   126     7     6    1
   127     7    14   am
   128    15    14    1
   129    34    35    1
   130    77    76    1
   131    77    80    1
   132     6     5    1
   133   170   169    1
   134   172   171    1
   135   172   173    1
   136    80    81    1
   137   174   173    2
   138   171   167   am
   139    83    82    2
   140   169   166    1
   141   173   175   am
   142     5     3   am
   143   168   167    2
   144   167   166    1
   145   163   162   ar
   146    81    82    1
   147    82    84   am
   148   166   165    1
   149     4     3    2
   150     3     2    1
   151   165   159   am
   152   162   164   ar
   153   162   161    1
   154   175   176    1
   155   159   158    1
   156   159   160    2
   157   158   161    1
   158   158   157    1
   159   176   177    1
   160   176   179    1
   161     2     1    1
   162   180   179    1
   163   187   186    1
   164   156   154    1
   165   177   182   am
   166   177   178    2
   167   179   181    1
   168   182   183    1
   169   186   183    1
   170   186   188    1
   171   155   153    1
   172   183   184    1
   173   154   153    1
   174   153   150    1
   175   205   204    1
   176   150   151    1
   177   150   149    1
   178   151   152    2
   179   184   185    2
   180   198   197    1
   181   206   204    1
   182   204   201    1
   183   197   199    1
   184   197   196    2
   185   195   196    1
   186   195   194    1
   187   201   202    1
   188   201   200    1
   189   194   193    1
   190   202   203    2
   191   193   190    1
   192   189   190    1
   193   190   191    1
   194   192   191    2
