@<TRIPOS>MOLECULE
tmp/4b0bA00.pdb
 82 78 0 0 0
SMALL
GASTEIGER

@<TRIPOS>ATOM
      1  N         29.1300   13.1000    6.5850 N.3    26  GLN26      -0.1245
      2  CA        28.4000   11.9050    6.2110 C.3    26  GLN26       0.1566
      3  C         26.9440   12.2570    6.0350 C.2    26  GLN26       0.2260
      4  O         26.4110   13.1070    6.7660 O.2    26  GLN26      -0.2867
      5  CB        28.5100   10.8440    7.2980 C.3    26  GLN26       0.0367
      6  CG        29.8720   10.2340    7.4810 C.3    26  GLN26       0.0905
      7  CD        29.9570    9.3890    8.7640 C.2    26  GLN26       0.2608
      8  OE1       30.4230    9.8660    9.7920 O.2    26  GLN26      -0.2717
      9  NE2       29.4190    8.1720    8.7200 N.am   26  GLN26      -0.0878
     10  N         14.7870   17.5440    7.6210 N.3    83  ASP83      -0.1239
     11  CA        16.1340   17.0010    7.8530 C.3    83  ASP83       0.1674
     12  C         16.9090   16.7850    6.5760 C.2    83  ASP83       0.2266
     13  O         18.1190   17.0500    6.5240 O.2    83  ASP83      -0.2867
     14  CB        16.1140   15.6650    8.6090 C.3    83  ASP83       0.1410
     15  CG        17.4260   15.3860    9.2960 C.2    83  ASP83       0.3668
     16  OD1       17.8520   16.2690   10.0640 O.co2  83  ASP83      -0.2456
     17  OD2       18.1330   14.4250    8.9030 O.co2  83  ASP83      -0.2456
     18  N         18.7140   19.9250    5.7720 N.3    86  TRP86      -0.1227
     19  CA        19.9330   20.0430    6.5650 C.3    86  TRP86       0.1737
     20  C         21.0190   19.0770    6.0550 C.2    86  TRP86       0.2595
     21  O         22.2070   19.4590    5.9590 O.2    86  TRP86      -0.2718
     22  CB        19.6530   19.7860    8.0520 C.3    86  TRP86       0.0564
     23  CG        19.0340   20.9460    8.7800 C.ar   86  TRP86       0.0003
     24  CD1       19.3590   22.2580    8.6410 C.ar   86  TRP86       0.0946
     25  CD2       17.9260   20.9110    9.6940 C.ar   86  TRP86       0.0152
     26  NE1       18.5950   23.0280    9.4670 N.ar   86  TRP86      -0.2442
     27  CE2       17.7250   22.2290   10.1490 C.ar   86  TRP86       0.0810
     28  CE3       17.1650   19.8800   10.2650 C.ar   86  TRP86       0.0012
     29  CZ2       16.7310   22.5660   11.0680 C.ar   86  TRP86       0.0191
     30  CZ3       16.2150   20.2130   11.2180 C.ar   86  TRP86       0.0001
     31  CH2       15.9860   21.5510   11.5850 C.ar   86  TRP86       0.0015
     32  N         20.6710   17.8460    5.7380 N.am   87  GLN87      -0.1979
     33  CA        21.7070   16.9110    5.3850 C.3    87  GLN87       0.1601
     34  C         22.3000   17.2650    4.0260 C.2    87  GLN87       0.2287
     35  O         23.5020   17.1200    3.8150 O.2    87  GLN87      -0.2864
     36  CB        21.1910   15.4770    5.4310 C.3    87  GLN87       0.0394
     37  CG        20.5810   15.1110    6.7660 C.3    87  GLN87       0.0908
     38  CD        21.6000   14.7400    7.8410 C.2    87  GLN87       0.2608
     39  OE1       22.8070   14.7810    7.6170 O.2    87  GLN87      -0.2717
     40  NE2       21.1050   14.3870    9.0200 N.am   87  GLN87      -0.0878
     41  N         24.8280   19.9300    4.6870 N.3    90  GLY90      -0.1225
     42  CA        26.0130   19.2490    5.1560 C.3    90  GLY90       0.1811
     43  C         26.8410   18.6640    4.0370 C.2    90  GLY90       0.2280
     44  O         28.0730   18.7470    4.0630 O.2    90  GLY90      -0.2866
     45  N         29.2700   16.9200   10.2160 N.3   102  GLY102     -0.1210
     46  CA        28.1590   17.8660   10.2160 C.3   102  GLY102      0.1956
     47  C         27.3090   17.8170   11.4790 C.2   102  GLY102      0.2612
     48  O         27.0340   16.7430   12.0040 O.2   102  GLY102     -0.2717
     49  N         26.9110   18.9990   11.9560 N.am  103  ARG103     -0.1965
     50  CA        25.7780   19.1700   12.8490 C.3   103  ARG103      0.1729
     51  C         24.8970   20.3170   12.3340 C.2   103  ARG103      0.2616
     52  O         25.3970   21.4120   12.0140 O.2   103  ARG103     -0.2715
     53  CB        26.2530   19.4760   14.2690 C.3   103  ARG103      0.0348
     54  CG        27.0500   18.3460   14.9080 C.3   103  ARG103      0.0492
     55  CD        26.1490   17.1810   15.3130 C.3   103  ARG103      0.2205
     56  NE        26.8340   16.2350   16.1870 N.pl3 103  ARG103     -0.0865
     57  CZ        27.5860   15.2220   15.7450 C.cat 103  ARG103      0.5346
     58  NH1       27.8460   15.1120   14.4600 N.pl3 103  ARG103      0.1354
     59  NH2       28.0920   14.3320   16.5850 N.pl3 103  ARG103      0.1354
     60  N         23.6020   20.0540   12.1670 N.am  104  ALA104     -0.1977
     61  CA        22.6650   21.1510   11.8850 C.3   104  ALA104      0.1597
     62  C         22.7180   22.1180   13.0500 C.2   104  ALA104      0.2287
     63  O         23.0380   21.7240   14.1840 O.2   104  ALA104     -0.2864
     64  CB        21.2140   20.6280   11.6480 C.3   104  ALA104      0.0319
     65  N         24.0070   24.7610    8.8050 N.3   161  VAL161     -0.1245
     66  CA        24.7430   23.5600    9.1740 C.3   161  VAL161      0.1561
     67  C         26.2260   23.8730    9.3150 C.2   161  VAL161      0.2260
     68  O         26.8200   24.5850    8.5010 O.2   161  VAL161     -0.2867
     69  CB        24.5230   22.4040    8.1580 C.3   161  VAL161      0.0252
     70  CG1       25.3250   21.1750    8.5590 C.3   161  VAL161      0.0019
     71  CG2       23.0300   22.0290    8.0860 C.3   161  VAL161      0.0019
     72  N         30.4520   19.6740   21.5650 N.3   170  PHE170     -0.1241
     73  CA        29.2310   20.2270   20.9970 C.3   170  PHE170      0.1605
     74  C         28.0300   20.0640   21.9470 C.2   170  PHE170      0.2264
     75  O         27.2490   20.9970   22.1120 O.2   170  PHE170     -0.2867
     76  CB        28.9560   19.6440   19.6060 C.3   170  PHE170      0.0534
     77  CG        27.7830   20.2820   18.9050 C.ar  170  PHE170     -0.0203
     78  CD1       27.8110   21.6120   18.5640 C.ar  170  PHE170     -0.0042
     79  CD2       26.6190   19.5750   18.6930 C.ar  170  PHE170     -0.0042
     80  CE1       26.7260   22.2040   17.9870 C.ar  170  PHE170     -0.0003
     81  CE2       25.5480   20.1700   18.1110 C.ar  170  PHE170     -0.0003
     82  CZ        25.5960   21.4970   17.7940 C.ar  170  PHE170     -0.0000
@<TRIPOS>BOND
     1    35    34    2
     2    34    33    1
     3    43    44    2
     4    43    42    1
     5    41    42    1
     6    33    36    1
     7    33    32    1
     8    36    37    1
     9    32    20   am
    10    18    19    1
    11    21    20    2
    12     3     2    1
    13     3     4    2
    14    20    19    1
    15     2     1    1
    16     2     5    1
    17    13    12    2
    18    19    22    1
    19    12    11    1
    20    37    38    1
    21     5     6    1
    22     6     7    1
    23    39    38    2
    24    10    11    1
    25    38    40   am
    26    11    14    1
    27    22    23    1
    28    71    69    1
    29    69    70    1
    30    69    66    1
    31    68    67    2
    32    14    15    1
    33    24    23   ar
    34    24    26   ar
    35     9     7   am
    36     7     8    2
    37    23    25   ar
    38    65    66    1
    39    17    15   ar
    40    66    67    1
    41    15    16   ar
    42    26    27   ar
    43    25    27   ar
    44    25    28   ar
    45    27    29   ar
    46    45    46    1
    47    46    47    1
    48    28    30   ar
    49    29    31   ar
    50    30    31   ar
    51    47    49   am
    52    47    48    2
    53    64    61    1
    54    61    60    1
    55    61    62    1
    56    49    50    1
    57    52    51    2
    58    60    51   am
    59    51    50    1
    60    50    53    1
    61    62    63    2
    62    53    54    1
    63    58    57    1
    64    54    55    1
    65    55    56    1
    66    57    56    2
    67    57    59    1
    68    82    80   ar
    69    82    81   ar
    70    80    78   ar
    71    81    79   ar
    72    78    77   ar
    73    79    77   ar
    74    77    76    1
    75    76    73    1
    76    73    72    1
    77    73    74    1
    78    74    75    2
