@<TRIPOS>MOLECULE
tmp/4b0bA01.pdb
 89 89 0 0 0
SMALL
GASTEIGER

@<TRIPOS>ATOM
      1  N          3.0420    6.8100   11.3430 N.3    69  HIS69      -0.1226
      2  CA         2.8400    8.2660   11.3730 C.3    69  HIS69       0.1752
      3  C          1.8310    8.6820   10.2830 C.2    69  HIS69       0.2596
      4  O          2.2240    8.9690    9.1610 O.2    69  HIS69      -0.2718
      5  CB         4.1970    8.9340   11.1780 C.3    69  HIS69       0.0759
      6  CG         4.1720   10.4260   11.2900 C.ar   69  HIS69       0.0818
      7  ND1        3.6580   11.2380   10.3000 N.ar   69  HIS69      -0.2268
      8  CD2        4.6890   11.2570   12.2280 C.ar   69  HIS69       0.1154
      9  CE1        3.7430   12.4990   10.6910 C.ar   69  HIS69       0.1986
     10  NE2        4.4650   12.5420   11.7990 N.ar   69  HIS69      -0.2212
     11  N          0.5240    8.6400   10.5610 N.am   70  PHE70      -0.1976
     12  CA        -0.0410    8.0680   11.7670 C.3    70  PHE70       0.1639
     13  C         -0.8810    6.8540   11.3970 C.2    70  PHE70       0.2290
     14  O         -1.3800    6.7310   10.2590 O.2    70  PHE70      -0.2864
     15  CB        -0.9230    9.1050   12.4660 C.3    70  PHE70       0.0560
     16  CG        -0.2490   10.4050   12.6940 C.ar   70  PHE70      -0.0200
     17  CD1       -0.2010   11.3650   11.6840 C.ar   70  PHE70      -0.0042
     18  CD2        0.4390   10.6390   13.8880 C.ar   70  PHE70      -0.0042
     19  CE1        0.4760   12.5700   11.8790 C.ar   70  PHE70      -0.0003
     20  CE2        1.1160   11.8220   14.0840 C.ar   70  PHE70      -0.0003
     21  CZ         1.1520   12.7900   13.0750 C.ar   70  PHE70      -0.0000
     22  N          1.1660    9.8450    6.5140 N.3    75  VAL75      -0.1231
     23  CA         1.7070   11.1130    5.9970 C.3    75  VAL75       0.1692
     24  C          3.1750   11.2340    6.3870 C.2    75  VAL75       0.2592
     25  O          3.5700   10.8590    7.4880 O.2    75  VAL75      -0.2718
     26  CB         0.9380   12.3310    6.5000 C.3    75  VAL75       0.0266
     27  CG1        0.9960   12.4130    8.0370 C.3    75  VAL75       0.0020
     28  CG2        1.5070   13.6080    5.9060 C.3    75  VAL75       0.0020
     29  N          4.0160   11.5100    5.4090 N.am   76  MET76      -0.1966
     30  CA         5.4480   11.6360    5.6760 C.3    76  MET76       0.1721
     31  C          5.7450   12.7130    6.7250 C.2    76  MET76       0.2458
     32  O          5.2730   13.8470    6.6280 O.2    76  MET76      -0.2730
     33  CB         6.2290   11.9380    4.3930 C.3    76  MET76       0.0427
     34  CG         7.7570   12.0050    4.6380 C.3    76  MET76       0.0599
     35  SD         8.6700   12.4330    3.1850 S.3    76  MET76      -0.1393
     36  CE        10.4040   12.2400    3.6720 C.3    76  MET76       0.0692
     37  N          6.4910   12.3480    7.7720 N.am   77  PRO77      -0.2716
     38  CA         6.7760   13.3370    8.8100 C.3    77  PRO77       0.1536
     39  C          7.4630   14.5480    8.2050 C.2    77  PRO77       0.2599
     40  O          8.3830   14.3860    7.3900 O.2    77  PRO77      -0.2715
     41  CB         7.7430   12.5820    9.7330 C.3    77  PRO77       0.0310
     42  CG         7.3650   11.1710    9.5960 C.3    77  PRO77       0.0237
     43  CD         7.0140   11.0190    8.1280 C.3    77  PRO77       0.0939
     44  N          6.9460   15.7370    8.4760 N.am   78  GLY78      -0.1941
     45  CA         7.5620   16.9610    7.9790 C.3    78  GLY78       0.2014
     46  C          9.0020   17.1210    8.4360 C.2    78  GLY78       0.2639
     47  O          9.8600   17.6560    7.7110 O.2    78  GLY78      -0.2714
     48  N          9.2800   16.6340    9.6370 N.am   79  CYS79      -0.1967
     49  CA        10.5840   16.7810   10.2330 C.3    79  CYS79       0.1712
     50  C         11.6310   16.0500    9.3970 C.2    79  CYS79       0.2296
     51  O         12.7920   16.4190    9.4410 O.2    79  CYS79      -0.2864
     52  CB        10.5820   16.3050   11.6840 C.3    79  CYS79       0.0983
     53  SG        10.4840   14.4880   11.9330 S.3    79  CYS79      -0.0798
     54  N          5.3080   24.4490    6.7610 N.3   112  PHE112     -0.1241
     55  CA         4.7120   23.2990    6.1360 C.3   112  PHE112      0.1605
     56  C          3.3390   23.7600    5.6440 C.2   112  PHE112      0.2264
     57  O          2.4830   24.1480    6.4280 O.2   112  PHE112     -0.2867
     58  CB         4.5630   22.1250    7.1180 C.3   112  PHE112      0.0534
     59  CG         5.8520   21.6670    7.7630 C.ar  112  PHE112     -0.0203
     60  CD1        6.9670   21.3980    7.0180 C.ar  112  PHE112     -0.0042
     61  CD2        5.9360   21.5260    9.1480 C.ar  112  PHE112     -0.0042
     62  CE1        8.1660   20.9680    7.6330 C.ar  112  PHE112     -0.0003
     63  CE2        7.1090   21.1070    9.7660 C.ar  112  PHE112     -0.0003
     64  CZ         8.2110   20.7830    9.0140 C.ar  112  PHE112     -0.0000
     65  N          1.7950   21.7250    3.0220 N.3   114  GLY114     -0.1210
     66  CA         1.1970   20.5890    2.3380 C.3   114  GLY114      0.1956
     67  C          1.8460   19.3330    2.8650 C.2   114  GLY114      0.2611
     68  O          2.5870   19.3920    3.8530 O.2   114  GLY114     -0.2717
     69  N          1.6610   18.2230    2.1520 N.am  115  GLN115     -0.1979
     70  CA         1.9920   16.9060    2.6960 C.3   115  GLN115      0.1601
     71  C          2.3950   15.9090    1.6050 C.2   115  GLN115      0.2287
     72  O          2.0860   16.0900    0.4250 O.2   115  GLN115     -0.2864
     73  CB         0.8320   16.3590    3.5500 C.3   115  GLN115      0.0394
     74  CG        -0.4370   16.0690    2.7840 C.3   115  GLN115      0.0908
     75  CD        -1.5500   15.5290    3.6700 C.2   115  GLN115      0.2608
     76  OE1       -1.3220   15.1930    4.8310 O.2   115  GLN115     -0.2717
     77  NE2       -2.7610   15.4320    3.1150 N.am  115  GLN115     -0.0878
     78  N          6.8410   22.5700    1.4750 N.3   154  TYR154     -0.1241
     79  CA         7.5860   23.1440    2.6330 C.3   154  TYR154      0.1605
     80  C          8.6070   24.1610    2.1670 C.2   154  TYR154      0.2264
     81  O          9.1350   24.0660    1.0590 O.2   154  TYR154     -0.2867
     82  CB         8.3850   22.1100    3.4430 C.3   154  TYR154      0.0534
     83  CG         7.8200   20.7410    3.6850 C.ar  154  TYR154     -0.0201
     84  CD1        6.4620   20.4770    3.6850 C.ar  154  TYR154     -0.0009
     85  CD2        8.6920   19.6850    3.9690 C.ar  154  TYR154     -0.0009
     86  CE1        5.9940   19.1950    4.0110 C.ar  154  TYR154      0.0417
     87  CE2        8.2360   18.4390    4.3050 C.ar  154  TYR154      0.0417
     88  CZ         6.9040   18.1760    4.2920 C.ar  154  TYR154      0.1957
     89  OH         6.5100   16.8700    4.5640 O.3   154  TYR154     -0.2866
@<TRIPOS>BOND
     1    72    71    2
     2    81    80    2
     3    78    79    1
     4    71    70    1
     5    69    70    1
     6    69    67   am
     7    80    79    1
     8    66    67    1
     9    66    65    1
    10    79    82    1
    11    70    73    1
    12    74    73    1
    13    74    75    1
    14    67    68    2
    15    77    75   am
    16    35    36    1
    17    35    34    1
    18    82    83    1
    19    75    76    2
    20    83    84   ar
    21    83    85   ar
    22    84    86   ar
    23    85    87   ar
    24    86    88   ar
    25    88    87   ar
    26    88    89    1
    27    33    34    1
    28    33    30    1
    29    29    30    1
    30    29    24   am
    31    56    55    1
    32    56    57    2
    33    30    31    1
    34    28    26    1
    35    23    24    1
    36    23    26    1
    37    23    22    1
    38    55    54    1
    39    55    58    1
    40    24    25    2
    41    26    27    1
    42    32    31    2
    43    31    37   am
    44    60    62   ar
    45    60    59   ar
    46    58    59    1
    47    40    39    2
    48    62    64   ar
    49    47    46    2
    50    59    61   ar
    51    37    43    1
    52    37    38    1
    53    45    46    1
    54    45    44    1
    55    43    42    1
    56    39    44   am
    57    39    38    1
    58    46    48   am
    59    38    41    1
    60    64    63   ar
    61    61    63   ar
    62     4     3    2
    63    50    51    2
    64    50    49    1
    65    42    41    1
    66    48    49    1
    67    49    52    1
    68    14    13    2
    69     3    11   am
    70     3     2    1
    71     7     9   ar
    72     7     6   ar
    73    11    12    1
    74     9    10   ar
    75     5     6    1
    76     5     2    1
    77     6     8   ar
    78     1     2    1
    79    13    12    1
    80    17    19   ar
    81    17    16   ar
    82    52    53    1
    83    12    15    1
    84    10     8   ar
    85    19    21   ar
    86    15    16    1
    87    16    18   ar
    88    21    20   ar
    89    18    20   ar
