@<TRIPOS>MOLECULE
tmp/4b0cA01.pdb
 102 99 0 0 0
SMALL
GASTEIGER

@<TRIPOS>ATOM
      1  N         37.1910  -14.4180    2.7930 N.3    25  ALA25      -0.1231
      2  CA        36.4430  -14.9020    3.9520 C.3    25  ALA25       0.1694
      3  C         37.2380  -15.8890    4.8060 C.2    25  ALA25       0.2592
      4  O         37.9010  -16.7540    4.2680 O.2    25  ALA25      -0.2718
      5  CB        35.1490  -15.5520    3.4990 C.3    25  ALA25       0.0304
      6  N         37.1690  -15.7480    6.1280 N.am   26  GLN26      -0.1966
      7  CA        37.6960  -16.7570    7.0460 C.3    26  GLN26       0.1733
      8  C         36.6370  -17.0990    8.0670 C.2    26  GLN26       0.2616
      9  O         35.9710  -16.2120    8.5940 O.2    26  GLN26      -0.2715
     10  CB        38.8960  -16.2710    7.8590 C.3    26  GLN26       0.0408
     11  CG        39.8790  -15.3270    7.1940 C.3    26  GLN26       0.0908
     12  CD        41.0080  -14.9280    8.1390 C.2    26  GLN26       0.2608
     13  OE1       41.2840  -15.6170    9.1420 O.2    26  GLN26      -0.2717
     14  NE2       41.6530  -13.8010    7.8380 N.am   26  GLN26      -0.0878
     15  N         36.4960  -18.3820    8.3790 N.am   27  LEU27      -0.1964
     16  CA        35.8210  -18.7990    9.6080 C.3    27  LEU27       0.1713
     17  C         36.7140  -18.4460   10.7860 C.2    27  LEU27       0.2458
     18  O         37.9400  -18.3690   10.6240 O.2    27  LEU27      -0.2730
     19  CB        35.5700  -20.3130    9.5960 C.3    27  LEU27       0.0310
     20  CG        34.4890  -20.7390    8.5810 C.3    27  LEU27       0.0022
     21  CD1       34.4660  -22.2310    8.2520 C.3    27  LEU27       0.0001
     22  CD2       33.1430  -20.2700    9.1010 C.3    27  LEU27       0.0001
     23  N         36.1180  -18.2460   11.9720 N.am   28  PRO28      -0.2727
     24  CA        36.9530  -18.0600   13.1440 C.3    28  PRO28       0.1402
     25  C         37.4960  -19.4050   13.5630 C.2    28  PRO28       0.2269
     26  O         36.9620  -20.4300   13.1510 O.2    28  PRO28      -0.2865
     27  CB        35.9930  -17.5330   14.1960 C.3    28  PRO28       0.0296
     28  CG        34.6820  -18.1110   13.8090 C.3    28  PRO28       0.0237
     29  CD        34.6910  -18.3240   12.3170 C.3    28  PRO28       0.0939
     30  N         25.5630  -17.3880   15.9400 N.3    83  ASP83      -0.1239
     31  CA        26.7660  -16.9690   15.2600 C.3    83  ASP83       0.1674
     32  C         27.1890  -17.9800   14.2320 C.2    83  ASP83       0.2266
     33  O         27.7510  -17.6120   13.1990 O.2    83  ASP83      -0.2867
     34  CB        27.9000  -16.7110   16.2220 C.3    83  ASP83       0.1410
     35  CG        28.9480  -15.7720   15.6270 C.2    83  ASP83       0.3668
     36  OD1       28.5910  -14.5830   15.3760 O.co2  83  ASP83      -0.2456
     37  OD2       30.1150  -16.2150   15.4040 O.co2  83  ASP83      -0.2456
     38  N         25.6350  -17.0700   11.0080 N.3    86  TRP86      -0.1227
     39  CA        26.3870  -16.0450   10.3060 C.3    86  TRP86       0.1737
     40  C         27.6940  -16.5990    9.7730 C.2    86  TRP86       0.2595
     41  O         28.1270  -16.2440    8.6600 O.2    86  TRP86      -0.2718
     42  CB        26.6780  -14.8510   11.2160 C.3    86  TRP86       0.0564
     43  CG        25.5140  -13.9120   11.4560 C.ar   86  TRP86       0.0003
     44  CD1       24.6960  -13.3160   10.5080 C.ar   86  TRP86       0.0946
     45  CD2       25.0670  -13.3700   12.7340 C.ar   86  TRP86       0.0152
     46  NE1       23.7760  -12.4900   11.0950 N.ar   86  TRP86      -0.2442
     47  CE2       23.9510  -12.4750   12.4320 C.ar   86  TRP86       0.0810
     48  CE3       25.4720  -13.5250   14.0540 C.ar   86  TRP86       0.0012
     49  CZ2       23.2600  -11.7990   13.4180 C.ar   86  TRP86       0.0191
     50  CZ3       24.7640  -12.8420   15.0440 C.ar   86  TRP86       0.0001
     51  CH2       23.6800  -12.0060   14.7300 C.ar   86  TRP86       0.0015
     52  N         28.3570  -17.4430   10.5600 N.am   87  GLN87      -0.1979
     53  CA        29.6170  -18.0370   10.1070 C.3    87  GLN87       0.1601
     54  C         29.3210  -18.7170    8.7680 C.2    87  GLN87       0.2287
     55  O         30.0720  -18.5430    7.8050 O.2    87  GLN87      -0.2864
     56  CB        30.2050  -19.0290   11.1400 C.3    87  GLN87       0.0394
     57  CG        30.7450  -18.3520   12.4050 C.3    87  GLN87       0.0908
     58  CD        31.2050  -19.3240   13.5250 C.2    87  GLN87       0.2608
     59  OE1       31.6740  -20.4190   13.2510 O.2    87  GLN87      -0.2717
     60  NE2       31.0570  -18.9160   14.7840 N.am   87  GLN87      -0.0878
     61  N         28.6560  -16.3050    5.7740 N.3    90  GLY90      -0.1225
     62  CA        29.9730  -15.7710    5.3680 C.3    90  GLY90       0.1811
     63  C         30.7530  -16.7470    4.5140 C.2    90  GLY90       0.2280
     64  O         31.2980  -16.3790    3.4790 O.2    90  GLY90      -0.2866
     65  N         34.6310  -11.0330    5.8000 N.3   102  GLY102     -0.1210
     66  CA        33.2080  -11.1800    6.1890 C.3   102  GLY102      0.1956
     67  C         32.8780  -10.4480    7.4820 C.2   102  GLY102      0.2612
     68  O         33.6960  -10.3990    8.4170 O.2   102  GLY102     -0.2717
     69  N         31.7070   -9.8260    7.5070 N.am  103  ARG103     -0.1965
     70  CA        31.1830   -9.1840    8.6940 C.3   103  ARG103      0.1729
     71  C         29.6920   -9.4360    8.7040 C.2   103  ARG103      0.2616
     72  O         29.0230   -9.2440    7.7000 O.2   103  ARG103     -0.2715
     73  CB        31.4400   -7.6750    8.6520 C.3   103  ARG103      0.0348
     74  CG        32.9070   -7.2460    8.7360 C.3   103  ARG103      0.0492
     75  CD        33.4700   -7.3800   10.1510 C.3   103  ARG103      0.2205
     76  NE        34.8320   -6.8510   10.3220 N.pl3 103  ARG103     -0.0865
     77  CZ        35.9650   -7.5040   10.0300 C.cat 103  ARG103      0.5346
     78  NH1       35.9400   -8.7310    9.5160 N.pl3 103  ARG103      0.1354
     79  NH2       37.1350   -6.9200   10.2440 N.pl3 103  ARG103      0.1354
     80  N         29.1620   -9.8820    9.8330 N.am  104  ALA104     -0.1977
     81  CA        27.7230   -9.9930   10.0090 C.3   104  ALA104      0.1597
     82  C         27.1190   -8.6000    9.9810 C.2   104  ALA104      0.2287
     83  O         27.6610   -7.7080   10.6040 O.2   104  ALA104     -0.2864
     84  CB        27.4370  -10.6300   11.3470 C.3   104  ALA104      0.0319
     85  N         24.9980  -11.0480    5.9460 N.3   161  VAL161     -0.1245
     86  CA        26.4440  -11.0190    6.0250 C.3   161  VAL161      0.1561
     87  C         26.9360  -10.3510    4.7660 C.2   161  VAL161      0.2260
     88  O         26.3960  -10.5740    3.6860 O.2   161  VAL161     -0.2867
     89  CB        27.0400  -12.4390    6.1140 C.3   161  VAL161      0.0252
     90  CG1       28.5630  -12.4180    5.9800 C.3   161  VAL161      0.0019
     91  CG2       26.6220  -13.0690    7.4360 C.3   161  VAL161      0.0019
     92  N         32.3220    0.4150    8.9040 N.3   168  PHE168     -0.1241
     93  CA        33.3180   -0.4120    9.5730 C.3   168  PHE168      0.1605
     94  C         34.7240    0.1490    9.3360 C.2   168  PHE168      0.2264
     95  O         34.9480    1.3570    9.4450 O.2   168  PHE168     -0.2867
     96  CB        33.2230   -1.8570    9.0730 C.3   168  PHE168      0.0534
     97  CG        31.9510   -2.5600    9.4760 C.ar  168  PHE168     -0.0203
     98  CD1       30.7420   -2.2530    8.8610 C.ar  168  PHE168     -0.0042
     99  CD2       31.9580   -3.5240   10.4740 C.ar  168  PHE168     -0.0042
    100  CE1       29.5740   -2.9010    9.2310 C.ar  168  PHE168     -0.0003
    101  CE2       30.7920   -4.1740   10.8460 C.ar  168  PHE168     -0.0003
    102  CZ        29.6020   -3.8640   10.2230 C.ar  168  PHE168     -0.0000
@<TRIPOS>BOND
     1     1     2    1
     2    64    63    2
     3     5     2    1
     4    88    87    2
     5     2     3    1
     6     4     3    2
     7    63    62    1
     8    87    86    1
     9     3     6   am
    10    62    61    1
    11    65    66    1
    12    85    86    1
    13    90    89    1
    14    86    89    1
    15    89    91    1
    16     6     7    1
    17    66    67    1
    18     7    10    1
    19     7     8    1
    20    11    10    1
    21    11    12    1
    22    67    69   am
    23    67    68    2
    24    69    70    1
    25    72    71    2
    26    55    54    2
    27    14    12   am
    28     8    15   am
    29     8     9    2
    30    12    13    2
    31    21    20    1
    32    15    16    1
    33    20    22    1
    34    20    19    1
    35    73    70    1
    36    73    74    1
    37    41    40    2
    38    70    71    1
    39    71    80   am
    40    74    75    1
    41    54    53    1
    42    98   100   ar
    43    98    97   ar
    44    92    93    1
    45    96    97    1
    46    96    93    1
    47   100   102   ar
    48    94    95    2
    49    94    93    1
    50    97    99   ar
    51    78    77    1
    52    19    16    1
    53    16    17    1
    54    40    39    1
    55    40    52   am
    56    80    81    1
    57    82    81    1
    58    82    83    2
    59    81    84    1
    60    77    79    1
    61    77    76    2
    62    53    52    1
    63    53    56    1
    64    75    76    1
    65   102   101   ar
    66    39    38    1
    67    39    42    1
    68    99   101   ar
    69    44    46   ar
    70    44    43   ar
    71    18    17    2
    72    17    23   am
    73    46    47   ar
    74    56    57    1
    75    42    43    1
    76    43    45   ar
    77    23    29    1
    78    23    24    1
    79    29    28    1
    80    57    58    1
    81    47    45   ar
    82    47    49   ar
    83    45    48   ar
    84    24    25    1
    85    24    27    1
    86    26    25    2
    87    33    32    2
    88    59    58    2
    89    49    51   ar
    90    58    60   am
    91    28    27    1
    92    48    50   ar
    93    32    31    1
    94    51    50   ar
    95    31    30    1
    96    31    34    1
    97    36    35   ar
    98    37    35   ar
    99    35    34    1
