@<TRIPOS>MOLECULE
tmp/4b0cA00.pdb
 89 89 0 0 0
SMALL
GASTEIGER

@<TRIPOS>ATOM
      1  N         28.4320  -21.4320   31.6650 N.3    69  HIS69      -0.1226
      2  CA        27.1220  -20.9930   31.1820 C.3    69  HIS69       0.1752
      3  C         26.1660  -22.1550   31.2820 C.2    69  HIS69       0.2596
      4  O         25.9600  -22.8620   30.2990 O.2    69  HIS69      -0.2718
      5  CB        27.2760  -20.5170   29.7370 C.3    69  HIS69       0.0759
      6  CG        26.0160  -19.9730   29.1150 C.ar   69  HIS69       0.0818
      7  ND1       25.0250  -20.7710   28.6380 N.ar   69  HIS69      -0.2268
      8  CD2       25.5990  -18.6660   28.8990 C.ar   69  HIS69       0.1154
      9  CE1       24.0370  -19.9980   28.1430 C.ar   69  HIS69       0.1986
     10  NE2       24.3860  -18.7200   28.3090 N.ar   69  HIS69      -0.2212
     11  N         25.5760  -22.4110   32.4480 N.am   70  PHE70      -0.1976
     12  CA        25.8500  -21.7240   33.6890 C.3    70  PHE70       0.1639
     13  C         26.3620  -22.7240   34.7230 C.2    70  PHE70       0.2290
     14  O         26.1920  -23.9310   34.5660 O.2    70  PHE70      -0.2864
     15  CB        24.5820  -21.0670   34.2280 C.3    70  PHE70       0.0560
     16  CG        23.9440  -20.1150   33.2770 C.ar   70  PHE70      -0.0200
     17  CD1       24.2920  -18.7830   33.2800 C.ar   70  PHE70      -0.0042
     18  CD2       22.9930  -20.5490   32.3840 C.ar   70  PHE70      -0.0042
     19  CE1       23.7090  -17.8910   32.3970 C.ar   70  PHE70      -0.0003
     20  CE2       22.4070  -19.6720   31.4880 C.ar   70  PHE70      -0.0003
     21  CZ        22.7700  -18.3370   31.4910 C.ar   70  PHE70      -0.0000
     22  N         24.1560  -25.1020   29.5580 N.3    75  VAL75      -0.1231
     23  CA        23.3310  -25.0210   28.3570 C.3    75  VAL75       0.1692
     24  C         24.0940  -24.1830   27.3430 C.2    75  VAL75       0.2592
     25  O         24.6370  -23.1290   27.6870 O.2    75  VAL75      -0.2718
     26  CB        21.9280  -24.4040   28.6290 C.3    75  VAL75       0.0266
     27  CG1       22.0200  -22.9960   29.1990 C.3    75  VAL75       0.0020
     28  CG2       21.1060  -24.4020   27.3530 C.3    75  VAL75       0.0020
     29  N         24.1340  -24.6360   26.1000 N.am   76  MET76      -0.1966
     30  CA        24.8220  -23.8870   25.0520 C.3    76  MET76       0.1721
     31  C         24.1920  -22.5120   24.8610 C.2    76  MET76       0.2458
     32  O         22.9650  -22.4030   24.8080 O.2    76  MET76      -0.2730
     33  CB        24.7540  -24.6200   23.7330 C.3    76  MET76       0.0427
     34  CG        25.5290  -23.9370   22.6260 C.3    76  MET76       0.0599
     35  SD        25.3390  -24.7950   21.0710 S.3    76  MET76      -0.1393
     36  CE        26.7330  -24.0530   20.2250 C.3    76  MET76       0.0692
     37  N         25.0150  -21.4670   24.7460 N.am   77  PRO77      -0.2716
     38  CA        24.4710  -20.1260   24.5590 C.3    77  PRO77       0.1536
     39  C         23.8190  -19.9300   23.1990 C.2    77  PRO77       0.2599
     40  O         24.3690  -20.3610   22.1820 O.2    77  PRO77      -0.2715
     41  CB        25.6940  -19.2170   24.6870 C.3    77  PRO77       0.0310
     42  CG        26.7010  -20.0140   25.4540 C.3    77  PRO77       0.0237
     43  CD        26.4400  -21.4470   25.1050 C.3    77  PRO77       0.0939
     44  N         22.6580  -19.2920   23.1770 N.am   78  GLY78      -0.1941
     45  CA        21.9300  -19.0930   21.9070 C.3    78  GLY78       0.2014
     46  C         22.7310  -18.2680   20.9220 C.2    78  GLY78       0.2639
     47  O         22.7430  -18.5630   19.7260 O.2    78  GLY78      -0.2714
     48  N         23.4280  -17.2530   21.4390 N.am   79  CYS79      -0.1967
     49  CA        24.2430  -16.3980   20.5890 C.3    79  CYS79       0.1712
     50  C         25.2640  -17.2090   19.8110 C.2    79  CYS79       0.2296
     51  O         25.5380  -16.8850   18.6540 O.2    79  CYS79      -0.2864
     52  CB        24.9390  -15.3100   21.4010 C.3    79  CYS79       0.0983
     53  SG        26.1660  -15.9390   22.5750 S.3    79  CYS79      -0.0798
     54  N         14.5240  -18.1640   19.8990 N.3   112  PHE112     -0.1241
     55  CA        15.0190  -19.2950   20.6230 C.3   112  PHE112      0.1605
     56  C         13.8450  -19.9420   21.3310 C.2   112  PHE112      0.2264
     57  O         13.1710  -19.3010   22.1280 O.2   112  PHE112     -0.2867
     58  CB        16.0180  -18.8390   21.6710 C.3   112  PHE112      0.0534
     59  CG        17.1870  -18.1040   21.1150 C.ar  112  PHE112     -0.0203
     60  CD1       17.8270  -18.5540   20.0020 C.ar  112  PHE112     -0.0042
     61  CD2       17.6720  -16.9720   21.7370 C.ar  112  PHE112     -0.0042
     62  CE1       18.9340  -17.8940   19.4970 C.ar  112  PHE112     -0.0003
     63  CE2       18.7600  -16.2990   21.2290 C.ar  112  PHE112     -0.0003
     64  CZ        19.3980  -16.7670   20.1130 C.ar  112  PHE112     -0.0000
     65  N         14.2120  -23.5580   22.3190 N.3   114  GLY114     -0.1210
     66  CA        14.6980  -24.7970   22.8700 C.3   114  GLY114      0.1956
     67  C         16.1310  -24.5930   23.2630 C.2   114  GLY114      0.2611
     68  O         16.6540  -23.4750   23.1660 O.2   114  GLY114     -0.2717
     69  N         16.7660  -25.6620   23.7180 N.am  115  GLN115     -0.1979
     70  CA        18.1190  -25.5510   24.1960 C.3   115  GLN115      0.1601
     71  C         18.9460  -26.7890   23.8920 C.2   115  GLN115      0.2287
     72  O         18.4170  -27.8530   23.5900 O.2   115  GLN115     -0.2864
     73  CB        18.1090  -25.2760   25.6950 C.3   115  GLN115      0.0394
     74  CG        17.3100  -26.2750   26.4840 C.3   115  GLN115      0.0908
     75  CD        17.0960  -25.8890   27.9300 C.2   115  GLN115      0.2608
     76  OE1       17.6350  -24.8950   28.4330 O.2   115  GLN115     -0.2717
     77  NE2       16.2800  -26.6770   28.6090 N.am  115  GLN115     -0.0878
     78  N         16.2920  -23.1480   17.3480 N.3   154  TYR154     -0.1241
     79  CA        16.3570  -21.7270   16.9990 C.3   154  TYR154      0.1605
     80  C         15.9500  -21.4680   15.5500 C.2   154  TYR154      0.2264
     81  O         16.0620  -22.3500   14.6960 O.2   154  TYR154     -0.2867
     82  CB        17.7600  -21.1650   17.1400 C.3   154  TYR154      0.0534
     83  CG        18.5520  -21.5340   18.3620 C.ar  154  TYR154     -0.0201
     84  CD1       17.9610  -21.9010   19.5450 C.ar  154  TYR154     -0.0009
     85  CD2       19.9080  -21.5040   18.3150 C.ar  154  TYR154     -0.0009
     86  CE1       18.7100  -22.2250   20.6570 C.ar  154  TYR154      0.0417
     87  CE2       20.6650  -21.8230   19.4090 C.ar  154  TYR154      0.0417
     88  CZ        20.0700  -22.1720   20.5840 C.ar  154  TYR154      0.1957
     89  OH        20.8670  -22.4910   21.6730 O.3   154  TYR154     -0.2866
@<TRIPOS>BOND
     1    81    80    2
     2    80    79    1
     3    79    82    1
     4    79    78    1
     5    82    83    1
     6    85    83   ar
     7    85    87   ar
     8    83    84   ar
     9    51    50    2
    10    87    88   ar
    11    62    60   ar
    12    62    64   ar
    13    84    86   ar
    14    47    46    2
    15    50    49    1
    16    54    55    1
    17    60    59   ar
    18    64    63   ar
    19    36    35    1
    20    88    86   ar
    21    88    89    1
    22    49    52    1
    23    49    48    1
    24    55    56    1
    25    55    58    1
    26    46    48   am
    27    46    45    1
    28    35    34    1
    29    59    58    1
    30    59    61   ar
    31    63    61   ar
    32    56    57    2
    33    52    53    1
    34    45    44    1
    35    40    39    2
    36    65    66    1
    37    34    33    1
    38    66    67    1
    39    68    67    2
    40    44    39   am
    41    39    38    1
    42    67    69   am
    43    72    71    2
    44    69    70    1
    45    33    30    1
    46    71    70    1
    47    70    73    1
    48    38    41    1
    49    38    37    1
    50    41    42    1
    51    37    31   am
    52    37    43    1
    53    32    31    2
    54    31    30    1
    55    30    29    1
    56    43    42    1
    57    73    74    1
    58    29    24   am
    59    74    75    1
    60    24    25    2
    61    24    23    1
    62    28    26    1
    63    75    76    2
    64    75    77   am
    65     9    10   ar
    66     9     7   ar
    67    10     8   ar
    68    23    26    1
    69    23    22    1
    70    26    27    1
    71     7     6   ar
    72     8     6   ar
    73     6     5    1
    74     5     2    1
    75     4     3    2
    76     2     3    1
    77     2     1    1
    78     3    11   am
    79    20    21   ar
    80    20    18   ar
    81    21    19   ar
    82    18    16   ar
    83    19    17   ar
    84    11    12    1
    85    16    17   ar
    86    16    15    1
    87    12    15    1
    88    12    13    1
    89    14    13    2
