@<TRIPOS>MOLECULE
tmp/4b0gA00.pdb
 184 175 0 0 0
SMALL
GASTEIGER

@<TRIPOS>ATOM
      1  N        -35.4080  -12.5780  -13.3150 N.3    12  ARG12      -0.1245
      2  CA       -34.6140  -12.3800  -12.1070 C.3    12  ARG12       0.1563
      3  C        -33.1900  -11.9460  -12.4000 C.2    12  ARG12       0.2260
      4  O        -32.6270  -12.2970  -13.4340 O.2    12  ARG12      -0.2867
      5  CB       -34.5860  -13.6740  -11.2890 C.3    12  ARG12       0.0307
      6  CG       -34.4330  -14.9430  -12.1300 C.3    12  ARG12       0.0489
      7  CD       -34.4910  -16.2020  -11.2630 C.3    12  ARG12       0.2205
      8  NE       -33.2980  -17.0320  -11.3940 N.pl3  12  ARG12      -0.0865
      9  CZ       -33.1190  -17.9240  -12.3650 C.cat  12  ARG12       0.5346
     10  NH1      -34.0530  -18.0660  -13.2940 N.pl3  12  ARG12       0.1354
     11  NH2      -32.0090  -18.6650  -12.4240 N.pl3  12  ARG12       0.1354
     12  N        -29.2030  -12.0170  -12.2100 N.3    14  LEU14      -0.1231
     13  CA       -28.2370  -13.1110  -12.0970 C.3    14  LEU14       0.1696
     14  C        -26.9330  -12.6590  -11.4260 C.2    14  LEU14       0.2632
     15  O        -26.0420  -13.4670  -11.1810 O.2    14  LEU14      -0.2714
     16  CB       -27.9760  -13.7480  -13.4740 C.3    14  LEU14       0.0284
     17  CG       -29.2070  -14.3370  -14.1890 C.3    14  LEU14       0.0019
     18  CD1      -28.9630  -14.4520  -15.7060 C.3    14  LEU14       0.0001
     19  CD2      -29.6220  -15.7150  -13.5980 C.3    14  LEU14       0.0001
     20  N        -26.8240  -11.3690  -11.1220 N.am   15  GLY15      -0.1718
     21  CA       -25.6030  -10.8410  -10.5380 C.2    15  GLY15       0.1480
     22  C        -25.4090   -9.3370  -10.6660 C.2    15  GLY15       0.2820
     23  O        -26.1590   -8.6500  -11.3780 O.2    15  GLY15      -0.2669
     24  N        -24.3860   -8.8290   -9.9760 N.am   16  LYS16      -0.1929
     25  CA       -24.0980   -7.3940   -9.9410 C.3    16  LYS16       0.1731
     26  C        -22.6610   -7.1350  -10.3920 C.2    16  LYS16       0.2617
     27  O        -21.7700   -7.9530  -10.1400 O.2    16  LYS16      -0.2715
     28  CB       -24.3560   -6.8130   -8.5400 C.3    16  LYS16       0.0312
     29  CG       -25.7300   -7.1860   -7.9400 C.3    16  LYS16       0.0038
     30  CD       -26.6020   -5.9570   -7.6480 C.3    16  LYS16       0.0206
     31  CE       -27.9980   -6.3430   -7.1430 C.3    16  LYS16       0.1093
     32  NZ       -28.9140   -5.1620   -6.9850 N.3    16  LYS16      -0.1314
     33  N        -22.4490   -5.9970  -11.0550 N.am   17  GLY17      -0.1940
     34  CA       -21.2220   -5.7190  -11.7990 C.3    17  GLY17       0.2014
     35  C        -19.9070   -5.6150  -11.0460 C.2    17  GLY17       0.2638
     36  O        -19.8910   -5.8270   -9.8360 O.2    17  GLY17      -0.2714
     37  N        -18.7920   -5.3040  -11.7190 N.am   18  LYS18      -0.1977
     38  CA       -18.6480   -5.0910  -13.1790 C.3    18  LYS18       0.1596
     39  C        -19.4660   -3.9590  -13.8370 C.2    18  LYS18       0.2287
     40  O        -20.0290   -4.1520  -14.9120 O.2    18  LYS18      -0.2864
     41  CB       -18.7710   -6.4080  -13.9850 C.3    18  LYS18       0.0298
     42  CG       -17.8030   -7.4980  -13.5530 C.3    18  LYS18       0.0038
     43  CD       -18.0640   -8.8230  -14.2650 C.3    18  LYS18       0.0206
     44  CE       -17.6940   -8.7700  -15.7460 C.3    18  LYS18       0.1093
     45  NZ       -17.5610  -10.1500  -16.3210 N.3    18  LYS18      -0.1314
     46  N        -22.2920   -2.8110  -13.6110 N.3    20  GLY20      -0.1210
     47  CA       -23.7090   -2.9580  -13.8730 C.3    20  GLY20       0.1956
     48  C        -24.3880   -4.2000  -13.3440 C.2    20  GLY20       0.2612
     49  O        -24.1070   -4.6610  -12.2400 O.2    20  GLY20      -0.2717
     50  N        -25.3010   -4.7360  -14.1440 N.am   21  ASN21      -0.1960
     51  CA       -26.1220   -5.8500  -13.7120 C.3    21  ASN21       0.1819
     52  C        -26.4800   -6.8170  -14.8380 C.2    21  ASN21       0.2621
     53  O        -26.6650   -6.4150  -15.9930 O.2    21  ASN21      -0.2715
     54  CB       -27.4020   -5.3210  -13.0570 C.3    21  ASN21       0.1195
     55  CG       -27.2090   -4.9860  -11.5870 C.2    21  ASN21       0.2630
     56  OD1      -26.6900   -5.7990  -10.8200 O.2    21  ASN21      -0.2716
     57  ND2      -27.6260   -3.7850  -11.1870 N.am   21  ASN21      -0.0877
     58  N        -26.5880   -8.0930  -14.4860 N.am   22  VAL22      -0.1977
     59  CA       -27.0790   -9.0920  -15.4160 C.3    22  VAL22       0.1596
     60  C        -28.4550   -9.6080  -14.9750 C.2    22  VAL22       0.2287
     61  O        -28.6810   -9.8910  -13.8030 O.2    22  VAL22      -0.2864
     62  CB       -26.0780  -10.2650  -15.5430 C.3    22  VAL22       0.0276
     63  CG1      -26.5570  -11.2870  -16.5740 C.3    22  VAL22       0.0022
     64  CG2      -24.6950   -9.7400  -15.8900 C.3    22  VAL22       0.0022
     65  N        -29.4450  -13.7670  -21.6130 N.3    35  ALA35      -0.1245
     66  CA       -29.0190  -12.9470  -20.4890 C.3    35  ALA35       0.1562
     67  C        -28.7460  -11.5270  -20.9760 C.2    35  ALA35       0.2260
     68  O        -28.1280  -11.3210  -22.0290 O.2    35  ALA35      -0.2867
     69  CB       -27.7720  -13.5340  -19.8220 C.3    35  ALA35       0.0290
     70  N        -27.0010   -7.9260  -20.0020 N.3    37  LYS37      -0.1245
     71  CA       -26.1220   -7.1740  -19.1250 C.3    37  LYS37       0.1561
     72  C        -26.3750   -5.6850  -19.3550 C.2    37  LYS37       0.2260
     73  O        -26.4430   -5.2250  -20.4970 O.2    37  LYS37      -0.2867
     74  CB       -24.6570   -7.5270  -19.3760 C.3    37  LYS37       0.0271
     75  CG       -23.7080   -6.8870  -18.3880 C.3    37  LYS37       0.0035
     76  CD       -22.2650   -7.3120  -18.6080 C.3    37  LYS37       0.0206
     77  CE       -21.9860   -8.7270  -18.0800 C.3    37  LYS37       0.1093
     78  NZ       -20.6230   -8.8800  -17.4500 N.3    37  LYS37      -0.1314
     79  N        -24.9700   -1.9800  -18.4360 N.3    39  LEU39      -0.1245
     80  CA       -23.8480   -1.2120  -17.9130 C.3    39  LEU39       0.1561
     81  C        -24.1480    0.2820  -18.0150 C.2    39  LEU39       0.2260
     82  O        -24.8130    0.7240  -18.9480 O.2    39  LEU39      -0.2867
     83  CB       -22.5570   -1.5620  -18.6640 C.3    39  LEU39       0.0270
     84  CG       -22.0860   -3.0200  -18.6500 C.3    39  LEU39       0.0019
     85  CD1      -22.7350   -3.8210  -19.7680 C.3    39  LEU39       0.0001
     86  CD2      -20.5890   -3.0940  -18.7740 C.3    39  LEU39       0.0001
     87  N        -18.9970  -17.8400  -23.9630 N.3    65  LEU65      -0.1245
     88  CA       -20.3380  -17.2870  -23.8740 C.3    65  LEU65       0.1561
     89  C        -20.6040  -16.3650  -25.0590 C.2    65  LEU65       0.2260
     90  O        -19.8740  -15.3950  -25.2650 O.2    65  LEU65      -0.2867
     91  CB       -20.5030  -16.5170  -22.5730 C.3    65  LEU65       0.0270
     92  CG       -21.9450  -16.2760  -22.1440 C.3    65  LEU65       0.0019
     93  CD1      -22.4900  -17.5570  -21.5570 C.3    65  LEU65       0.0001
     94  CD2      -22.0270  -15.1440  -21.1410 C.3    65  LEU65       0.0001
     95  N        -26.5610  -11.4150  -24.3190 N.3    81  LEU81      -0.1231
     96  CA       -25.6320  -12.5280  -24.2050 C.3    81  LEU81       0.1693
     97  C        -26.3700  -13.8380  -24.1450 C.2    81  LEU81       0.2592
     98  O        -27.5650  -13.8760  -23.8550 O.2    81  LEU81      -0.2718
     99  CB       -24.7890  -12.3810  -22.9380 C.3    81  LEU81       0.0284
    100  CG       -23.8630  -11.1720  -22.8340 C.3    81  LEU81       0.0019
    101  CD1      -23.5330  -10.8960  -21.3850 C.3    81  LEU81       0.0001
    102  CD2      -22.6070  -11.4160  -23.6320 C.3    81  LEU81       0.0001
    103  N        -25.6390  -14.9170  -24.4190 N.am   82  GLU82      -0.1966
    104  CA       -26.1380  -16.2730  -24.2210 C.3    82  GLU82       0.1733
    105  C        -26.4560  -16.4950  -22.7420 C.2    82  GLU82       0.2616
    106  O        -25.7910  -15.9540  -21.8570 O.2    82  GLU82      -0.2715
    107  CB       -25.1040  -17.2970  -24.7050 C.3    82  GLU82       0.0429
    108  CG       -25.4910  -18.7610  -24.4880 C.3    82  GLU82       0.1163
    109  CD       -24.3340  -19.7350  -24.7430 C.2    82  GLU82       0.3649
    110  OE1      -23.2810  -19.2970  -25.2550 O.co2  82  GLU82      -0.2457
    111  OE2      -24.4880  -20.9410  -24.4320 O.co2  82  GLU82      -0.2457
    112  N        -27.4900  -17.2770  -22.4770 N.am   83  TYR83      -0.1960
    113  CA       -27.8300  -17.6220  -21.1070 C.3    83  TYR83       0.1771
    114  C        -27.2650  -18.9730  -20.7250 C.2    83  TYR83       0.2619
    115  O        -27.4080  -19.9420  -21.4630 O.2    83  TYR83      -0.2715
    116  CB       -29.3440  -17.6590  -20.8910 C.3    83  TYR83       0.0574
    117  CG       -29.7140  -18.1160  -19.4990 C.ar   83  TYR83      -0.0198
    118  CD1      -29.2660  -17.4180  -18.3910 C.ar   83  TYR83      -0.0009
    119  CD2      -30.5070  -19.2400  -19.2910 C.ar   83  TYR83      -0.0009
    120  CE1      -29.5930  -17.8160  -17.1130 C.ar   83  TYR83       0.0417
    121  CE2      -30.8560  -19.6420  -18.0130 C.ar   83  TYR83       0.0417
    122  CZ       -30.3850  -18.9250  -16.9230 C.ar   83  TYR83       0.1957
    123  OH       -30.7010  -19.3000  -15.6340 O.3    83  TYR83      -0.2866
    124  N        -26.6330  -19.0210  -19.5590 N.am   84  ALA84      -0.1964
    125  CA       -26.1100  -20.2640  -19.0020 C.3    84  ALA84       0.1713
    126  C        -27.0180  -20.7280  -17.8580 C.2    84  ALA84       0.2458
    127  O        -27.0150  -20.1430  -16.7690 O.2    84  ALA84      -0.2730
    128  CB       -24.6620  -20.0790  -18.5260 C.3    84  ALA84       0.0333
    129  N        -27.8110  -21.7790  -18.1150 N.am   85  PRO85      -0.2716
    130  CA       -28.8450  -22.2550  -17.1850 C.3    85  PRO85       0.1536
    131  C        -28.3060  -22.8130  -15.8650 C.2    85  PRO85       0.2598
    132  O        -29.0060  -22.7520  -14.8520 O.2    85  PRO85      -0.2715
    133  CB       -29.5400  -23.3720  -17.9770 C.3    85  PRO85       0.0310
    134  CG       -29.1230  -23.1690  -19.4120 C.3    85  PRO85       0.0237
    135  CD       -27.7550  -22.5910  -19.3440 C.3    85  PRO85       0.0939
    136  N        -27.0770  -23.3280  -15.8690 N.am   86  LEU86      -0.1964
    137  CA       -26.5860  -24.1240  -14.7460 C.3    86  LEU86       0.1728
    138  C        -25.6890  -23.3760  -13.7720 C.2    86  LEU86       0.2617
    139  O        -25.1970  -23.9680  -12.8210 O.2    86  LEU86      -0.2715
    140  CB       -25.9070  -25.3950  -15.2570 C.3    86  LEU86       0.0311
    141  CG       -26.6800  -26.7270  -15.2370 C.3    86  LEU86       0.0022
    142  CD1      -28.1020  -26.6100  -15.7980 C.3    86  LEU86       0.0001
    143  CD2      -25.9170  -27.8080  -15.9770 C.3    86  LEU86       0.0001
    144  N        -25.4760  -22.0800  -13.9960 N.am   87  GLY87      -0.1940
    145  CA       -24.7180  -21.2720  -13.0490 C.3    87  GLY87       0.2014
    146  C        -23.1940  -21.3120  -13.1630 C.2    87  GLY87       0.2639
    147  O        -22.6390  -21.7340  -14.1810 O.2    87  GLY87      -0.2714
    148  N        -22.5090  -20.8630  -12.1140 N.am   88  THR88      -0.1950
    149  CA       -21.0580  -20.7920  -12.1440 C.3    88  THR88       0.1897
    150  C        -20.3250  -22.0750  -11.7020 C.2    88  THR88       0.2313
    151  O        -20.8340  -22.8740  -10.9100 O.2    88  THR88      -0.2863
    152  CB       -20.5390  -19.6370  -11.2840 C.3    88  THR88       0.1794
    153  OG1      -20.7030  -19.9610   -9.9050 O.3    88  THR88      -0.2208
    154  CG2      -21.2890  -18.3460  -11.5960 C.3    88  THR88       0.0378
    155  N        -15.7400  -17.8390  -10.7610 N.3   131  GLU131     -0.1231
    156  CA       -17.0280  -17.1500  -10.7610 C.3   131  GLU131      0.1699
    157  C        -17.4100  -16.6880  -12.1680 C.2   131  GLU131      0.2592
    158  O        -18.5890  -16.5810  -12.4810 O.2   131  GLU131     -0.2718
    159  CB       -17.0760  -15.9830   -9.7460 C.3   131  GLU131      0.0402
    160  CG       -15.7310  -15.3370   -9.3460 C.3   131  GLU131      0.1161
    161  CD       -14.8500  -16.2430   -8.4510 C.2   131  GLU131      0.3649
    162  OE1      -14.5390  -17.3860   -8.8650 O.co2 131  GLU131     -0.2457
    163  OE2      -14.4550  -15.8090   -7.3430 O.co2 131  GLU131     -0.2457
    164  N        -16.4150  -16.4520  -13.0200 N.am  132  ASN132     -0.1974
    165  CA       -16.6620  -16.1090  -14.4210 C.3   132  ASN132      0.1688
    166  C        -16.7360  -17.3150  -15.3480 C.2   132  ASN132      0.2292
    167  O        -16.7260  -17.1730  -16.5690 O.2   132  ASN132     -0.2864
    168  CB       -15.6130  -15.1280  -14.9450 C.3   132  ASN132      0.1181
    169  CG       -15.5790  -13.8530  -14.1470 C.2   132  ASN132      0.2629
    170  OD1      -16.5800  -13.4690  -13.5470 O.2   132  ASN132     -0.2716
    171  ND2      -14.4240  -13.1950  -14.1140 N.am  132  ASN132     -0.0877
    172  N        -19.1710  -20.2220  -16.4700 N.3   134  LEU134     -0.1245
    173  CA       -20.5620  -20.6710  -16.4000 C.3   134  LEU134      0.1561
    174  C        -20.7320  -22.0310  -17.0800 C.2   134  LEU134      0.2260
    175  O        -19.8270  -22.4960  -17.8030 O.2   134  LEU134     -0.2867
    176  CB       -21.4890  -19.6450  -17.0520 C.3   134  LEU134      0.0270
    177  CG       -21.3400  -18.1930  -16.5750 C.3   134  LEU134      0.0019
    178  CD1      -21.9520  -17.1990  -17.5720 C.3   134  LEU134      0.0001
    179  CD2      -21.9600  -18.0130  -15.2130 C.3   134  LEU134      0.0001
    180  N        -16.9960  -16.3990  -19.6340 N.3   144  ALA144     -0.1245
    181  CA       -17.8780  -15.2390  -19.5810 C.3   144  ALA144      0.1562
    182  C        -17.0700  -14.0140  -19.1710 C.2   144  ALA144      0.2260
    183  O        -17.2810  -13.4490  -18.1060 O.2   144  ALA144     -0.2867
    184  CB       -18.9910  -15.4830  -18.5850 C.3   144  ALA144      0.0290
@<TRIPOS>BOND
     1    90    89    2
     2   110   109   ar
     3    89    88    1
     4   109   108    1
     5   109   111   ar
     6   107   108    1
     7   107   104    1
     8   103   104    1
     9   103    97   am
    10    95    96    1
    11   104   105    1
    12    96    97    1
    13    96    99    1
    14    97    98    2
    15    87    88    1
    16    88    91    1
    17   102   100    1
    18    99   100    1
    19   100   101    1
    20   105   112   am
    21   105   106    2
    22    91    92    1
    23   112   113    1
    24    92    93    1
    25    92    94    1
    26    68    67    2
    27    65    66    1
    28   115   114    2
    29   113   116    1
    30   113   114    1
    31    67    66    1
    32   116   117    1
    33   114   124   am
    34    73    72    2
    35    66    69    1
    36    70    71    1
    37    85    84    1
    38   180   181    1
    39   181   182    1
    40   181   184    1
    41   124   125    1
    42   117   119   ar
    43   117   118   ar
    44   134   135    1
    45   134   133    1
    46    74    71    1
    47    74    75    1
    48    72    71    1
    49   135   129    1
    50   119   121   ar
    51   182   183    2
    52   125   128    1
    53   125   126    1
    54    82    81    2
    55    86    84    1
    56    83    84    1
    57    83    80    1
    58    76    75    1
    59    76    77    1
    60    79    80    1
    61   118   120   ar
    62   129   126   am
    63   129   130    1
    64    77    78    1
    65    81    80    1
    66   121   122   ar
    67   133   130    1
    68   126   127    2
    69   175   174    2
    70   178   177    1
    71   130   131    1
    72   120   122   ar
    73   174   173    1
    74   176   177    1
    75   176   173    1
    76   122   123    1
    77   177   179    1
    78    63    62    1
    79   167   166    2
    80   172   173    1
    81    45    44    1
    82    53    52    2
    83   143   141    1
    84    64    62    1
    85   136   131   am
    86   136   137    1
    87   131   132    2
    88   142   141    1
    89    44    43    1
    90    18    17    1
    91    62    59    1
    92    59    60    1
    93    59    58    1
    94   166   165    1
    95   140   141    1
    96   140   137    1
    97    60    61    2
    98   168   165    1
    99   168   169    1
   100    40    39    2
   101    52    58   am
   102    52    51    1
   103   137   138    1
   104   165   164    1
   105    43    42    1
   106    17    19    1
   107    17    16    1
   108   147   146    2
   109   169   171   am
   110   169   170    2
   111    50    51    1
   112    50    48   am
   113   144   138   am
   114   144   145    1
   115    41    42    1
   116    41    38    1
   117    47    46    1
   118    47    48    1
   119    39    38    1
   120   138   139    2
   121    51    54    1
   122    16    13    1
   123     4     3    2
   124    48    49    2
   125     1     2    1
   126    10     9    1
   127    38    37    1
   128   146   145    1
   129   146   148   am
   130    54    55    1
   131   164   157   am
   132   158   157    2
   133    11     9    1
   134     3     2    1
   135     9     8    2
   136    12    13    1
   137   157   156    1
   138   149   148    1
   139   149   150    1
   140   149   152    1
   141     6     5    1
   142     6     7    1
   143     2     5    1
   144    13    14    1
   145    34    33    1
   146    34    35    1
   147    37    35   am
   148   150   151    2
   149   154   152    1
   150    55    57   am
   151    55    56    2
   152    14    15    2
   153    14    20    1
   154     8     7    1
   155    23    22    2
   156   152   153    1
   157    20    21    2
   158    33    26   am
   159    35    36    2
   160   156   155    1
   161   156   159    1
   162    22    21    1
   163    22    24   am
   164    26    27    2
   165    26    25    1
   166    24    25    1
   167    25    28    1
   168   159   160    1
   169   160   161    1
   170   162   161   ar
   171    28    29    1
   172   161   163   ar
   173    29    30    1
   174    30    31    1
   175    31    32    1
