@<TRIPOS>MOLECULE
tmp/4b0hA01.pdb
 105 99 0 0 0
SMALL
GASTEIGER

@<TRIPOS>ATOM
      1  N         -1.5810   -5.6420   24.4750 N.3     9  LEU9       -0.1231
      2  CA        -1.2350   -5.9920   25.8610 C.3     9  LEU9        0.1693
      3  C         -2.4570   -6.2490   26.6870 C.2     9  LEU9        0.2592
      4  O         -2.4780   -7.2150   27.4540 O.2     9  LEU9       -0.2718
      5  CB        -0.4010   -4.8510   26.4400 C.3     9  LEU9        0.0284
      6  CG         0.0470   -5.1120   27.8720 C.3     9  LEU9        0.0019
      7  CD1        1.0060   -6.2650   27.9490 C.3     9  LEU9        0.0001
      8  CD2        0.6530   -3.8350   28.4140 C.3     9  LEU9        0.0001
      9  N         -3.4790   -5.4320   26.5430 N.am   10  ASP10      -0.1974
     10  CA        -4.6910   -5.5580   27.3100 C.3    10  ASP10       0.1709
     11  C         -5.7550   -4.7030   26.6800 C.2    10  ASP10       0.2293
     12  O         -5.5290   -4.0140   25.6960 O.2    10  ASP10      -0.2864
     13  CB        -4.4520   -5.1760   28.7670 C.3    10  ASP10       0.1436
     14  CG        -3.9130   -3.8150   28.9700 C.2    10  ASP10       0.3671
     15  OD1       -4.4610   -2.8490   28.4350 O.co2  10  ASP10      -0.2456
     16  OD2       -2.8860   -3.6700   29.6650 O.co2  10  ASP10      -0.2456
     17  N         -7.1480   -2.0480   27.6660 N.3    12  THR12      -0.1203
     18  CA        -7.0580   -0.6260   27.8650 C.3    12  THR12       0.1994
     19  C         -6.1920    0.0560   26.8050 C.2    12  THR12       0.2617
     20  O         -6.1110    1.2830   26.7540 O.2    12  THR12      -0.2717
     21  CB        -6.4710   -0.2890   29.2690 C.3    12  THR12       0.1784
     22  OG1       -5.0630   -0.5120   29.3190 O.3    12  THR12      -0.2211
     23  CG2       -7.2000   -0.9270   30.4110 C.3    12  THR12       0.0376
     24  N         -5.4180   -0.7390   26.0420 N.am   13  GLN13      -0.1979
     25  CA        -4.5880   -0.1540   24.9760 C.3    13  GLN13       0.1601
     26  C         -5.5260    0.4790   23.9320 C.2    13  GLN13       0.2287
     27  O         -6.5510   -0.0810   23.5650 O.2    13  GLN13      -0.2864
     28  CB        -3.7190   -1.2050   24.2810 C.3    13  GLN13       0.0394
     29  CG        -2.7730   -1.9160   25.2410 C.3    13  GLN13       0.0908
     30  CD        -1.9150   -0.9410   25.9900 C.2    13  GLN13       0.2608
     31  OE1       -1.1250   -0.2680   25.3410 O.2    13  GLN13      -0.2717
     32  NE2       -1.9650   -0.8920   27.2890 N.am   13  GLN13      -0.0878
     33  N          1.9090    2.6040   26.0600 N.3    30  ALA30      -0.1231
     34  CA         1.0000    1.6090   26.7500 C.3    30  ALA30       0.1694
     35  C          0.5610    1.9950   28.1090 C.2    30  ALA30       0.2591
     36  O         -0.3500    1.3820   28.6700 O.2    30  ALA30      -0.2718
     37  CB         1.6880    0.2700   26.7800 C.3    30  ALA30       0.0304
     38  N          1.2630    2.9500   28.6970 N.am   31  GLU31      -0.1979
     39  CA         1.0170    3.4370   30.0680 C.3    31  GLU31       0.1602
     40  C          1.6210    4.8000   30.2070 C.2    31  GLU31       0.2287
     41  O          2.4340    5.2140   29.3500 O.2    31  GLU31      -0.2864
     42  CB         1.6030    2.5130   31.1050 C.3    31  GLU31       0.0415
     43  CG         3.0750    2.3490   31.0840 C.3    31  GLU31       0.1163
     44  CD         3.5930    1.2240   32.0430 C.2    31  GLU31       0.3649
     45  OE1        2.7890    0.5850   32.7520 O.co2  31  GLU31      -0.2457
     46  OE2        4.7510    0.9660   31.9260 O.co2  31  GLU31      -0.2457
     47  N         14.5990    5.4280   29.0480 N.3    41  LYS41      -0.1231
     48  CA        13.5650    4.5090   29.4260 C.3    41  LYS41       0.1693
     49  C         13.0050    3.8820   28.1650 C.2    41  LYS41       0.2588
     50  O         12.7660    4.5430   27.1610 O.2    41  LYS41      -0.2718
     51  CB        12.4520    5.2240   30.1530 C.3    41  LYS41       0.0285
     52  CG        11.5620    4.2800   30.9610 C.3    41  LYS41       0.0035
     53  CD        10.8640    5.0810   32.0350 C.3    41  LYS41       0.0206
     54  CE        11.6500    5.3970   33.3010 C.3    41  LYS41       0.1093
     55  NZ        10.7050    5.9090   34.3510 N.3    41  LYS41      -0.1314
     56  N         12.7870    2.5800   28.2140 N.am   42  LEU42      -0.2033
     57  CA        12.1080    1.8140   27.1550 C.3    42  LEU42       0.1282
     58  C         10.6080    2.0070   27.2970 C.3    42  LEU42       0.2036
     59  O         10.0620    1.2960   28.1970 O.3    42  LEU42      -0.2185
     60  CB        12.4700    0.2630   27.3570 C.3    42  LEU42       0.0244
     61  CG        13.8080   -0.2360   26.7270 C.3    42  LEU42       0.0018
     62  CD1       13.7750   -1.7280   27.0440 C.3    42  LEU42       0.0001
     63  CD2       14.0690   -0.0190   25.2810 C.3    42  LEU42       0.0001
     64  N          6.9570    1.3460   26.6150 N.3    44  PRO44      -0.2116
     65  CA         6.2230    0.2250   26.0490 C.3    44  PRO44       0.1372
     66  C          5.1720    0.7230   25.0790 C.2    44  PRO44       0.2244
     67  O          4.5020    1.7250   25.3220 O.2    44  PRO44      -0.2868
     68  CB         5.5500   -0.3960   27.2950 C.3    44  PRO44       0.0268
     69  CG         5.3810    0.7060   28.2280 C.3    44  PRO44       0.0207
     70  CD         6.6390    1.5530   28.0220 C.3    44  PRO44       0.0892
     71  N          2.7470   -1.5800   23.7890 N.3    46  GLY46      -0.1225
     72  CA         1.4720   -2.3110   24.0460 C.3    46  GLY46       0.1811
     73  C          0.9820   -3.1950   22.9510 C.2    46  GLY46       0.2280
     74  O         -0.1640   -3.6410   23.0020 O.2    46  GLY46      -0.2866
     75  N          6.5000   -7.8220   22.8770 N.3    90  PHE90      -0.1241
     76  CA         5.8250   -6.5190   22.7870 C.3    90  PHE90       0.1605
     77  C          6.8610   -5.4830   22.3370 C.2    90  PHE90       0.2264
     78  O          7.9960   -5.4620   22.7540 O.2    90  PHE90      -0.2867
     79  CB         5.2000   -6.1280   24.1100 C.3    90  PHE90       0.0534
     80  CG         3.9680   -6.9410   24.4100 C.ar   90  PHE90      -0.0203
     81  CD1        2.7820   -6.6220   23.8150 C.ar   90  PHE90      -0.0042
     82  CD2        3.9940   -8.0040   25.2610 C.ar   90  PHE90      -0.0042
     83  CE1        1.6380   -7.4380   24.0300 C.ar   90  PHE90      -0.0003
     84  CE2        2.8610   -8.7810   25.4880 C.ar   90  PHE90      -0.0003
     85  CZ         1.7070   -8.4560   24.8740 C.ar   90  PHE90      -0.0000
     86  N          8.7160   -1.8300   21.8320 N.3    92  PHE92      -0.1241
     87  CA         9.1490   -0.7490   22.7310 C.3    92  PHE92       0.1605
     88  C          9.7240    0.3910   21.8570 C.2    92  PHE92       0.2264
     89  O         10.2400    0.1810   20.7590 O.2    92  PHE92      -0.2867
     90  CB        10.2040   -1.2340   23.7990 C.3    92  PHE92       0.0534
     91  CG         9.6400   -2.1910   24.8640 C.ar   92  PHE92      -0.0203
     92  CD1        9.4870   -3.4930   24.5630 C.ar   92  PHE92      -0.0042
     93  CD2        9.2050   -1.7460   26.1180 C.ar   92  PHE92      -0.0042
     94  CE1        8.9530   -4.3770   25.4650 C.ar   92  PHE92      -0.0003
     95  CE2        8.6480   -2.6310   27.0170 C.ar   92  PHE92      -0.0003
     96  CZ         8.5670   -3.9440   26.7000 C.ar   92  PHE92      -0.0000
     97  N         -0.5160    7.5210   28.6810 N.3   105  LYS105     -0.1245
     98  CA        -1.0910    6.3700   28.0830 C.3   105  LYS105      0.1561
     99  C         -1.8920    6.7420   26.8600 C.2   105  LYS105      0.2260
    100  O         -2.7430    7.6130   26.9340 O.2   105  LYS105     -0.2867
    101  CB        -1.9920    5.6500   29.0970 C.3   105  LYS105      0.0271
    102  CG        -2.5230    4.3320   28.6320 C.3   105  LYS105      0.0035
    103  CD        -3.4370    3.7240   29.6770 C.3   105  LYS105      0.0206
    104  CE        -3.8140    2.3090   29.3200 C.3   105  LYS105      0.1093
    105  NZ        -2.9340    1.4210   30.1100 N.3   105  LYS105     -0.1314
@<TRIPOS>BOND
     1    89    88    2
     2    86    87    1
     3    88    87    1
     4    77    78    2
     5    77    76    1
     6    87    90    1
     7    76    75    1
     8    76    79    1
     9    73    74    2
    10    73    72    1
    11    27    26    2
    12    71    72    1
    13    90    91    1
    14    81    83   ar
    15    81    80   ar
    16    26    25    1
    17    83    85   ar
    18    79    80    1
    19    28    25    1
    20    28    29    1
    21    80    82   ar
    22     1     2    1
    23    92    91   ar
    24    92    94   ar
    25    91    93   ar
    26    85    84   ar
    27    25    24    1
    28    66    67    2
    29    66    65    1
    30    29    30    1
    31    82    84   ar
    32    63    61    1
    33    31    30    2
    34    94    96   ar
    35    12    11    2
    36     2     5    1
    37     2     3    1
    38    30    32   am
    39    24    19   am
    40    65    64    1
    41    65    68    1
    42    33    34    1
    43    93    95   ar
    44     5     6    1
    45     9     3   am
    46     9    10    1
    47    64    70    1
    48    11    10    1
    49     3     4    2
    50    96    95   ar
    51    61    62    1
    52    61    60    1
    53    34    37    1
    54    34    35    1
    55    20    19    2
    56    19    18    1
    57    99   100    2
    58    99    98    1
    59    57    58    1
    60    57    60    1
    61    57    56    1
    62    50    49    2
    63    68    69    1
    64    58    59    1
    65    10    13    1
    66    17    18    1
    67    18    21    1
    68     6     7    1
    69     6     8    1
    70    70    69    1
    71    98    97    1
    72    98   101    1
    73    35    36    2
    74    35    38   am
    75    49    56   am
    76    49    48    1
    77    15    14   ar
    78   102   101    1
    79   102   103    1
    80    38    39    1
    81    13    14    1
    82    14    16   ar
    83    47    48    1
    84    21    22    1
    85    21    23    1
    86   104   103    1
    87   104   105    1
    88    41    40    2
    89    48    51    1
    90    39    40    1
    91    39    42    1
    92    51    52    1
    93    52    53    1
    94    43    42    1
    95    43    44    1
    96    46    44   ar
    97    53    54    1
    98    44    45   ar
    99    54    55    1
