@<TRIPOS>MOLECULE
tmp/4b0hB00.pdb
 106 105 0 0 0
SMALL
GASTEIGER

@<TRIPOS>ATOM
      1  N         23.2890    1.7500    7.8640 N.3    59  VAL59      -0.1245
      2  CA        23.8520    1.3540    9.1510 C.3    59  VAL59       0.1561
      3  C         23.1240    2.1270   10.2460 C.2    59  VAL59       0.2260
      4  O         23.0210    3.3800   10.2110 O.2    59  VAL59      -0.2867
      5  CB        25.3440    1.7190    9.2290 C.3    59  VAL59       0.0252
      6  CG1       25.8950    1.3700   10.6290 C.3    59  VAL59       0.0019
      7  CG2       26.1260    1.0040    8.1320 C.3    59  VAL59       0.0019
      8  N         24.1750    7.4640   17.4830 N.3    73  GLN73      -0.1245
      9  CA        24.8070    7.6250   16.1790 C.3    73  GLN73       0.1566
     10  C         24.4490    9.0070   15.6140 C.2    73  GLN73       0.2260
     11  O         23.3010    9.3120   15.3510 O.2    73  GLN73      -0.2867
     12  CB        24.2610    6.5210   15.2440 C.3    73  GLN73       0.0367
     13  CG        25.0090    6.5090   13.9100 C.3    73  GLN73       0.0905
     14  CD        24.5760    5.3350   13.0200 C.2    73  GLN73       0.2608
     15  OE1       24.1610    4.3060   13.5340 O.2    73  GLN73      -0.2717
     16  NE2       24.7890    5.4660   11.7400 N.am   73  GLN73      -0.0878
     17  N         24.8400   10.7170   12.8580 N.3    75  ASN75      -0.1240
     18  CA        24.2500   10.8820   11.5420 C.3    75  ASN75       0.1653
     19  C         22.9130   10.1330   11.3860 C.2    75  ASN75       0.2266
     20  O         22.3790   10.0540   10.2750 O.2    75  ASN75      -0.2867
     21  CB        25.1630   10.5300   10.3940 C.3    75  ASN75       0.1155
     22  CG        25.5860    9.1010   10.3550 C.2    75  ASN75       0.2627
     23  OD1       25.2260    8.3290   11.2370 O.2    75  ASN75      -0.2716
     24  ND2       26.3440    8.6980    9.3550 N.am   75  ASN75      -0.0877
     25  N         23.6210    5.7630    8.7110 N.3    78  GLY78      -0.1210
     26  CA        24.6610    5.9480    7.6820 C.3    78  GLY78       0.1956
     27  C         24.2830    5.2990    6.3870 C.2    78  GLY78       0.2612
     28  O         23.7170    4.2200    6.3550 O.2    78  GLY78      -0.2717
     29  N         24.6110    5.9770    5.2830 N.am   79  VAL79      -0.1965
     30  CA        24.3960    5.4780    3.9590 C.3    79  VAL79       0.1727
     31  C         25.7570    5.1640    3.3310 C.2    79  VAL79       0.2616
     32  O         26.6240    6.0280    3.2920 O.2    79  VAL79      -0.2715
     33  CB        23.6070    6.4750    3.1060 C.3    79  VAL79       0.0290
     34  CG1       23.4660    6.0160    1.6720 C.3    79  VAL79       0.0023
     35  CG2       22.2980    6.7890    3.7230 C.3    79  VAL79       0.0023
     36  N         25.9080    3.9310    2.8610 N.am   80  ILE80      -0.1963
     37  CA        27.1140    3.5070    2.1740 C.3    80  ILE80       0.1727
     38  C         26.6920    3.2010    0.7000 C.2    80  ILE80       0.2616
     39  O         25.9980    2.2310    0.4360 O.2    80  ILE80      -0.2715
     40  CB        27.7610    2.2300    2.7670 C.3    80  ILE80       0.0290
     41  CG1       27.7850    2.1790    4.2460 C.3    80  ILE80       0.0022
     42  CG2       29.0880    2.0430    2.0720 C.3    80  ILE80       0.0023
     43  CD1       28.5980    3.1500    4.8470 C.3    80  ILE80       0.0001
     44  N         27.0750    4.0750   -0.2040 N.am   81  ASP81      -0.1971
     45  CA        26.7590    3.9090   -1.6060 C.3    81  ASP81       0.1709
     46  C         27.5690    2.7970   -2.1910 C.2    81  ASP81       0.2293
     47  O         28.7190    2.5480   -1.7650 O.2    81  ASP81      -0.2864
     48  CB        26.9730    5.1560   -2.3900 C.3    81  ASP81       0.1436
     49  CG        26.5300    5.0230   -3.8280 C.2    81  ASP81       0.3671
     50  OD1       25.3180    4.8330   -4.0630 O.co2  81  ASP81      -0.2456
     51  OD2       27.4100    5.1220   -4.7260 O.co2  81  ASP81      -0.2456
     52  N         31.3660    3.2790   -2.7970 N.3    84  TYR84      -0.1241
     53  CA        32.3270    3.2830   -1.6910 C.3    84  TYR84       0.1605
     54  C         32.8780    1.8450   -1.5360 C.2    84  TYR84       0.2264
     55  O         32.4680    1.0950   -0.6590 O.2    84  TYR84      -0.2867
     56  CB        31.6790    3.7970   -0.4260 C.3    84  TYR84       0.0534
     57  CG        32.6350    4.0850    0.7110 C.ar   84  TYR84      -0.0201
     58  CD1       33.4550    5.1670    0.6910 C.ar   84  TYR84      -0.0009
     59  CD2       32.6530    3.2800    1.9000 C.ar   84  TYR84      -0.0009
     60  CE1       34.3200    5.4680    1.7180 C.ar   84  TYR84       0.0417
     61  CE2       33.4440    3.5790    2.9430 C.ar   84  TYR84       0.0417
     62  CZ        34.3090    4.6670    2.8820 C.ar   84  TYR84       0.1957
     63  OH        35.1950    4.9780    3.9080 O.3    84  TYR84      -0.2866
     64  N         37.0300    1.7780    4.3290 N.3    90  PHE90      -0.1227
     65  CA        36.5370    1.1890    5.5510 C.3    90  PHE90       0.1736
     66  C         35.3650    1.9710    6.1230 C.2    90  PHE90       0.2595
     67  O         35.2080    3.1720    5.8910 O.2    90  PHE90      -0.2718
     68  CB        37.6670    0.9820    6.5480 C.3    90  PHE90       0.0547
     69  CG        38.6360   -0.0610    6.0850 C.ar   90  PHE90      -0.0202
     70  CD1       38.3690   -1.3870    6.2950 C.ar   90  PHE90      -0.0042
     71  CD2       39.7500    0.2650    5.4110 C.ar   90  PHE90      -0.0042
     72  CE1       39.1440   -2.3910    5.8100 C.ar   90  PHE90      -0.0003
     73  CE2       40.5830   -0.7100    4.9490 C.ar   90  PHE90      -0.0003
     74  CZ        40.2750   -2.0210    5.1460 C.ar   90  PHE90      -0.0000
     75  N         34.4960    1.2340    6.8330 N.am   91  TRP91      -0.1962
     76  CA        33.2950    1.8070    7.4220 C.3    91  TRP91       0.1771
     77  C         33.5250    2.2500    8.8520 C.2    91  TRP91       0.2619
     78  O         34.3100    1.6200    9.6010 O.2    91  TRP91      -0.2715
     79  CB        32.1400    0.7650    7.4250 C.3    91  TRP91       0.0590
     80  CG        31.7100    0.2830    6.0770 C.ar   91  TRP91       0.0006
     81  CD1       32.3320    0.3850    4.8620 C.ar   91  TRP91       0.0946
     82  CD2       30.4660   -0.3950    5.8370 C.ar   91  TRP91       0.0152
     83  NE1       31.5650   -0.2170    3.8900 N.ar   91  TRP91      -0.2442
     84  CE2       30.4210   -0.6810    4.4490 C.ar   91  TRP91       0.0810
     85  CE3       29.3920   -0.7360    6.6260 C.ar   91  TRP91       0.0012
     86  CZ2       29.3610   -1.3830    3.8890 C.ar   91  TRP91       0.0191
     87  CZ3       28.3120   -1.4050    6.0510 C.ar   91  TRP91       0.0001
     88  CH2       28.2700   -1.6850    4.7040 C.ar   91  TRP91       0.0015
     89  N         32.8540    3.3060    9.2620 N.am   92  PHE92      -0.1974
     90  CA        32.9630    3.8890   10.6170 C.3    92  PHE92       0.1639
     91  C         31.5690    4.1920   11.1430 C.2    92  PHE92       0.2290
     92  O         30.6440    4.5470   10.4220 O.2    92  PHE92      -0.2864
     93  CB        33.7770    5.2140   10.5430 C.3    92  PHE92       0.0560
     94  CG        35.2050    5.0110   10.1620 C.ar   92  PHE92      -0.0200
     95  CD1       35.5690    4.7590    8.8250 C.ar   92  PHE92      -0.0042
     96  CD2       36.2300    5.0230   11.1070 C.ar   92  PHE92      -0.0042
     97  CE1       36.8650    4.4950    8.4950 C.ar   92  PHE92      -0.0003
     98  CE2       37.5290    4.7360   10.7360 C.ar   92  PHE92      -0.0003
     99  CZ        37.8190    4.4820    9.4140 C.ar   92  PHE92      -0.0000
    100  N         29.7390    6.7740   13.6790 N.3    94  PRO94      -0.2116
    101  CA        29.9220    8.0600   14.3420 C.3    94  PRO94       0.1372
    102  C         29.1640    8.1050   15.6650 C.2    94  PRO94       0.2244
    103  O         27.9570    8.2450   15.6960 O.2    94  PRO94      -0.2868
    104  CB        29.4010    9.0640   13.3240 C.3    94  PRO94       0.0268
    105  CG        28.3260    8.3410   12.6590 C.3    94  PRO94       0.0207
    106  CD        28.7970    6.9040   12.5590 C.3    94  PRO94       0.0892
@<TRIPOS>BOND
     1    51    49   ar
     2    50    49   ar
     3    49    48    1
     4    52    53    1
     5    48    45    1
     6    46    47    2
     7    46    45    1
     8    53    54    1
     9    53    56    1
    10    45    44    1
    11    54    55    2
    12    56    57    1
    13    44    38   am
    14    39    38    2
    15    58    57   ar
    16    58    60   ar
    17    38    37    1
    18    57    59   ar
    19    34    33    1
    20    60    62   ar
    21    59    61   ar
    22    42    40    1
    23    37    40    1
    24    37    36    1
    25    40    41    1
    26    36    31   am
    27    62    61   ar
    28    62    63    1
    29    33    35    1
    30    33    30    1
    31    32    31    2
    32    31    30    1
    33    86    84   ar
    34    86    88   ar
    35    83    84   ar
    36    83    81   ar
    37    30    29    1
    38    41    43    1
    39    64    65    1
    40    84    82   ar
    41    88    87   ar
    42    81    80   ar
    43    73    74   ar
    44    73    71   ar
    45    74    72   ar
    46    29    27   am
    47    71    69   ar
    48    65    66    1
    49    65    68    1
    50    72    70   ar
    51    82    80   ar
    52    82    85   ar
    53    67    66    2
    54    87    85   ar
    55    80    79    1
    56    69    70   ar
    57    69    68    1
    58    66    75   am
    59    28    27    2
    60    27    26    1
    61    75    76    1
    62    76    79    1
    63    76    77    1
    64    26    25    1
    65     1     2    1
    66     7     5    1
    67    97    95   ar
    68    97    99   ar
    69    95    94   ar
    70    77    89   am
    71    77    78    2
    72     2     5    1
    73     2     3    1
    74     5     6    1
    75    89    90    1
    76    24    22   am
    77    99    98   ar
    78    94    93    1
    79    94    96   ar
    80     4     3    2
    81    20    19    2
    82    22    21    1
    83    22    23    2
    84    21    18    1
    85    92    91    2
    86    93    90    1
    87    90    91    1
    88    98    96   ar
    89    19    18    1
    90    18    17    1
    91    16    14   am
    92   106   105    1
    93   106   100    1
    94   105   104    1
    95    14    15    2
    96    14    13    1
    97   104   101    1
    98   100   101    1
    99    13    12    1
   100   101   102    1
   101    12     9    1
   102    11    10    2
   103    10     9    1
   104   102   103    2
   105     9     8    1
