@<TRIPOS>MOLECULE
tmp/4b0iD00.pdb
 98 99 0 0 0
SMALL
GASTEIGER

@<TRIPOS>ATOM
      1  N        -27.6200   66.9500  -19.5230 N.3    69  ASN69      -0.1225
      2  CA       -28.4180   65.7450  -19.2590 C.3    69  ASN69       0.1785
      3  C        -27.6260   64.7100  -18.4730 C.2    69  ASN69       0.2597
      4  O        -26.8970   63.9110  -19.0620 O.2    69  ASN69      -0.2718
      5  CB       -28.8650   65.0840  -20.5690 C.3    69  ASN69       0.1169
      6  CG       -30.0280   64.1230  -20.3760 C.2    69  ASN69       0.2627
      7  OD1      -31.1800   64.5400  -20.3990 O.2    69  ASN69      -0.2716
      8  ND2      -29.7300   62.8280  -20.2060 N.am   69  ASN69      -0.0877
      9  N        -27.6780   64.7710  -17.1460 N.am   70  PHE70      -0.1976
     10  CA       -28.1840   65.9020  -16.4100 C.3    70  PHE70       0.1639
     11  C        -26.9770   66.6160  -15.8430 C.2    70  PHE70       0.2290
     12  O        -25.9440   65.9730  -15.6320 O.2    70  PHE70      -0.2864
     13  CB       -29.0730   65.4410  -15.2520 C.3    70  PHE70       0.0560
     14  CG       -30.1320   64.4630  -15.6530 C.ar   70  PHE70      -0.0200
     15  CD1      -29.8360   63.1140  -15.7730 C.ar   70  PHE70      -0.0042
     16  CD2      -31.4100   64.8920  -15.9680 C.ar   70  PHE70      -0.0042
     17  CE1      -30.7950   62.2120  -16.1560 C.ar   70  PHE70      -0.0003
     18  CE2      -32.3730   63.9920  -16.3770 C.ar   70  PHE70      -0.0003
     19  CZ       -32.0530   62.6450  -16.4770 C.ar   70  PHE70      -0.0000
     20  N        -25.3550   61.5900  -18.6340 N.3    75  VAL75      -0.1231
     21  CA       -25.7410   60.3390  -19.2190 C.3    75  VAL75       0.1692
     22  C        -26.3800   60.6130  -20.5870 C.2    75  VAL75       0.2592
     23  O        -27.0920   61.6040  -20.7740 O.2    75  VAL75      -0.2718
     24  CB       -26.6820   59.5710  -18.2490 C.3    75  VAL75       0.0266
     25  CG1      -27.9020   60.4460  -17.8680 C.3    75  VAL75       0.0020
     26  CG2      -27.1200   58.2490  -18.8520 C.3    75  VAL75       0.0020
     27  N        -26.0350   59.8250  -21.5940 N.am   76  MET76      -0.1966
     28  CA       -26.6620   60.0580  -22.8980 C.3    76  MET76       0.1721
     29  C        -28.1840   59.9360  -22.8060 C.2    76  MET76       0.2458
     30  O        -28.6950   58.9750  -22.2420 O.2    76  MET76      -0.2730
     31  CB       -26.1430   59.0900  -23.9480 C.3    76  MET76       0.0427
     32  CG       -26.4090   59.5600  -25.3740 C.3    76  MET76       0.0599
     33  SD       -25.8000   58.3110  -26.5370 S.3    76  MET76      -0.1393
     34  CE       -26.4460   59.0240  -28.0700 C.3    76  MET76       0.0692
     35  N        -28.9040   60.8960  -23.3860 N.am   77  PRO77      -0.2716
     36  CA       -30.3540   60.7490  -23.4840 C.3    77  PRO77       0.1536
     37  C        -30.7100   59.4880  -24.2300 C.2    77  PRO77       0.2599
     38  O        -30.2360   59.2700  -25.3380 O.2    77  PRO77      -0.2715
     39  CB       -30.7740   61.9670  -24.3020 C.3    77  PRO77       0.0310
     40  CG       -29.7150   62.9700  -24.0350 C.3    77  PRO77       0.0237
     41  CD       -28.4620   62.2680  -23.6990 C.3    77  PRO77       0.0939
     42  N        -31.4890   58.6270  -23.6110 N.am   78  GLY78      -0.1941
     43  CA       -32.0150   57.4490  -24.3180 C.3    78  GLY78       0.2014
     44  C        -32.7490   57.8520  -25.5920 C.2    78  GLY78       0.2639
     45  O        -32.6790   57.1650  -26.6200 O.2    78  GLY78      -0.2714
     46  N        -33.3770   59.0090  -25.5660 N.am   79  CYS79      -0.1967
     47  CA       -34.1570   59.4510  -26.7000 C.3    79  CYS79       0.1712
     48  C        -33.2910   59.7180  -27.9350 C.2    79  CYS79       0.2296
     49  O        -33.6970   59.4230  -29.0440 O.2    79  CYS79      -0.2864
     50  CB       -35.0070   60.6550  -26.3330 C.3    79  CYS79       0.0983
     51  SG       -34.1660   62.2440  -26.4110 S.3    79  CYS79      -0.0798
     52  N        -34.6850   50.6930  -22.2270 N.3   112  PHE112     -0.1227
     53  CA       -33.3610   51.1540  -21.8180 C.3   112  PHE112      0.1736
     54  C        -32.9410   50.5010  -20.4950 C.2   112  PHE112      0.2595
     55  O        -33.6000   50.6660  -19.4540 O.2   112  PHE112     -0.2718
     56  CB       -33.3300   52.6670  -21.6480 C.3   112  PHE112      0.0547
     57  CG       -34.0190   53.4430  -22.7530 C.ar  112  PHE112     -0.0202
     58  CD1      -33.5590   53.3840  -24.0670 C.ar  112  PHE112     -0.0042
     59  CD2      -34.9360   54.4290  -22.4330 C.ar  112  PHE112     -0.0042
     60  CE1      -34.1060   54.2140  -25.0440 C.ar  112  PHE112     -0.0003
     61  CE2      -35.5180   55.2250  -23.4090 C.ar  112  PHE112     -0.0003
     62  CZ       -35.0640   55.1560  -24.7100 C.ar  112  PHE112     -0.0000
     63  N        -31.9450   49.6300  -20.5730 N.am  113  PHE113     -0.1962
     64  CA       -31.5610   48.8240  -19.4270 C.3   113  PHE113      0.1771
     65  C        -30.0730   48.9700  -19.1250 C.2   113  PHE113      0.2620
     66  O        -29.5000   48.1800  -18.3930 O.2   113  PHE113     -0.2715
     67  CB       -31.9580   47.3520  -19.6340 C.3   113  PHE113      0.0574
     68  CG       -31.5800   46.7980  -20.9910 C.ar  113  PHE113     -0.0200
     69  CD1      -30.3270   46.2510  -21.2060 C.ar  113  PHE113     -0.0042
     70  CD2      -32.4840   46.8070  -22.0310 C.ar  113  PHE113     -0.0042
     71  CE1      -29.9610   45.7730  -22.4490 C.ar  113  PHE113     -0.0003
     72  CE2      -32.1410   46.3010  -23.2810 C.ar  113  PHE113     -0.0003
     73  CZ       -30.8640   45.8050  -23.4920 C.ar  113  PHE113     -0.0000
     74  N        -29.4530   49.9710  -19.7280 N.am  114  GLY114     -0.1940
     75  CA       -28.1490   50.4240  -19.3280 C.3   114  GLY114      0.2014
     76  C        -27.9370   51.7960  -19.9030 C.2   114  GLY114      0.2638
     77  O        -28.8070   52.3200  -20.5790 O.2   114  GLY114     -0.2714
     78  N        -26.7760   52.3770  -19.6450 N.am  115  GLN115     -0.1977
     79  CA       -26.5640   53.8020  -19.9090 C.3   115  GLN115      0.1601
     80  C        -25.1800   54.0710  -20.5300 C.2   115  GLN115      0.2287
     81  O        -24.2680   53.2360  -20.4540 O.2   115  GLN115     -0.2864
     82  CB       -26.7490   54.6050  -18.6090 C.3   115  GLN115      0.0394
     83  CG       -25.5610   54.5260  -17.6950 C.3   115  GLN115      0.0908
     84  CD       -25.7690   55.1490  -16.3070 C.2   115  GLN115      0.2608
     85  OE1      -26.6230   55.9990  -16.0860 O.2   115  GLN115     -0.2717
     86  NE2      -24.9230   54.7480  -15.3890 N.am  115  GLN115     -0.0878
     87  N        -29.6580   49.1580  -24.9360 N.3   154  TYR154     -0.1241
     88  CA       -31.0230   49.5000  -25.3710 C.3   154  TYR154      0.1605
     89  C        -31.5180   48.4960  -26.4160 C.2   154  TYR154      0.2264
     90  O        -30.7520   47.9970  -27.2540 O.2   154  TYR154     -0.2867
     91  CB       -31.1310   50.8700  -26.0480 C.3   154  TYR154      0.0534
     92  CG       -30.5190   52.1030  -25.4260 C.ar  154  TYR154     -0.0201
     93  CD1      -30.1180   52.1750  -24.0930 C.ar  154  TYR154     -0.0009
     94  CD2      -30.4190   53.2570  -26.2010 C.ar  154  TYR154     -0.0009
     95  CE1      -29.6060   53.3850  -23.5750 C.ar  154  TYR154      0.0417
     96  CE2      -29.9310   54.4260  -25.7040 C.ar  154  TYR154      0.0417
     97  CZ       -29.4940   54.4900  -24.4040 C.ar  154  TYR154      0.1957
     98  OH       -28.9590   55.6940  -23.9910 O.3   154  TYR154     -0.2866
@<TRIPOS>BOND
     1    49    48    2
     2    34    33    1
     3    48    47    1
     4    90    89    2
     5    47    50    1
     6    47    46    1
     7    45    44    2
     8    33    32    1
     9    89    88    1
    10    51    50    1
    11    94    96   ar
    12    94    92   ar
    13    91    92    1
    14    91    88    1
    15    96    97   ar
    16    44    46   am
    17    44    43    1
    18    92    93   ar
    19    32    31    1
    20    88    87    1
    21    38    37    2
    22    60    62   ar
    23    60    58   ar
    24    62    61   ar
    25    97    98    1
    26    97    95   ar
    27    43    42    1
    28    39    40    1
    29    39    36    1
    30    37    42   am
    31    37    36    1
    32    93    95   ar
    33    58    57   ar
    34    40    41    1
    35    31    28    1
    36    41    35    1
    37    73    72   ar
    38    73    71   ar
    39    36    35    1
    40    61    59   ar
    41    35    29   am
    42    72    70   ar
    43    28    29    1
    44    28    27    1
    45    29    30    2
    46    57    59   ar
    47    57    56    1
    48    71    69   ar
    49    52    53    1
    50    70    68   ar
    51    53    56    1
    52    53    54    1
    53    27    22   am
    54    69    68   ar
    55    68    67    1
    56    23    22    2
    57    22    21    1
    58    77    76    2
    59    63    54   am
    60    63    64    1
    61     5     6    1
    62     5     2    1
    63    80    81    2
    64    80    79    1
    65    54    55    2
    66     7     6    2
    67     6     8   am
    68    79    78    1
    69    79    82    1
    70    76    78   am
    71    76    75    1
    72    74    75    1
    73    74    65   am
    74    67    64    1
    75     1     2    1
    76    64    65    1
    77     2     3    1
    78    21    20    1
    79    21    24    1
    80    65    66    2
    81     4     3    2
    82    26    24    1
    83    82    83    1
    84     3     9   am
    85    24    25    1
    86    83    84    1
    87     9    10    1
    88    19    18   ar
    89    19    17   ar
    90    10    11    1
    91    10    13    1
    92    18    16   ar
    93    84    85    2
    94    84    86   am
    95    17    15   ar
    96    16    14   ar
    97    11    12    2
    98    15    14   ar
    99    14    13    1
