@<TRIPOS>MOLECULE
tmp/4b0iD01.pdb
 127 124 0 0 0
SMALL
GASTEIGER

@<TRIPOS>ATOM
      1  N        -24.8560   63.5440  -46.6130 N.3    14  CYS14      -0.1235
      2  CA       -26.2250   63.0690  -46.6420 C.3    14  CYS14       0.1677
      3  C        -27.1700   64.0420  -45.9310 C.2    14  CYS14       0.2270
      4  O        -28.2610   64.3400  -46.4360 O.2    14  CYS14      -0.2867
      5  CB       -26.3030   61.6790  -46.0310 C.3    14  CYS14       0.0956
      6  SG       -28.0200   61.0790  -45.8780 S.3    14  CYS14      -0.0801
      7  N        -34.0630   61.3650  -48.9450 N.3    25  ALA25      -0.1231
      8  CA       -33.8860   61.1220  -47.5320 C.3    25  ALA25       0.1694
      9  C        -32.6350   61.8510  -47.0530 C.2    25  ALA25       0.2592
     10  O        -31.6740   61.9890  -47.8080 O.2    25  ALA25      -0.2718
     11  CB       -33.7930   59.6380  -47.2550 C.3    25  ALA25       0.0304
     12  N        -32.7480   62.5050  -45.8940 N.am   26  GLN26      -0.1966
     13  CA       -31.6320   63.2110  -45.2790 C.3    26  GLN26       0.1733
     14  C        -31.4410   62.6790  -43.8800 C.2    26  GLN26       0.2616
     15  O        -32.4030   62.5810  -43.1230 O.2    26  GLN26      -0.2715
     16  CB       -31.9140   64.7090  -45.1730 C.3    26  GLN26       0.0408
     17  CG       -31.8230   65.4810  -46.4630 C.3    26  GLN26       0.0908
     18  CD       -32.2800   66.9090  -46.2800 C.2    26  GLN26       0.2608
     19  OE1      -33.4600   67.2070  -46.4090 O.2    26  GLN26      -0.2717
     20  NE2      -31.3770   67.7650  -45.8530 N.am   26  GLN26      -0.0878
     21  N        -30.1850   62.5890  -43.4580 N.am   27  LEU27      -0.1964
     22  CA       -29.9130   62.4820  -42.0400 C.3    27  LEU27       0.1713
     23  C        -30.0650   63.8580  -41.4330 C.2    27  LEU27       0.2458
     24  O        -29.9580   64.8600  -42.1330 O.2    27  LEU27      -0.2730
     25  CB       -28.5180   61.9400  -41.7940 C.3    27  LEU27       0.0310
     26  CG       -28.3400   60.4290  -42.0190 C.3    27  LEU27       0.0022
     27  CD1      -26.8580   60.0990  -42.0290 C.3    27  LEU27       0.0001
     28  CD2      -29.0190   59.6310  -40.9550 C.3    27  LEU27       0.0001
     29  N        -30.3230   63.9270  -40.1300 N.am   28  PRO28      -0.2727
     30  CA       -30.1580   65.2150  -39.4490 C.3    28  PRO28       0.1402
     31  C        -28.6970   65.6360  -39.4790 C.2    28  PRO28       0.2269
     32  O        -27.8030   64.7860  -39.5090 O.2    28  PRO28      -0.2865
     33  CB       -30.5590   64.9270  -37.9900 C.3    28  PRO28       0.0296
     34  CG       -31.0690   63.5420  -37.9580 C.3    28  PRO28       0.0237
     35  CD       -30.5910   62.8220  -39.2060 C.3    28  PRO28       0.0939
     36  N        -33.3020   57.7630  -31.4420 N.3    83  ASP83      -0.1239
     37  CA       -33.3320   58.4940  -32.6960 C.3    83  ASP83       0.1674
     38  C        -32.2850   58.0000  -33.6730 C.2    83  ASP83       0.2266
     39  O        -32.5300   58.0240  -34.8810 O.2    83  ASP83      -0.2867
     40  CB       -33.1800   59.9920  -32.5110 C.3    83  ASP83       0.1410
     41  CG       -33.8280   60.7690  -33.6440 C.2    83  ASP83       0.3668
     42  OD1      -35.0580   60.5750  -33.8180 O.co2  83  ASP83      -0.2456
     43  OD2      -33.1550   61.6390  -34.2780 O.co2  83  ASP83      -0.2456
     44  N        -33.8400   55.3240  -35.5800 N.3    86  TRP86      -0.1227
     45  CA       -34.7510   55.8750  -36.5940 C.3    86  TRP86       0.1737
     46  C        -33.9700   56.5110  -37.7410 C.2    86  TRP86       0.2595
     47  O        -34.3640   56.4090  -38.8970 O.2    86  TRP86      -0.2718
     48  CB       -35.7120   56.9130  -35.9950 C.3    86  TRP86       0.0564
     49  CG       -36.8410   56.3070  -35.2940 C.ar   86  TRP86       0.0003
     50  CD1      -37.6400   55.3340  -35.7590 C.ar   86  TRP86       0.0946
     51  CD2      -37.4000   56.7100  -34.0360 C.ar   86  TRP86       0.0152
     52  NE1      -38.6260   55.0420  -34.8610 N.ar   86  TRP86      -0.2442
     53  CE2      -38.4960   55.8710  -33.7810 C.ar   86  TRP86       0.0810
     54  CE3      -37.0870   57.6990  -33.1050 C.ar   86  TRP86       0.0012
     55  CZ2      -39.2780   55.9950  -32.6350 C.ar   86  TRP86       0.0191
     56  CZ3      -37.8350   57.7920  -31.9550 C.ar   86  TRP86       0.0001
     57  CH2      -38.9270   56.9560  -31.7320 C.ar   86  TRP86       0.0015
     58  N        -32.8800   57.1930  -37.4130 N.am   87  GLN87      -0.1979
     59  CA       -32.0160   57.8220  -38.4230 C.3    87  GLN87       0.1601
     60  C        -31.4380   56.7380  -39.3610 C.2    87  GLN87       0.2287
     61  O        -31.4200   56.8780  -40.5820 O.2    87  GLN87      -0.2864
     62  CB       -30.9010   58.6260  -37.7390 C.3    87  GLN87       0.0394
     63  CG       -31.2970   59.9990  -37.1120 C.3    87  GLN87       0.0908
     64  CD       -30.2060   60.6100  -36.2380 C.2    87  GLN87       0.2608
     65  OE1      -29.0350   60.4200  -36.5110 O.2    87  GLN87      -0.2717
     66  NE2      -30.5890   61.3200  -35.1690 N.am   87  GLN87      -0.0878
     67  N        -34.3600   55.1600  -41.6920 N.3    90  GLY90      -0.1210
     68  CA       -34.4560   56.1550  -42.7670 C.3    90  GLY90       0.1956
     69  C        -33.3380   56.1420  -43.7990 C.2    90  GLY90       0.2611
     70  O        -33.6060   56.1130  -45.0060 O.2    90  GLY90      -0.2717
     71  N        -32.0850   56.1660  -43.3490 N.am   91  PHE91      -0.1976
     72  CA       -30.9550   55.9960  -44.2560 C.3    91  PHE91       0.1639
     73  C        -31.1190   54.7530  -45.1380 C.2    91  PHE91       0.2290
     74  O        -30.7830   54.7910  -46.3250 O.2    91  PHE91      -0.2864
     75  CB       -29.6470   55.9150  -43.4810 C.3    91  PHE91       0.0560
     76  CG       -28.4310   55.9910  -44.3440 C.ar   91  PHE91      -0.0200
     77  CD1      -27.8980   54.8470  -44.9040 C.ar   91  PHE91      -0.0042
     78  CD2      -27.8230   57.2270  -44.6190 C.ar   91  PHE91      -0.0042
     79  CE1      -26.7320   54.9070  -45.6710 C.ar   91  PHE91      -0.0003
     80  CE2      -26.6810   57.3010  -45.4370 C.ar   91  PHE91      -0.0003
     81  CZ       -26.1390   56.1370  -45.9460 C.ar   91  PHE91      -0.0000
     82  N        -37.6910   61.6960  -45.0640 N.3   102  GLY102     -0.1210
     83  CA       -37.9320   60.7380  -43.9780 C.3   102  GLY102      0.1956
     84  C        -38.7760   61.3130  -42.8580 C.2   102  GLY102      0.2612
     85  O        -38.6890   62.4990  -42.5500 O.2   102  GLY102     -0.2717
     86  N        -39.6090   60.4750  -42.2560 N.am  103  ARG103     -0.1965
     87  CA       -40.2560   60.7830  -40.9710 C.3   103  ARG103      0.1729
     88  C        -40.3760   59.4800  -40.1750 C.2   103  ARG103      0.2616
     89  O        -40.9580   58.4900  -40.6750 O.2   103  ARG103     -0.2715
     90  CB       -41.6640   61.3880  -41.1700 C.3   103  ARG103      0.0348
     91  CG       -41.7570   62.7440  -41.9010 C.3   103  ARG103      0.0492
     92  CD       -41.3870   63.9100  -40.9810 C.3   103  ARG103      0.2205
     93  NE       -41.5590   65.2300  -41.5740 N.pl3 103  ARG103     -0.0865
     94  CZ       -40.6680   65.8620  -42.3390 C.cat 103  ARG103      0.5346
     95  NH1      -39.5490   65.2560  -42.7580 N.pl3 103  ARG103      0.1354
     96  NH2      -40.9370   67.0970  -42.7320 N.pl3 103  ARG103      0.1354
     97  N        -39.8280   59.4600  -38.9560 N.am  104  ALA104     -0.1963
     98  CA       -40.1150   58.3910  -37.9870 C.3   104  ALA104      0.1728
     99  C        -41.6130   58.2990  -37.7750 C.2   104  ALA104      0.2616
    100  O        -42.2710   59.3050  -37.5720 O.2   104  ALA104     -0.2715
    101  CB       -39.4200   58.6610  -36.6470 C.3   104  ALA104      0.0334
    102  N        -42.1460   57.0840  -37.6960 N.am  105  LEU105     -0.1977
    103  CA       -43.5710   56.9090  -37.4350 C.3   105  LEU105      0.1596
    104  C        -43.8220   56.2560  -36.0910 C.2   105  LEU105      0.2287
    105  O        -44.9470   56.2290  -35.6110 O.2   105  LEU105     -0.2864
    106  CB       -44.2170   56.0820  -38.5340 C.3   105  LEU105      0.0297
    107  CG       -44.0050   56.6630  -39.9470 C.3   105  LEU105      0.0022
    108  CD1      -44.7190   55.7930  -40.9860 C.3   105  LEU105      0.0001
    109  CD2      -44.4880   58.1030  -39.9960 C.3   105  LEU105      0.0001
    110  N        -40.2260   53.8430  -40.0110 N.3   161  VAL161     -0.1245
    111  CA       -39.8630   55.0930  -40.6580 C.3   161  VAL161      0.1561
    112  C        -40.4550   55.0710  -42.0520 C.2   161  VAL161      0.2260
    113  O        -40.4650   54.0410  -42.7210 O.2   161  VAL161     -0.2867
    114  CB       -38.3400   55.2640  -40.7610 C.3   161  VAL161      0.0252
    115  CG1      -37.9830   56.6350  -41.3950 C.3   161  VAL161      0.0019
    116  CG2      -37.7030   55.1230  -39.3590 C.3   161  VAL161      0.0019
    117  N        -48.5660   65.1160  -43.0110 N.3   170  PHE170     -0.1241
    118  CA       -48.4580   65.2660  -41.5490 C.3   170  PHE170      0.1605
    119  C        -48.9900   66.6270  -41.0320 C.2   170  PHE170      0.2264
    120  O        -48.8360   67.0130  -39.8600 O.2   170  PHE170     -0.2867
    121  CB       -47.0200   65.0000  -41.0810 C.3   170  PHE170      0.0534
    122  CG       -46.5870   63.5680  -41.2470 C.ar  170  PHE170     -0.0203
    123  CD1      -46.2150   63.0850  -42.4880 C.ar  170  PHE170     -0.0042
    124  CD2      -46.5920   62.6960  -40.1700 C.ar  170  PHE170     -0.0042
    125  CE1      -45.8620   61.7620  -42.6450 C.ar  170  PHE170     -0.0003
    126  CE2      -46.2440   61.3780  -40.3210 C.ar  170  PHE170     -0.0003
    127  CZ       -45.8920   60.9060  -41.5570 C.ar  170  PHE170     -0.0000
@<TRIPOS>BOND
     1     7     8    1
     2    10     9    2
     3     8    11    1
     4     8     9    1
     5     9    12   am
     6     2     1    1
     7     2     5    1
     8     2     3    1
     9    17    18    1
    10    17    16    1
    11     4     3    2
    12    19    18    2
    13    74    73    2
    14    18    20   am
    15     5     6    1
    16    81    79   ar
    17    81    80   ar
    18    12    13    1
    19    79    77   ar
    20    80    78   ar
    21    13    16    1
    22    13    14    1
    23    73    72    1
    24    82    83    1
    25    70    69    2
    26    77    76   ar
    27    78    76   ar
    28    76    75    1
    29    72    75    1
    30    72    71    1
    31    83    84    1
    32    14    21   am
    33    14    15    2
    34    69    71   am
    35    69    68    1
    36    21    22    1
    37   117   118    1
    38    84    85    2
    39    84    86   am
    40    68    67    1
    41    95    94    1
    42    96    94    1
    43   113   112    2
    44   125   123   ar
    45   125   127   ar
    46   123   122   ar
    47    94    93    2
    48    86    87    1
    49    24    23    2
    50   112   111    1
    51    22    25    1
    52    22    23    1
    53    27    26    1
    54    26    25    1
    55    26    28    1
    56    91    90    1
    57    91    92    1
    58    93    92    1
    59   127   126   ar
    60   118   121    1
    61   118   119    1
    62    23    29   am
    63   115   114    1
    64   122   121    1
    65   122   124   ar
    66    90    87    1
    67   119   120    2
    68   108   107    1
    69    87    88    1
    70   114   111    1
    71   114   116    1
    72    89    88    2
    73   111   110    1
    74    61    60    2
    75   126   124   ar
    76    88    97   am
    77    29    30    1
    78    29    35    1
    79   109   107    1
    80   107   106    1
    81    32    31    2
    82    31    30    1
    83    30    33    1
    84    60    59    1
    85    35    34    1
    86    97    98    1
    87    47    46    2
    88   106   103    1
    89    59    62    1
    90    59    58    1
    91    33    34    1
    92    98    99    1
    93    98   101    1
    94    99   102   am
    95    99   100    2
    96    46    58   am
    97    46    45    1
    98    62    63    1
    99   102   103    1
   100   103   104    1
   101    63    64    1
   102    45    48    1
   103    45    44    1
   104    65    64    2
   105    64    66   am
   106   104   105    2
   107    48    49    1
   108    50    49   ar
   109    50    52   ar
   110    49    51   ar
   111    39    38    2
   112    52    53   ar
   113    43    41   ar
   114    51    53   ar
   115    51    54   ar
   116    42    41   ar
   117    53    55   ar
   118    38    37    1
   119    41    40    1
   120    54    56   ar
   121    37    40    1
   122    37    36    1
   123    55    57   ar
   124    56    57   ar
