@<TRIPOS>MOLECULE
tmp/4b0jO00.pdb
 83 84 0 0 0
SMALL
GASTEIGER

@<TRIPOS>ATOM
      1  N         -4.6530   18.2870  216.4690 N.3    69  HIS69      -0.1241
      2  CA        -3.2850   18.4440  215.9720 C.3    69  HIS69       0.1621
      3  C         -3.2750   19.2710  214.7140 C.2    69  HIS69       0.2264
      4  O         -3.2440   18.7100  213.6210 O.2    69  HIS69      -0.2867
      5  CB        -2.7090   17.0650  215.6840 C.3    69  HIS69       0.0745
      6  CG        -1.2500   17.0720  215.3360 C.ar   69  HIS69       0.0817
      7  ND1       -0.8030   17.3190  214.0890 N.ar   69  HIS69      -0.2268
      8  CD2       -0.1280   16.8200  216.1170 C.ar   69  HIS69       0.1154
      9  CE1        0.5340   17.2520  214.0790 C.ar   69  HIS69       0.1986
     10  NE2        0.9470   16.9390  215.3170 N.ar   69  HIS69      -0.2212
     11  N         -3.4190   19.3490  210.7320 N.3    75  VAL75      -0.1231
     12  CA        -2.4430   18.6730  209.8800 C.3    75  VAL75       0.1692
     13  C         -2.1700   17.2600  210.4260 C.2    75  VAL75       0.2592
     14  O         -2.0010   17.0810  211.6320 O.2    75  VAL75      -0.2718
     15  CB        -1.1310   19.4770  209.8270 C.3    75  VAL75       0.0266
     16  CG1       -0.5450   19.6390  211.2170 C.3    75  VAL75       0.0020
     17  CG2       -0.1220   18.8150  208.9120 C.3    75  VAL75       0.0020
     18  N         -2.1480   16.2480  209.5570 N.am   76  MET76      -0.1966
     19  CA        -1.9330   14.8820  210.0390 C.3    76  MET76       0.1721
     20  C         -0.5800   14.8190  210.7330 C.2    76  MET76       0.2458
     21  O          0.4130   15.3000  210.1820 O.2    76  MET76      -0.2730
     22  CB        -1.9770   13.8560  208.9050 C.3    76  MET76       0.0427
     23  CG        -1.8750   12.4110  209.3780 C.3    76  MET76       0.0599
     24  SD        -2.0310   11.2070  208.0330 S.3    76  MET76      -0.1393
     25  CE        -0.5440   11.5230  207.0890 C.3    76  MET76       0.0692
     26  N         -0.5350   14.2150  211.9300 N.am   77  PRO77      -0.2716
     27  CA         0.7600   14.0390  212.5790 C.3    77  PRO77       0.1536
     28  C          1.6700   13.1260  211.7810 C.2    77  PRO77       0.2599
     29  O          1.2830   12.0130  211.4190 O.2    77  PRO77      -0.2715
     30  CB         0.4160   13.4120  213.9330 C.3    77  PRO77       0.0310
     31  CG        -1.0500   13.6240  214.1330 C.3    77  PRO77       0.0237
     32  CD        -1.6710   13.8530  212.7950 C.3    77  PRO77       0.0939
     33  N          2.8710   13.5970  211.4980 N.am   78  GLY78      -0.1955
     34  CA         3.8590   12.7900  210.7940 C.3    78  GLY78       0.1869
     35  C          4.1500   11.4890  211.5290 C.2    78  GLY78       0.2309
     36  O          4.4070   10.4700  210.9040 O.2    78  GLY78      -0.2863
     37  N         10.0480   14.5680  207.3000 N.3   112  PHE112     -0.1227
     38  CA         8.7420   15.0950  206.9450 C.3   112  PHE112      0.1736
     39  C          8.9810   16.4030  206.1910 C.2   112  PHE112      0.2595
     40  O          9.7000   17.2820  206.6750 O.2   112  PHE112     -0.2718
     41  CB         7.8940   15.3690  208.1930 C.3   112  PHE112      0.0547
     42  CG         7.7930   14.2160  209.1450 C.ar  112  PHE112     -0.0202
     43  CD1        7.4110   12.9720  208.7140 C.ar  112  PHE112     -0.0042
     44  CD2        8.0360   14.3940  210.4900 C.ar  112  PHE112     -0.0042
     45  CE1        7.2910   11.9120  209.6050 C.ar  112  PHE112     -0.0003
     46  CE2        7.9110   13.3400  211.3840 C.ar  112  PHE112     -0.0003
     47  CZ         7.5360   12.1010  210.9350 C.ar  112  PHE112     -0.0000
     48  N          8.4060   16.5220  205.0060 N.am  113  PHE113     -0.1962
     49  CA         8.6470   17.6820  204.1450 C.3   113  PHE113      0.1771
     50  C          7.4010   18.0700  203.3450 C.2   113  PHE113      0.2620
     51  O          7.4870   18.6500  202.2710 O.2   113  PHE113     -0.2715
     52  CB         9.8490   17.3960  203.2380 C.3   113  PHE113      0.0574
     53  CG         9.7840   16.0680  202.5580 C.ar  113  PHE113     -0.0200
     54  CD1        9.1030   15.9430  201.3600 C.ar  113  PHE113     -0.0042
     55  CD2       10.4030   14.9370  203.0980 C.ar  113  PHE113     -0.0042
     56  CE1        9.0120   14.7220  200.7120 C.ar  113  PHE113     -0.0003
     57  CE2       10.3190   13.7100  202.4500 C.ar  113  PHE113     -0.0003
     58  CZ         9.6290   13.6070  201.2510 C.ar  113  PHE113     -0.0000
     59  N          6.2370   17.7890  203.9200 N.am  114  GLY114     -0.1940
     60  CA         4.9670   18.0790  203.2790 C.3   114  GLY114      0.2014
     61  C          3.8220   17.7680  204.2230 C.2   114  GLY114      0.2638
     62  O          4.0130   17.0510  205.1960 O.2   114  GLY114     -0.2714
     63  N          2.6440   18.3120  203.9190 N.am  115  GLN115     -0.1977
     64  CA         1.4800   18.2600  204.8090 C.3   115  GLN115      0.1601
     65  C          0.3470   17.4100  204.2510 C.2   115  GLN115      0.2287
     66  O          0.0610   17.4540  203.0470 O.2   115  GLN115     -0.2864
     67  CB         0.9010   19.6600  204.9860 C.3   115  GLN115      0.0394
     68  CG         1.8270   20.6950  205.5970 C.3   115  GLN115      0.0908
     69  CD         1.0720   21.9270  206.0910 C.2   115  GLN115      0.2608
     70  OE1        1.2020   22.3200  207.2530 O.2   115  GLN115     -0.2717
     71  NE2        0.2590   22.5100  205.2250 N.am  115  GLN115     -0.0878
     72  N          6.5150   12.3670  203.2190 N.3   154  TYR154     -0.1241
     73  CA         7.3830   11.7880  204.2410 C.3   154  TYR154      0.1605
     74  C          8.2590   10.6840  203.6610 C.2   154  TYR154      0.2264
     75  O          7.8890   10.0210  202.6860 O.2   154  TYR154     -0.2867
     76  CB         6.5970   11.1590  205.3890 C.3   154  TYR154      0.0534
     77  CG         5.3880   11.8850  205.9490 C.ar  154  TYR154     -0.0201
     78  CD1        5.2720   13.2550  205.9430 C.ar  154  TYR154     -0.0009
     79  CD2        4.3660   11.1510  206.5430 C.ar  154  TYR154     -0.0009
     80  CE1        4.1490   13.8740  206.4840 C.ar  154  TYR154      0.0417
     81  CE2        3.2510   11.7560  207.0820 C.ar  154  TYR154      0.0417
     82  CZ         3.1410   13.1100  207.0530 C.ar  154  TYR154      0.1957
     83  OH         2.0290   13.6850  207.6190 O.3   154  TYR154     -0.2866
@<TRIPOS>BOND
     1    56    58   ar
     2    56    54   ar
     3    58    57   ar
     4    54    53   ar
     5    51    50    2
     6    57    55   ar
     7    53    55   ar
     8    53    52    1
     9    75    74    2
    10    66    65    2
    11    72    73    1
    12    52    49    1
    13    60    59    1
    14    60    61    1
    15    50    59   am
    16    50    49    1
    17    74    73    1
    18    63    61   am
    19    63    64    1
    20    49    48    1
    21    61    62    2
    22    73    76    1
    23    65    64    1
    24    64    67    1
    25    67    68    1
    26    48    39   am
    27    71    69   am
    28    76    77    1
    29    68    69    1
    30    78    77   ar
    31    78    80   ar
    32    77    79   ar
    33    69    70    2
    34    39    40    2
    35    39    38    1
    36    80    82   ar
    37    79    81   ar
    38    38    37    1
    39    38    41    1
    40    82    81   ar
    41    82    83    1
    42    25    24    1
    43    24    23    1
    44    41    42    1
    45    43    42   ar
    46    43    45   ar
    47    22    23    1
    48    22    19    1
    49    17    15    1
    50    42    44   ar
    51    18    19    1
    52    18    13   am
    53    45    47   ar
    54    15    12    1
    55    15    16    1
    56    12    13    1
    57    12    11    1
    58    19    20    1
    59    21    20    2
    60    13    14    2
    61    44    46   ar
    62    20    26   am
    63    34    33    1
    64    34    35    1
    65    36    35    2
    66    47    46   ar
    67    29    28    2
    68    33    28   am
    69    28    27    1
    70    26    27    1
    71    26    32    1
    72    27    30    1
    73    32    31    1
    74     4     3    2
    75    30    31    1
    76     9     7   ar
    77     9    10   ar
    78     7     6   ar
    79     3     2    1
    80    10     8   ar
    81     6     5    1
    82     6     8   ar
    83     5     2    1
    84     2     1    1
