@<TRIPOS>MOLECULE
tmp/4b0oA03.pdb
 122 122 0 0 0
SMALL
GASTEIGER

@<TRIPOS>ATOM
      1  N        -22.6440  -47.0330  -29.1750 N.3    68  ASP68      -0.1239
      2  CA       -22.9710  -47.5860  -27.8530 C.3    68  ASP68       0.1674
      3  C        -24.1880  -48.5390  -27.9260 C.2    68  ASP68       0.2266
      4  O        -25.3260  -48.0990  -28.1280 O.2    68  ASP68      -0.2867
      5  CB       -23.2330  -46.4570  -26.8450 C.3    68  ASP68       0.1410
      6  CG       -23.6400  -46.9750  -25.4610 C.2    68  ASP68       0.3668
      7  OD1      -23.3990  -48.1690  -25.1450 O.co2  68  ASP68      -0.2456
      8  OD2      -24.2070  -46.1790  -24.6780 O.co2  68  ASP68      -0.2456
      9  N        -31.6840  -43.2200  -22.4640 N.3    76  GLY76      -0.1210
     10  CA       -30.5570  -42.6160  -21.7670 C.3    76  GLY76       0.1956
     11  C        -29.2440  -42.7660  -22.5170 C.2    76  GLY76       0.2612
     12  O        -28.4320  -41.8400  -22.5490 O.2    76  GLY76      -0.2717
     13  N        -29.0280  -43.9350  -23.1170 N.am   77  SER77      -0.1952
     14  CA       -27.8180  -44.1620  -23.9000 C.3    77  SER77       0.1924
     15  C        -28.0360  -43.7830  -25.3570 C.2    77  SER77       0.2314
     16  O        -27.1840  -43.1380  -25.9790 O.2    77  SER77      -0.2863
     17  CB       -27.3500  -45.6160  -23.7920 C.3    77  SER77       0.2116
     18  OG       -28.3800  -46.5360  -24.1220 O.3    77  SER77      -0.2180
     19  N        -27.4480  -40.4030  -27.4000 N.3    80  TRP80      -0.1241
     20  CA       -26.0920  -39.9500  -27.7370 C.3    80  TRP80       0.1605
     21  C        -25.5910  -40.6050  -29.0240 C.2    80  TRP80       0.2264
     22  O        -24.5890  -40.1740  -29.6040 O.2    80  TRP80      -0.2867
     23  CB       -25.1330  -40.2580  -26.5810 C.3    80  TRP80       0.0550
     24  CG       -25.5560  -39.6410  -25.2770 C.ar   80  TRP80       0.0003
     25  CD1      -26.1050  -40.2790  -24.1920 C.ar   80  TRP80       0.0946
     26  CD2      -25.4830  -38.2470  -24.9360 C.ar   80  TRP80       0.0152
     27  NE1      -26.3640  -39.3640  -23.1900 N.ar   80  TRP80      -0.2442
     28  CE2      -25.9920  -38.1190  -23.6170 C.ar   80  TRP80       0.0810
     29  CE3      -25.0270  -37.1080  -25.6020 C.ar   80  TRP80       0.0012
     30  CZ2      -26.0530  -36.8730  -22.9620 C.ar   80  TRP80       0.0191
     31  CZ3      -25.0890  -35.8800  -24.9560 C.ar   80  TRP80       0.0001
     32  CH2      -25.5980  -35.7720  -23.6440 C.ar   80  TRP80       0.0015
     33  N        -16.5020  -40.8920  -30.6260 N.3   118  THR118     -0.1218
     34  CA       -17.8970  -40.8440  -31.0730 C.3   118  THR118      0.1862
     35  C        -18.4170  -39.4030  -31.1040 C.2   118  THR118      0.2287
     36  O        -17.7120  -38.4690  -30.7010 O.2   118  THR118     -0.2866
     37  CB       -18.8260  -41.6700  -30.1430 C.3   118  THR118      0.1770
     38  OG1      -18.8360  -41.0680  -28.8430 O.3   118  THR118     -0.2211
     39  CG2      -18.3580  -43.1440  -30.0310 C.3   118  THR118      0.0375
     40  N        -13.8010  -47.7450  -19.0520 N.3   282  PRO282     -0.2116
     41  CA       -15.0010  -47.1240  -19.6320 C.3   282  PRO282      0.1372
     42  C        -14.7390  -45.7480  -20.2380 C.2   282  PRO282      0.2244
     43  O        -15.5590  -45.2780  -21.0280 O.2   282  PRO282     -0.2868
     44  CB       -15.9360  -47.0070  -18.4320 C.3   282  PRO282      0.0268
     45  CG       -15.5900  -48.2320  -17.6040 C.3   282  PRO282      0.0207
     46  CD       -14.0820  -48.3810  -17.7480 C.3   282  PRO282      0.0892
     47  N        -22.0820  -41.8840  -14.5700 N.3   325  ALA325     -0.1231
     48  CA       -22.4730  -42.4940  -15.8390 C.3   325  ALA325      0.1694
     49  C        -21.5220  -43.6120  -16.2640 C.2   325  ALA325      0.2592
     50  O        -21.9270  -44.5700  -16.9200 O.2   325  ALA325     -0.2718
     51  CB       -22.5680  -41.4370  -16.9290 C.3   325  ALA325      0.0304
     52  N        -20.2550  -43.4900  -15.8920 N.am  326  PHE326     -0.1976
     53  CA       -19.2540  -44.4280  -16.3860 C.3   326  PHE326      0.1639
     54  C        -19.2320  -45.7280  -15.6050 C.2   326  PHE326      0.2290
     55  O        -18.7140  -46.7300  -16.0900 O.2   326  PHE326     -0.2864
     56  CB       -17.8730  -43.7680  -16.4160 C.3   326  PHE326      0.0560
     57  CG       -17.8220  -42.5530  -17.2960 C.ar  326  PHE326     -0.0200
     58  CD1      -17.6440  -42.6870  -18.6710 C.ar  326  PHE326     -0.0042
     59  CD2      -17.9920  -41.2780  -16.7620 C.ar  326  PHE326     -0.0042
     60  CE1      -17.6140  -41.5680  -19.4970 C.ar  326  PHE326     -0.0003
     61  CE2      -17.9610  -40.1570  -17.5840 C.ar  326  PHE326     -0.0003
     62  CZ       -17.7730  -40.3040  -18.9540 C.ar  326  PHE326     -0.0000
     63  N        -20.8230  -48.9680  -17.1110 N.3   329  TYR329     -0.1241
     64  CA       -20.1790  -49.4720  -18.3220 C.3   329  TYR329      0.1605
     65  C        -18.9480  -50.3170  -17.9900 C.2   329  TYR329      0.2264
     66  O        -17.9690  -50.3130  -18.7420 O.2   329  TYR329     -0.2867
     67  CB       -19.7720  -48.3090  -19.2370 C.3   329  TYR329      0.0534
     68  CG       -20.9250  -47.6460  -19.9400 C.ar  329  TYR329     -0.0201
     69  CD1      -21.3720  -48.1170  -21.1650 C.ar  329  TYR329     -0.0009
     70  CD2      -21.5650  -46.5470  -19.3810 C.ar  329  TYR329     -0.0009
     71  CE1      -22.4260  -47.5180  -21.8210 C.ar  329  TYR329      0.0417
     72  CE2      -22.6260  -45.9350  -20.0320 C.ar  329  TYR329      0.0417
     73  CZ       -23.0500  -46.4290  -21.2520 C.ar  329  TYR329      0.1957
     74  OH       -24.0970  -45.8330  -21.9020 O.3   329  TYR329     -0.2866
     75  N        -32.1190  -41.9520  -16.6440 N.3   427  TRP427     -0.1241
     76  CA       -31.2110  -42.6830  -15.7690 C.3   427  TRP427      0.1605
     77  C        -31.6970  -42.6540  -14.3070 C.2   427  TRP427      0.2264
     78  O        -32.3950  -41.7150  -13.8990 O.2   427  TRP427     -0.2867
     79  CB       -29.8180  -42.0630  -15.8650 C.3   427  TRP427      0.0550
     80  CG       -29.1920  -42.1320  -17.2480 C.ar  427  TRP427      0.0003
     81  CD1      -29.1640  -41.1410  -18.1980 C.ar  427  TRP427      0.0946
     82  CD2      -28.4810  -43.2520  -17.8030 C.ar  427  TRP427      0.0152
     83  NE1      -28.4910  -41.5880  -19.3220 N.ar  427  TRP427     -0.2442
     84  CE2      -28.0610  -42.8620  -19.1100 C.ar  427  TRP427      0.0810
     85  CE3      -28.1620  -44.5290  -17.3380 C.ar  427  TRP427      0.0012
     86  CZ2      -27.3330  -43.7340  -19.9410 C.ar  427  TRP427      0.0191
     87  CZ3      -27.4500  -45.3870  -18.1630 C.ar  427  TRP427      0.0001
     88  CH2      -27.0380  -44.9840  -19.4540 C.ar  427  TRP427      0.0015
     89  N        -25.8620  -35.8530  -13.8340 N.3   434  MET434     -0.1230
     90  CA       -24.9220  -36.6210  -14.6470 C.3   434  MET434      0.1702
     91  C        -24.0830  -35.8160  -15.6370 C.2   434  MET434      0.2592
     92  O        -24.4760  -34.7300  -16.0910 O.2   434  MET434     -0.2718
     93  CB       -25.6560  -37.7320  -15.3990 C.3   434  MET434      0.0401
     94  CG       -26.1690  -38.8440  -14.5070 C.3   434  MET434      0.0596
     95  SD       -27.1860  -39.9880  -15.4570 S.3   434  MET434     -0.1393
     96  CE       -26.0020  -40.5870  -16.6700 C.3   434  MET434      0.0692
     97  N        -22.9190  -36.3790  -15.9600 N.am  435  HIS435     -0.1962
     98  CA       -22.0950  -35.9470  -17.0890 C.3   435  HIS435      0.1787
     99  C        -22.9660  -35.7710  -18.3370 C.2   435  HIS435      0.2621
    100  O        -23.6960  -36.6890  -18.7130 O.2   435  HIS435     -0.2715
    101  CB       -21.0440  -37.0260  -17.3580 C.3   435  HIS435      0.0785
    102  CG       -20.0880  -36.7040  -18.4550 C.ar  435  HIS435      0.0821
    103  ND1      -19.1450  -35.6880  -18.3620 N.ar  435  HIS435     -0.2267
    104  CD2      -19.8780  -37.2820  -19.6650 C.ar  435  HIS435      0.1154
    105  CE1      -18.4260  -35.6580  -19.4620 C.ar  435  HIS435      0.1986
    106  NE2      -18.8480  -36.6110  -20.2750 N.ar  435  HIS435     -0.2212
    107  N        -22.9070  -34.5930  -18.9580 N.am  436  GLY436     -0.1940
    108  CA       -23.5740  -34.3560  -20.2310 C.3   436  GLY436      0.2014
    109  C        -24.9850  -33.8070  -20.1340 C.2   436  GLY436      0.2638
    110  O        -25.5940  -33.4560  -21.1530 O.2   436  GLY436     -0.2714
    111  N        -25.5200  -33.7150  -18.9220 N.am  437  TYR437     -0.1973
    112  CA       -26.9200  -33.3150  -18.7860 C.3   437  TYR437      0.1639
    113  C        -27.1200  -31.8510  -18.4020 C.2   437  TYR437      0.2290
    114  O        -28.1960  -31.4500  -17.9620 O.2   437  TYR437     -0.2864
    115  CB       -27.7080  -34.3220  -17.9250 C.3   437  TYR437      0.0560
    116  CG       -27.9130  -35.6240  -18.6890 C.ar  437  TYR437     -0.0198
    117  CD1      -26.9380  -36.6200  -18.6830 C.ar  437  TYR437     -0.0009
    118  CD2      -29.0430  -35.8210  -19.4820 C.ar  437  TYR437     -0.0009
    119  CE1      -27.1020  -37.8020  -19.4110 C.ar  437  TYR437      0.0417
    120  CE2      -29.2210  -37.0040  -20.2120 C.ar  437  TYR437      0.0417
    121  CZ       -28.2440  -37.9850  -20.1710 C.ar  437  TYR437      0.1957
    122  OH       -28.4030  -39.1470  -20.8950 O.3   437  TYR437     -0.2866
@<TRIPOS>BOND
     1    35    34    1
     2    35    36    2
     3    34    33    1
     4    34    37    1
     5    37    39    1
     6    37    38    1
     7    22    21    2
     8     1     2    1
     9    21    20    1
    10     4     3    2
    11     3     2    1
    12     2     5    1
    13    20    19    1
    14    20    23    1
    15     5     6    1
    16    23    24    1
    17    16    15    2
    18    29    31   ar
    19    29    26   ar
    20     6     7   ar
    21     6     8   ar
    22    15    14    1
    23    24    26   ar
    24    24    25   ar
    25    31    32   ar
    26    26    28   ar
    27    25    27   ar
    28    18    17    1
    29    14    17    1
    30    14    13    1
    31    32    30   ar
    32    28    27   ar
    33    28    30   ar
    34    13    11   am
    35    12    11    2
    36    11    10    1
    37     9    10    1
    38    74    73    1
    39    71    73   ar
    40    71    69   ar
    41    73    72   ar
    42    69    68   ar
    43   110   109    2
    44    43    42    2
    45   122   121    1
    46   106   104   ar
    47   106   105   ar
    48    42    41    1
    49   108   109    1
    50   108   107    1
    51   120   121   ar
    52   120   118   ar
    53   121   119   ar
    54   109   111   am
    55    72    70   ar
    56    86    88   ar
    57    86    84   ar
    58    68    70   ar
    59    68    67    1
    60   104   102   ar
    61    41    40    1
    62    41    44    1
    63    60    62   ar
    64    60    58   ar
    65   118   116   ar
    66   105   103   ar
    67    88    87   ar
    68   119   117   ar
    69    83    84   ar
    70    83    81   ar
    71    67    64    1
    72    84    82   ar
    73    40    46    1
    74   107    99   am
    75    62    61   ar
    76   111   112    1
    77   112   113    1
    78   112   115    1
    79    66    65    2
    80   100    99    2
    81   116   117   ar
    82   116   115    1
    83    58    57   ar
    84   102   103   ar
    85   102   101    1
    86    44    45    1
    87   113   114    2
    88    99    98    1
    89    64    65    1
    90    64    63    1
    91    81    80   ar
    92    87    85   ar
    93    82    85   ar
    94    82    80   ar
    95    46    45    1
    96    61    59   ar
    97   101    98    1
    98    57    59   ar
    99    57    56    1
   100    80    79    1
   101    98    97    1
   102    51    48    1
   103    50    49    2
   104    96    95    1
   105    75    76    1
   106    56    53    1
   107    53    52    1
   108    53    54    1
   109    49    52   am
   110    49    48    1
   111    92    91    2
   112    55    54    2
   113    97    91   am
   114    79    76    1
   115    48    47    1
   116    76    77    1
   117    91    90    1
   118    95    94    1
   119    93    90    1
   120    93    94    1
   121    90    89    1
   122    77    78    2
