@<TRIPOS>MOLECULE
tmp/4b0pA00.pdb
 167 164 0 0 0
SMALL
GASTEIGER

@<TRIPOS>ATOM
      1  N         47.6620   21.2600   30.1480 N.3    68  ASP68      -0.1239
      2  CA        48.4670   21.4910   28.9720 C.3    68  ASP68       0.1674
      3  C         49.1470   22.8590   28.9950 C.2    68  ASP68       0.2266
      4  O         48.6090   23.9060   29.3670 O.2    68  ASP68      -0.2867
      5  CB        47.7980   21.1580   27.6390 C.3    68  ASP68       0.1410
      6  CG        48.8160   20.7370   26.5810 C.2    68  ASP68       0.3668
      7  OD1       49.3550   21.6260   25.9010 O.co2  68  ASP68      -0.2456
      8  OD2       49.1060   19.5290   26.4510 O.co2  68  ASP68      -0.2456
      9  N         44.2080   28.1940   24.4420 N.3    77  SER77      -0.1217
     10  CA        44.4270   26.9490   25.1650 C.3    77  SER77       0.1889
     11  C         44.1700   27.1240   26.6520 C.2    77  SER77       0.2288
     12  O         43.6150   26.2380   27.3000 O.2    77  SER77      -0.2866
     13  CB        45.8430   26.4100   24.9220 C.3    77  SER77       0.2089
     14  OG        46.8330   27.3610   25.2890 O.3    77  SER77      -0.2183
     15  N         40.8680   26.5530   28.7910 N.3    80  TRP80      -0.1227
     16  CA        40.4300   25.1980   29.1260 C.3    80  TRP80       0.1737
     17  C         41.0590   24.6670   30.4130 C.2    80  TRP80       0.2595
     18  O         40.5430   23.7240   31.0070 O.2    80  TRP80      -0.2718
     19  CB        40.7090   24.2350   27.9690 C.3    80  TRP80       0.0564
     20  CG        40.0630   24.6510   26.6880 C.ar   80  TRP80       0.0003
     21  CD1       40.6740   25.2030   25.5980 C.ar   80  TRP80       0.0946
     22  CD2       38.6670   24.5610   26.3650 C.ar   80  TRP80       0.0152
     23  NE1       39.7430   25.4550   24.6120 N.ar   80  TRP80      -0.2442
     24  CE2       38.5060   25.0710   25.0590 C.ar   80  TRP80       0.0810
     25  CE3       37.5390   24.0900   27.0510 C.ar   80  TRP80       0.0012
     26  CZ2       37.2620   25.1280   24.4260 C.ar   80  TRP80       0.0191
     27  CZ3       36.2980   24.1500   26.4220 C.ar   80  TRP80       0.0001
     28  CH2       36.1710   24.6670   25.1210 C.ar   80  TRP80       0.0015
     29  N         42.1620   25.2760   30.8420 N.am   81  ASN81      -0.1974
     30  CA        42.8310   24.8710   32.0770 C.3    81  ASN81       0.1688
     31  C         42.0160   25.2380   33.3110 C.2    81  ASN81       0.2292
     32  O         41.3200   26.2530   33.3110 O.2    81  ASN81      -0.2864
     33  CB        44.2160   25.5130   32.1800 C.3    81  ASN81       0.1181
     34  CG        45.0790   25.2320   30.9800 C.2    81  ASN81       0.2629
     35  OD1       44.8390   24.2820   30.2370 O.2    81  ASN81      -0.2716
     36  ND2       46.1050   26.0500   30.7860 N.am   81  ASN81      -0.0877
     37  N         33.8440   17.9010   29.0620 N.3   113  GLY113     -0.1210
     38  CA        34.8120   17.0360   28.4110 C.3   113  GLY113      0.1956
     39  C         36.2170   17.3040   28.9130 C.2   113  GLY113      0.2612
     40  O         36.4120   18.0280   29.8970 O.2   113  GLY113     -0.2717
     41  N         37.1980   16.7260   28.2240 N.am  114  GLY114     -0.1956
     42  CA        38.5920   16.8020   28.6280 C.3   114  GLY114      0.1869
     43  C         39.2900   15.4620   28.5000 C.2   114  GLY114      0.2309
     44  O         40.2540   15.1790   29.2160 O.2   114  GLY114     -0.2863
     45  N         41.2590   15.5230   31.8370 N.3   118  THR118     -0.1203
     46  CA        41.2210   16.9000   32.3040 C.3   118  THR118      0.1994
     47  C         39.7900   17.4110   32.3760 C.2   118  THR118      0.2618
     48  O         38.8500   16.7170   31.9970 O.2   118  THR118     -0.2717
     49  CB        42.0220   17.8430   31.3740 C.3   118  THR118      0.1784
     50  OG1       41.4320   17.8450   30.0670 O.3   118  THR118     -0.2211
     51  CG2       43.4770   17.4040   31.2700 C.3   118  THR118      0.0376
     52  N         39.6270   18.6350   32.8590 N.am  119  GLY119     -0.1956
     53  CA        38.3200   19.2560   32.8690 C.3   119  GLY119      0.1869
     54  C         37.9080   19.7650   34.2360 C.2   119  GLY119      0.2309
     55  O         38.3980   19.3020   35.2660 O.2   119  GLY119     -0.2863
     56  N         34.7640   26.4020   34.4470 N.3   123  LEU123     -0.1245
     57  CA        35.1610   27.1750   33.2700 C.3   123  LEU123      0.1561
     58  C         34.1250   28.2490   32.8990 C.2   123  LEU123      0.2260
     59  O         32.9140   28.0440   33.0470 O.2   123  LEU123     -0.2867
     60  CB        35.4200   26.2530   32.0710 C.3   123  LEU123      0.0270
     61  CG        36.5550   25.2340   32.2070 C.3   123  LEU123      0.0019
     62  CD1       36.9130   24.6220   30.8580 C.3   123  LEU123      0.0001
     63  CD2       37.7770   25.8700   32.8530 C.3   123  LEU123      0.0001
     64  N         31.2610   27.3690   30.6310 N.3   126  TYR126     -0.1241
     65  CA        30.2290   26.4950   31.1940 C.3   126  TYR126      0.1605
     66  C         29.3470   27.2170   32.2240 C.2   126  TYR126      0.2264
     67  O         28.6530   26.5690   33.0060 O.2   126  TYR126     -0.2867
     68  CB        30.8430   25.2780   31.8850 C.3   126  TYR126      0.0534
     69  CG        31.8390   24.4500   31.0890 C.ar  126  TYR126     -0.0201
     70  CD1       31.7220   24.2870   29.7140 C.ar  126  TYR126     -0.0009
     71  CD2       32.8910   23.8140   31.7350 C.ar  126  TYR126     -0.0009
     72  CE1       32.6390   23.5170   29.0090 C.ar  126  TYR126      0.0417
     73  CE2       33.8010   23.0520   31.0490 C.ar  126  TYR126      0.0417
     74  CZ        33.6760   22.9030   29.6910 C.ar  126  TYR126      0.1957
     75  OH        34.6020   22.1320   29.0320 O.3   126  TYR126     -0.2866
     76  N         29.9400   17.7390   26.3650 N.3   195  GLU195     -0.1245
     77  CA        30.7020   17.8780   25.1390 C.3   195  GLU195      0.1567
     78  C         31.9500   16.9930   25.1700 C.2   195  GLU195      0.2260
     79  O         32.5830   16.8280   26.2130 O.2   195  GLU195     -0.2867
     80  CB        31.0690   19.3470   24.9070 C.3   195  GLU195      0.0388
     81  CG        31.7280   19.6270   23.5700 C.3   195  GLU195      0.1160
     82  CD        33.2440   19.5520   23.6350 C.2   195  GLU195      0.3649
     83  OE1       33.7860   19.4810   24.7580 O.co2 195  GLU195     -0.2457
     84  OE2       33.8990   19.5720   22.5700 O.co2 195  GLU195     -0.2457
     85  N         47.8430   12.6390   20.1360 N.3   282  PRO282     -0.2116
     86  CA        47.2510   13.8510   20.7120 C.3   282  PRO282      0.1372
     87  C         45.8770   13.6100   21.3290 C.2   282  PRO282      0.2244
     88  O         45.4770   14.3340   22.2400 O.2   282  PRO282     -0.2868
     89  CB        47.1350   14.7690   19.4990 C.3   282  PRO282      0.0268
     90  CG        48.3450   14.4200   18.7030 C.3   282  PRO282      0.0207
     91  CD        48.4840   12.9200   18.8400 C.3   282  PRO282      0.0892
     92  N         42.0860   21.2130   15.9080 N.3   325  ALA325     -0.1231
     93  CA        42.7030   21.5590   17.1910 C.3   325  ALA325      0.1694
     94  C         43.8610   20.6400   17.5470 C.2   325  ALA325      0.2592
     95  O         44.8790   21.0790   18.0870 O.2   325  ALA325     -0.2718
     96  CB        41.6640   21.5410   18.3030 C.3   325  ALA325      0.0304
     97  N         43.6960   19.3620   17.2340 N.am  326  PHE326     -0.1976
     98  CA        44.6490   18.3380   17.6310 C.3   326  PHE326      0.1639
     99  C         45.9190   18.3680   16.8000 C.2   326  PHE326      0.2290
    100  O         46.9690   17.9120   17.2470 O.2   326  PHE326     -0.2864
    101  CB        43.9690   16.9710   17.5720 C.3   326  PHE326      0.0560
    102  CG        42.7750   16.8830   18.4700 C.ar  326  PHE326     -0.0200
    103  CD1       42.9300   16.5380   19.8010 C.ar  326  PHE326     -0.0042
    104  CD2       41.5120   17.2120   18.0070 C.ar  326  PHE326     -0.0042
    105  CE1       41.8480   16.4890   20.6440 C.ar  326  PHE326     -0.0003
    106  CE2       40.4200   17.1640   18.8510 C.ar  326  PHE326     -0.0003
    107  CZ        40.5890   16.8020   20.1740 C.ar  326  PHE326     -0.0000
    108  N         49.0840   19.7890   18.1480 N.3   329  TYR329     -0.1241
    109  CA        49.5840   19.1040   19.3330 C.3   329  TYR329      0.1605
    110  C         50.3910   17.8620   18.9780 C.2   329  TYR329      0.2264
    111  O         50.3920   16.8830   19.7210 O.2   329  TYR329     -0.2867
    112  CB        48.4410   18.7410   20.2810 C.3   329  TYR329      0.0534
    113  CG        47.9260   19.9180   21.0730 C.ar  329  TYR329     -0.0201
    114  CD1       46.9580   20.7640   20.5470 C.ar  329  TYR329     -0.0009
    115  CD2       48.4070   20.1840   22.3480 C.ar  329  TYR329     -0.0009
    116  CE1       46.4900   21.8450   21.2670 C.ar  329  TYR329      0.0417
    117  CE2       47.9470   21.2600   23.0760 C.ar  329  TYR329      0.0417
    118  CZ        46.9810   22.0860   22.5320 C.ar  329  TYR329      0.1957
    119  OH        46.5150   23.1590   23.2560 O.3   329  TYR329     -0.2866
    120  N         42.2320   31.3000   17.9790 N.3   427  TRP427     -0.1241
    121  CA        42.9950   30.3990   17.1220 C.3   427  TRP427      0.1605
    122  C         42.9540   30.8940   15.6770 C.2   427  TRP427      0.2264
    123  O         41.9940   31.5500   15.2810 O.2   427  TRP427     -0.2867
    124  CB        42.4130   28.9870   17.1970 C.3   427  TRP427      0.0550
    125  CG        42.4610   28.3270   18.5450 C.ar  427  TRP427      0.0003
    126  CD1       41.4670   28.2900   19.4830 C.ar  427  TRP427      0.0946
    127  CD2       43.5530   27.5740   19.0970 C.ar  427  TRP427      0.0152
    128  NE1       41.8710   27.5710   20.5840 N.ar  427  TRP427     -0.2442
    129  CE2       43.1510   27.1260   20.3730 C.ar  427  TRP427      0.0810
    130  CE3       44.8340   27.2420   18.6400 C.ar  427  TRP427      0.0012
    131  CZ2       43.9830   26.3650   21.1950 C.ar  427  TRP427      0.0191
    132  CZ3       45.6550   26.4860   19.4560 C.ar  427  TRP427      0.0001
    133  CH2       45.2260   26.0590   20.7190 C.ar  427  TRP427      0.0015
    134  N         36.1450   25.0640   15.2500 N.3   434  MET434     -0.1230
    135  CA        36.8980   24.1140   16.0480 C.3   434  MET434      0.1702
    136  C         36.0820   23.3150   17.0380 C.2   434  MET434      0.2592
    137  O         35.0270   23.7520   17.5080 O.2   434  MET434     -0.2718
    138  CB        38.0180   24.8320   16.7950 C.3   434  MET434      0.0401
    139  CG        39.0850   25.4210   15.8930 C.3   434  MET434      0.0596
    140  SD        40.3200   26.3100   16.8460 S.3   434  MET434     -0.1393
    141  CE        40.8070   25.0610   18.0370 C.3   434  MET434      0.0692
    142  N         36.6020   22.1240   17.3220 N.am  435  HIS435     -0.1962
    143  CA        36.1890   21.3080   18.4500 C.3   435  HIS435      0.1787
    144  C         36.1000   22.1660   19.7050 C.2   435  HIS435      0.2621
    145  O         37.0390   22.8820   20.0380 O.2   435  HIS435     -0.2715
    146  CB        37.2330   20.2060   18.6470 C.3   435  HIS435      0.0785
    147  CG        36.9690   19.3030   19.8060 C.ar  435  HIS435      0.0821
    148  ND1       35.9340   18.3830   19.8200 N.ar  435  HIS435     -0.2267
    149  CD2       37.6160   19.1520   20.9870 C.ar  435  HIS435      0.1154
    150  CE1       35.9530   17.7230   20.9590 C.ar  435  HIS435      0.1986
    151  NE2       36.9690   18.1660   21.6870 N.ar  435  HIS435     -0.2212
    152  N         34.9630   22.1100   20.3880 N.am  436  GLY436     -0.1940
    153  CA        34.7940   22.8050   21.6500 C.3   436  GLY436      0.2014
    154  C         34.1310   24.1710   21.5520 C.2   436  GLY436      0.2638
    155  O         33.6860   24.7300   22.5530 O.2   436  GLY436     -0.2714
    156  N         34.0530   24.7160   20.3450 N.am  437  TYR437     -0.1973
    157  CA        33.6630   26.1140   20.2050 C.3   437  TYR437      0.1639
    158  C         32.2180   26.3650   19.7810 C.2   437  TYR437      0.2290
    159  O         31.8780   27.4460   19.3070 O.2   437  TYR437     -0.2864
    160  CB        34.6820   26.8670   19.3460 C.3   437  TYR437      0.0560
    161  CG        35.9710   27.0210   20.1050 C.ar  437  TYR437     -0.0198
    162  CD1       36.1320   28.0470   21.0170 C.ar  437  TYR437     -0.0009
    163  CD2       37.0010   26.0900   19.9730 C.ar  437  TYR437     -0.0009
    164  CE1       37.2930   28.1860   21.7400 C.ar  437  TYR437      0.0417
    165  CE2       38.1700   26.2130   20.7000 C.ar  437  TYR437      0.0417
    166  CZ        38.3100   27.2670   21.5820 C.ar  437  TYR437      0.1957
    167  OH        39.4610   27.4150   22.3210 O.3   437  TYR437     -0.2866
@<TRIPOS>BOND
     1   134   135    1
     2   123   122    2
     3   122   121    1
     4   139   138    1
     5   139   140    1
     6    92    93    1
     7   135   138    1
     8   135   136    1
     9    99   100    2
    10    99    98    1
    11   140   141    1
    12   136   142   am
    13   136   137    2
    14   121   124    1
    15   121   120    1
    16    93    94    1
    17    93    96    1
    18   124   125    1
    19    97    94   am
    20    97    98    1
    21   142   143    1
    22    94    95    2
    23   101    98    1
    24   101   102    1
    25   104   102   ar
    26   104   106   ar
    27   108   109    1
    28   143   146    1
    29   143   144    1
    30   102   103   ar
    31   125   127   ar
    32   125   126   ar
    33   130   127   ar
    34   130   132   ar
    35   146   147    1
    36    90    91    1
    37    90    89    1
    38    91    85    1
    39   106   107   ar
    40   110   109    1
    41   110   111    2
    42   127   129   ar
    43   159   158    2
    44   109   112    1
    45   160   161    1
    46   160   157    1
    47   132   133   ar
    48   126   128   ar
    49    89    86    1
    50   144   145    2
    51   144   152   am
    52   158   157    1
    53   103   105   ar
    54   147   148   ar
    55   147   149   ar
    56   148   150   ar
    57   163   161   ar
    58   163   165   ar
    59   161   162   ar
    60    85    86    1
    61   107   105   ar
    62   157   156    1
    63   112   113    1
    64   156   154   am
    65   129   128   ar
    66   129   131   ar
    67   152   153    1
    68   114   113   ar
    69   114   116   ar
    70   165   166   ar
    71    86    87    1
    72   133   131   ar
    73   150   151   ar
    74   149   151   ar
    75   162   164   ar
    76   113   115   ar
    77   116   118   ar
    78    87    88    2
    79   154   153    1
    80   154   155    2
    81   166   164   ar
    82   166   167    1
    83   115   117   ar
    84   118   117   ar
    85   118   119    1
    86    84    82   ar
    87    81    82    1
    88    81    80    1
    89    82    83   ar
    90    26    24   ar
    91    26    28   ar
    92     9    10    1
    93    23    24   ar
    94    23    21   ar
    95    80    77    1
    96    13    10    1
    97    13    14    1
    98    24    22   ar
    99    28    27   ar
   100    77    78    1
   101    77    76    1
   102    10    11    1
   103    78    79    2
   104    21    20   ar
   105     7     6   ar
   106    22    20   ar
   107    22    25   ar
   108    27    25   ar
   109     8     6   ar
   110     6     5    1
   111    11    12    2
   112    20    19    1
   113     5     2    1
   114    19    16    1
   115    41    42    1
   116    41    39   am
   117    38    39    1
   118    38    37    1
   119    43    42    1
   120    43    44    2
   121    15    16    1
   122    39    40    2
   123     2     3    1
   124     2     1    1
   125     3     4    2
   126    72    74   ar
   127    72    70   ar
   128    75    74    1
   129    16    17    1
   130    74    73   ar
   131    70    69   ar
   132    50    49    1
   133    35    34    2
   134    17    29   am
   135    17    18    2
   136    64    65    1
   137    36    34   am
   138    29    30    1
   139    62    61    1
   140    34    33    1
   141    73    71   ar
   142    69    71   ar
   143    69    68    1
   144    65    68    1
   145    65    66    1
   146    51    49    1
   147    49    46    1
   148    45    46    1
   149    48    47    2
   150    60    61    1
   151    60    57    1
   152    30    33    1
   153    30    31    1
   154    61    63    1
   155    66    67    2
   156    46    47    1
   157    47    52   am
   158    52    53    1
   159    53    54    1
   160    58    59    2
   161    58    57    1
   162    57    56    1
   163    32    31    2
   164    54    55    2
