@<TRIPOS>MOLECULE
tmp/4b0qA00.pdb
 198 190 0 0 0
SMALL
GASTEIGER

@<TRIPOS>ATOM
      1  N         -0.8190   -7.9990  -14.5970 N.3    10  SER10      -0.1202
      2  CA        -0.1490   -6.7850  -14.1120 C.3    10  SER10       0.2020
      3  C          1.3230   -6.7650  -14.5000 C.2    10  SER10       0.2619
      4  O          1.8350   -5.7100  -14.8480 O.2    10  SER10      -0.2717
      5  CB        -0.2800   -6.6760  -12.6030 C.3    10  SER10       0.2103
      6  OG         0.3340   -7.8060  -11.9970 O.3    10  SER10      -0.2182
      7  N          1.9790   -7.9360  -14.4370 N.am   11  GLY11      -0.1942
      8  CA         3.3940   -8.0750  -14.7290 C.3    11  GLY11       0.2014
      9  C          3.7990   -7.8120  -16.1640 C.2    11  GLY11       0.2639
     10  O          4.9130   -7.3410  -16.4050 O.2    11  GLY11      -0.2714
     11  N          2.9220   -8.1360  -17.1230 N.am   12  GLN12      -0.1963
     12  CA         3.2520   -8.0340  -18.5480 C.3    12  GLN12       0.1733
     13  C          2.3970   -7.0750  -19.3260 C.2    12  GLN12       0.2617
     14  O          2.7510   -6.7050  -20.4470 O.2    12  GLN12      -0.2715
     15  CB         3.3270   -9.4230  -19.2080 C.3    12  GLN12       0.0408
     16  CG         4.5050  -10.3110  -18.7000 C.3    12  GLN12       0.0908
     17  CD         4.3410  -10.8770  -17.2900 C.2    12  GLN12       0.2608
     18  OE1        3.2300  -11.1710  -16.8220 O.2    12  GLN12      -0.2717
     19  NE2        5.4490  -11.0130  -16.5610 N.am   12  GLN12      -0.0878
     20  N          1.3160   -6.6310  -18.7100 N.am   13  GLY13      -0.1940
     21  CA         0.4540   -5.6290  -19.3190 C.3    13  GLY13       0.2014
     22  C         -0.8730   -6.1680  -19.8020 C.2    13  GLY13       0.2638
     23  O         -0.9770   -7.3340  -20.1960 O.2    13  GLY13      -0.2714
     24  N         -1.9010   -5.3110  -19.7450 N.am   14  TYR14      -0.1973
     25  CA        -3.2250   -5.6790  -20.2090 C.3    14  TYR14       0.1639
     26  C         -3.3280   -5.1570  -21.6210 C.2    14  TYR14       0.2290
     27  O         -2.7640   -4.1060  -21.9230 O.2    14  TYR14      -0.2864
     28  CB        -4.3070   -5.0760  -19.3130 C.3    14  TYR14       0.0560
     29  CG        -4.4680   -5.8070  -17.9920 C.ar   14  TYR14      -0.0198
     30  CD1       -5.3370   -6.8840  -17.8720 C.ar   14  TYR14      -0.0009
     31  CD2       -3.7330   -5.4340  -16.8720 C.ar   14  TYR14      -0.0009
     32  CE1       -5.4980   -7.5520  -16.6610 C.ar   14  TYR14       0.0417
     33  CE2       -3.8820   -6.0970  -15.6530 C.ar   14  TYR14       0.0417
     34  CZ        -4.7910   -7.1350  -15.5470 C.ar   14  TYR14       0.1957
     35  OH        -4.9760   -7.7950  -14.3640 O.3    14  TYR14      -0.2866
     36  N         -1.2150   -2.8350  -25.8570 N.3    30  LEU30      -0.1245
     37  CA        -1.1780   -2.5060  -24.4120 C.3    30  LEU30       0.1561
     38  C         -2.0180   -1.2850  -24.1060 C.2    30  LEU30       0.2260
     39  O         -1.8260   -0.2390  -24.7090 O.2    30  LEU30      -0.2867
     40  CB         0.2650   -2.2220  -23.9720 C.3    30  LEU30       0.0270
     41  CG         0.4410   -1.8680  -22.4700 C.3    30  LEU30       0.0019
     42  CD1        0.5270   -3.1080  -21.6350 C.3    30  LEU30       0.0001
     43  CD2        1.6700   -1.0430  -22.2580 C.3    30  LEU30       0.0001
     44  N         -2.4220    1.6060  -21.9700 N.3    32  ASP32      -0.1239
     45  CA        -1.5120    2.4400  -21.1880 C.3    32  ASP32       0.1674
     46  C         -2.0620    3.8530  -20.8630 C.2    32  ASP32       0.2266
     47  O         -2.0100    4.7660  -21.6940 O.2    32  ASP32      -0.2867
     48  CB        -0.1550    2.5260  -21.9240 C.3    32  ASP32       0.1410
     49  CG         0.9580    3.1550  -21.1080 C.2    32  ASP32       0.3668
     50  OD1        0.7370    3.4180  -19.8890 O.co2  32  ASP32      -0.2456
     51  OD2        2.0640    3.3440  -21.6620 O.co2  32  ASP32      -0.2456
     52  N         -0.6580    5.7280  -18.7740 N.3    34  GLY34      -0.1210
     53  CA         0.5240    6.4870  -18.3800 C.3    34  GLY34       0.1956
     54  C          1.3410    7.0630  -19.5230 C.2    34  GLY34       0.2612
     55  O          2.4350    7.5640  -19.2960 O.2    34  GLY34      -0.2717
     56  N          0.8110    7.0510  -20.7440 N.am   35  SER35      -0.1952
     57  CA         1.4900    7.5710  -21.9430 C.3    35  SER35       0.1924
     58  C          0.4600    8.0240  -22.9700 C.2    35  SER35       0.2314
     59  O         -0.7070    7.7290  -22.7960 O.2    35  SER35      -0.2863
     60  CB         2.4670    6.5320  -22.5160 C.3    35  SER35       0.2116
     61  OG         1.8380    5.4890  -23.2450 O.3    35  SER35      -0.2180
     62  N          1.0850    8.1690  -26.8050 N.3    37  ASN37      -0.1240
     63  CA         1.2800    7.8460  -28.2240 C.3    37  ASN37       0.1653
     64  C          0.6710    6.4960  -28.5260 C.2    37  ASN37       0.2266
     65  O          0.7520    5.5740  -27.6980 O.2    37  ASN37      -0.2867
     66  CB         2.7480    7.7410  -28.5830 C.3    37  ASN37       0.1155
     67  CG         3.4460    9.0470  -28.6660 C.2    37  ASN37       0.2627
     68  OD1        3.9670    9.5530  -27.6760 O.2    37  ASN37      -0.2716
     69  ND2        3.5210    9.5870  -29.8650 N.am   37  ASN37      -0.0877
     70  N         12.2700    8.0400  -28.5770 N.3    69  VAL69      -0.1245
     71  CA        11.8420    8.0450  -27.1780 C.3    69  VAL69       0.1561
     72  C         12.7680    7.2880  -26.2370 C.2    69  VAL69       0.2260
     73  O         12.4790    6.1350  -25.8800 O.2    69  VAL69      -0.2867
     74  CB        10.3320    7.7010  -26.9660 C.3    69  VAL69       0.0252
     75  CG1        9.9090    7.9360  -25.5050 C.3    69  VAL69       0.0019
     76  CG2        9.4410    8.5000  -27.9200 C.3    69  VAL69       0.0019
     77  N         13.8510    6.4300  -22.5880 N.3    71  TYR71      -0.1241
     78  CA        13.2800    6.5090  -21.2420 C.3    71  TYR71       0.1605
     79  C         14.2260    5.8140  -20.2460 C.2    71  TYR71       0.2264
     80  O         15.2730    5.3150  -20.6650 O.2    71  TYR71      -0.2867
     81  CB        11.8060    6.0400  -21.1860 C.3    71  TYR71       0.0534
     82  CG        11.5700    4.6480  -21.7220 C.ar   71  TYR71      -0.0201
     83  CD1       11.3020    4.4340  -23.0720 C.ar   71  TYR71      -0.0009
     84  CD2       11.5850    3.5440  -20.8770 C.ar   71  TYR71      -0.0009
     85  CE1       11.1020    3.1510  -23.5740 C.ar   71  TYR71       0.0417
     86  CE2       11.3760    2.2560  -21.3670 C.ar   71  TYR71       0.0417
     87  CZ        11.1370    2.0650  -22.7170 C.ar   71  TYR71       0.1957
     88  OH        10.9420    0.7940  -23.1920 O.3    71  TYR71      -0.2866
     89  N         14.3020    2.9100  -18.3890 N.3    73  GLN73      -0.1245
     90  CA        14.6520    1.5040  -18.6160 C.3    73  GLN73       0.1566
     91  C         15.0310    1.0760  -20.0580 C.2    73  GLN73       0.2260
     92  O         15.6150    0.0000  -20.2370 O.2    73  GLN73      -0.2867
     93  CB        13.6930    0.5240  -17.9120 C.3    73  GLN73       0.0367
     94  CG        12.2720    0.4940  -18.4590 C.3    73  GLN73       0.0905
     95  CD        11.7240   -0.9100  -18.4610 C.2    73  GLN73       0.2608
     96  OE1       12.1140   -1.7580  -19.2780 O.2    73  GLN73      -0.2717
     97  NE2       10.7910   -1.1830  -17.5570 N.am   73  GLN73      -0.0878
     98  N         12.5270    3.4940  -27.6350 N.3    76  TRP76      -0.1241
     99  CA        11.7820    3.1810  -28.8540 C.3    76  TRP76       0.1605
    100  C         11.9270    4.3420  -29.8260 C.2    76  TRP76       0.2264
    101  O         12.0760    5.4970  -29.4290 O.2    76  TRP76      -0.2867
    102  CB        10.3020    2.7810  -28.6240 C.3    76  TRP76       0.0550
    103  CG         9.3610    3.8530  -28.1190 C.ar   76  TRP76       0.0003
    104  CD1        9.0030    4.0670  -26.8190 C.ar   76  TRP76       0.0946
    105  CD2        8.5030    4.7010  -28.9150 C.ar   76  TRP76       0.0152
    106  NE1        8.0510    5.0620  -26.7440 N.ar   76  TRP76      -0.2442
    107  CE2        7.7060    5.4510  -28.0170 C.ar   76  TRP76       0.0810
    108  CE3        8.3760    4.9460  -30.2960 C.ar   76  TRP76       0.0012
    109  CZ2        6.7770    6.4070  -28.4560 C.ar   76  TRP76       0.0191
    110  CZ3        7.4800    5.9100  -30.7300 C.ar   76  TRP76       0.0001
    111  CH2        6.6900    6.6290  -29.8200 C.ar   76  TRP76       0.0015
    112  N         14.6720   -2.7950  -24.8870 N.3   107  LYS107     -0.1231
    113  CA        13.9460   -3.2030  -23.6720 C.3   107  LYS107      0.1693
    114  C         12.5250   -2.5990  -23.6020 C.2   107  LYS107      0.2592
    115  O         12.1340   -2.0570  -22.5730 O.2   107  LYS107     -0.2718
    116  CB        14.7870   -2.8860  -22.4020 C.3   107  LYS107      0.0285
    117  CG        16.0060   -3.7840  -22.2420 C.3   107  LYS107      0.0035
    118  CD        17.0730   -3.1550  -21.3560 C.3   107  LYS107      0.0206
    119  CE        18.2680   -4.0610  -21.1560 C.3   107  LYS107      0.1093
    120  NZ        19.1150   -4.1660  -22.3780 N.3   107  LYS107     -0.1314
    121  N         11.7760   -2.6480  -24.7260 N.am  108  PHE108     -0.1976
    122  CA        10.4140   -2.1010  -24.8140 C.3   108  PHE108      0.1639
    123  C          9.4050   -3.2590  -24.8620 C.2   108  PHE108      0.2290
    124  O          8.5480   -3.3970  -23.9690 O.2   108  PHE108     -0.2864
    125  CB        10.2990   -1.1700  -26.0400 C.3   108  PHE108      0.0560
    126  CG         8.9420   -0.5450  -26.2620 C.ar  108  PHE108     -0.0200
    127  CD1        8.5850    0.6310  -25.6160 C.ar  108  PHE108     -0.0042
    128  CD2        8.0380   -1.1060  -27.1550 C.ar  108  PHE108     -0.0042
    129  CE1        7.3360    1.2220  -25.8460 C.ar  108  PHE108     -0.0003
    130  CE2        6.7790   -0.5280  -27.3650 C.ar  108  PHE108     -0.0003
    131  CZ         6.4600    0.6560  -26.7460 C.ar  108  PHE108     -0.0000
    132  N          8.1800   -7.0840  -24.5190 N.3   110  ILE110     -0.1245
    133  CA         8.3580   -8.1200  -23.4890 C.3   110  ILE110      0.1561
    134  C          8.0740   -9.4970  -24.0860 C.2   110  ILE110      0.2260
    135  O          7.0500   -9.6790  -24.7460 O.2   110  ILE110     -0.2867
    136  CB         7.4450   -7.8170  -22.2630 C.3   110  ILE110      0.0252
    137  CG1        7.9160   -6.5560  -21.5260 C.3   110  ILE110      0.0019
    138  CG2        7.3470   -9.0250  -21.2800 C.3   110  ILE110      0.0019
    139  CD1        6.8930   -5.6600  -21.2380 C.3   110  ILE110      0.0001
    140  N          1.5020   -8.7310  -26.7890 N.3   115  TRP115     -0.1241
    141  CA         1.1140   -7.4260  -27.3800 C.3   115  TRP115      0.1605
    142  C          2.1980   -6.8880  -28.3230 C.2   115  TRP115      0.2264
    143  O          3.3710   -7.2330  -28.1750 O.2   115  TRP115     -0.2867
    144  CB         0.6460   -6.3660  -26.3690 C.3   115  TRP115      0.0550
    145  CG         1.5610   -6.1040  -25.2130 C.ar  115  TRP115      0.0003
    146  CD1        1.4060   -6.5670  -23.9340 C.ar  115  TRP115      0.0946
    147  CD2        2.6430   -5.1570  -25.1710 C.ar  115  TRP115      0.0152
    148  NE1        2.3830   -6.0400  -23.1200 N.ar  115  TRP115     -0.2442
    149  CE2        3.1350   -5.1440  -23.8440 C.ar  115  TRP115      0.0810
    150  CE3        3.2820   -4.3590  -26.1410 C.ar  115  TRP115      0.0012
    151  CZ2        4.2340   -4.3640  -23.4580 C.ar  115  TRP115      0.0191
    152  CZ3        4.3330   -3.5370  -25.7500 C.ar  115  TRP115      0.0001
    153  CH2        4.8390   -3.5810  -24.4430 C.ar  115  TRP115      0.0015
    154  N          1.3870   -0.0900  -28.1480 N.3   118  ILE118     -0.1245
    155  CA         0.8300    0.5680  -26.9650 C.3   118  ILE118      0.1561
    156  C         -0.1930    1.6090  -27.3780 C.2   118  ILE118      0.2260
    157  O          0.0290    2.3710  -28.3280 O.2   118  ILE118     -0.2867
    158  CB         2.0020    1.2000  -26.1300 C.3   118  ILE118      0.0252
    159  CG1        2.9050    0.1000  -25.5290 C.3   118  ILE118      0.0019
    160  CG2        1.5370    2.2250  -25.0660 C.3   118  ILE118      0.0019
    161  CD1        3.9440    0.6220  -24.5950 C.3   118  ILE118      0.0001
    162  N         -1.8000    4.8180  -13.4740 N.3   215  ASP215     -0.1225
    163  CA        -1.1210    4.3120  -14.6630 C.3   215  ASP215      0.1805
    164  C         -1.2870    2.8230  -14.9040 C.2   215  ASP215      0.2598
    165  O         -0.5880    2.0230  -14.2730 O.2   215  ASP215     -0.2718
    166  CB         0.3530    4.6820  -14.5800 C.3   215  ASP215      0.1424
    167  CG         1.2540    4.2280  -15.7260 C.2   215  ASP215      0.3668
    168  OD1        0.7140    3.7840  -16.7800 O.co2 215  ASP215     -0.2456
    169  OD2        2.4720    4.4530  -15.6350 O.co2 215  ASP215     -0.2456
    170  N         -2.1270    2.4550  -15.9120 N.am  216  SER216     -0.1938
    171  CA        -2.3520    1.0290  -16.2460 C.3   216  SER216      0.2055
    172  C         -1.0990    0.3620  -16.8910 C.2   216  SER216      0.2644
    173  O         -0.9980   -0.8720  -16.9310 O.2   216  SER216     -0.2714
    174  CB        -3.5780    0.8880  -17.1400 C.3   216  SER216      0.2130
    175  OG        -3.3670    1.5510  -18.3720 O.3   216  SER216     -0.2179
    176  N         -0.1400    1.1860  -17.3250 N.am  217  GLY217     -0.1939
    177  CA         1.0950    0.7180  -17.9730 C.3   217  GLY217      0.2014
    178  C          2.2910    0.5930  -17.0430 C.2   217  GLY217      0.2640
    179  O          3.4260    0.4840  -17.5070 O.2   217  GLY217     -0.2714
    180  N          2.0450    0.6470  -15.7220 N.am  218  THR218     -0.1936
    181  CA         3.0450    0.3920  -14.6890 C.3   218  THR218      0.2028
    182  C          2.5120   -0.7640  -13.8450 C.2   218  THR218      0.2642
    183  O          1.3690   -0.7150  -13.4330 O.2   218  THR218     -0.2714
    184  CB         3.2850    1.6160  -13.8030 C.3   218  THR218      0.1808
    185  OG1        4.0390    2.5730  -14.5520 O.3   218  THR218     -0.2208
    186  CG2        4.0470    1.2540  -12.5130 C.3   218  THR218      0.0379
    187  N          3.3530   -1.7770  -13.5420 N.am  219  THR219     -0.1950
    188  CA         2.9100   -2.9160  -12.7230 C.3   219  THR219      0.1897
    189  C          2.5570   -2.5420  -11.2670 C.2   219  THR219      0.2313
    190  O          1.4460   -2.8040  -10.7730 O.2   219  THR219     -0.2863
    191  CB         3.9840   -4.0080  -12.7980 C.3   219  THR219      0.1794
    192  OG1        4.0360   -4.4930  -14.1420 O.3   219  THR219     -0.2208
    193  CG2        3.7070   -5.1800  -11.8640 C.3   219  THR219      0.0378
    194  N         -1.0620   -1.0900  -12.1070 N.3   322  ALA322     -0.1245
    195  CA        -1.9990   -2.1780  -12.3740 C.3   322  ALA322      0.1562
    196  C         -2.4080   -2.9860  -11.1670 C.2   322  ALA322      0.2260
    197  O         -3.5660   -3.3820  -11.0910 O.2   322  ALA322     -0.2867
    198  CB        -1.4860   -3.0790  -13.4910 C.3   322  ALA322      0.0290
@<TRIPOS>BOND
     1   110   108   ar
     2   110   111   ar
     3   108   105   ar
     4    69    67   am
     5   100   101    2
     6   100    99    1
     7   111   109   ar
     8   105   103   ar
     9   105   107   ar
    10    99   102    1
    11    99    98    1
    12    67    66    1
    13    67    68    2
    14   102   103    1
    15    66    63    1
    16    70    71    1
    17    64    63    1
    18    64    65    2
    19   109   107   ar
    20   157   156    2
    21   142   143    2
    22   142   141    1
    23    63    62    1
    24   154   155    1
    25   103   104   ar
    26   107   106   ar
    27    76    74    1
    28   141   140    1
    29   141   144    1
    30   156   155    1
    31   130   128   ar
    32   130   131   ar
    33    71    74    1
    34    71    72    1
    35   128   126   ar
    36    74    75    1
    37   155   158    1
    38   104   106   ar
    39   131   129   ar
    40   144   145    1
    41   126   125    1
    42   126   127   ar
    43    72    73    2
    44   150   152   ar
    45   150   147   ar
    46   158   159    1
    47   158   160    1
    48   125   122    1
    49    36    37    1
    50   129   127   ar
    51   152   153   ar
    52   159   161    1
    53   145   147   ar
    54   145   146   ar
    55   147   149   ar
    56   112   113    1
    57   123   122    1
    58   123   124    2
    59   122   121    1
    60   135   134    2
    61   121   114   am
    62    39    38    2
    63   132   133    1
    64   153   151   ar
    65    37    38    1
    66    37    40    1
    67   134   133    1
    68    40    41    1
    69   146   148   ar
    70   149   151   ar
    71   149   148   ar
    72   113   114    1
    73   113   116    1
    74   114   115    2
    75    85    83   ar
    76    85    87   ar
    77   133   136    1
    78    61    60    1
    79    88    87    1
    80    83    82   ar
    81    58    59    2
    82    58    57    1
    83    87    86   ar
    84    77    78    1
    85    60    57    1
    86    41    43    1
    87    41    42    1
    88   116   117    1
    89   120   119    1
    90   136   137    1
    91   136   138    1
    92   117   118    1
    93    44    45    1
    94    57    56    1
    95    48    45    1
    96    48    49    1
    97    27    26    2
    98    82    81    1
    99    82    84   ar
   100    47    46    2
   101    51    49   ar
   102    26    25    1
   103   137   139    1
   104    86    84   ar
   105   118   119    1
   106    78    81    1
   107    78    79    1
   108    45    46    1
   109    49    50   ar
   110    56    54   am
   111    80    79    2
   112    14    13    2
   113    92    91    2
   114    25    24    1
   115    25    28    1
   116    23    22    2
   117    91    90    1
   118    22    24   am
   119    22    21    1
   120    54    55    2
   121    54    53    1
   122    13    20   am
   123    13    12    1
   124    21    20    1
   125    28    29    1
   126    96    95    2
   127    15    16    1
   128    15    12    1
   129    52    53    1
   130    16    17    1
   131    90    89    1
   132    90    93    1
   133    12    11    1
   134    95    94    1
   135    95    97   am
   136    94    93    1
   137   175   174    1
   138    29    30   ar
   139    29    31   ar
   140   177   176    1
   141   177   178    1
   142    30    32   ar
   143   179   178    2
   144   176   172   am
   145    17    18    2
   146    17    19   am
   147   174   171    1
   148    11     9   am
   149   178   180   am
   150   173   172    2
   151   172   171    1
   152    31    33   ar
   153   168   167   ar
   154    32    34   ar
   155    10     9    2
   156   171   170    1
   157     9     8    1
   158   170   164   am
   159   167   169   ar
   160   167   166    1
   161   180   181    1
   162    33    34   ar
   163    34    35    1
   164   164   163    1
   165   164   165    2
   166     4     3    2
   167     8     7    1
   168   181   182    1
   169   181   184    1
   170   163   166    1
   171   163   162    1
   172     1     2    1
   173   185   184    1
   174     3     7   am
   175     3     2    1
   176   192   191    1
   177     2     5    1
   178   182   187   am
   179   182   183    2
   180   184   186    1
   181   187   188    1
   182   198   195    1
   183   191   188    1
   184   191   193    1
   185   188   189    1
   186     5     6    1
   187   195   194    1
   188   195   196    1
   189   189   190    2
   190   196   197    2
