@<TRIPOS>MOLECULE
tmp/4b0sA00.pdb
 245 238 0 0 0
SMALL
GASTEIGER

@<TRIPOS>ATOM
      1  N        -24.2990   11.9300  -31.3160 N.3     4  VAL4       -0.1231
      2  CA       -23.1510   12.8210  -31.2290 C.3     4  VAL4        0.1692
      3  C        -22.8630   13.0680  -29.7670 C.2     4  VAL4        0.2592
      4  O        -23.6730   13.6460  -29.0390 O.2     4  VAL4       -0.2718
      5  CB       -23.3730   14.1610  -31.9370 C.3     4  VAL4        0.0266
      6  CG1      -22.1550   15.0480  -31.7460 C.3     4  VAL4        0.0020
      7  CG2      -23.6490   13.9380  -33.4130 C.3     4  VAL4        0.0020
      8  N        -21.6960   12.6110  -29.3430 N.am    5  MET5       -0.1965
      9  CA       -21.3360   12.6440  -27.9440 C.3     5  MET5        0.1736
     10  C        -19.8640   12.9740  -27.7770 C.2     5  MET5        0.2617
     11  O        -19.0970   12.9820  -28.7420 O.2     5  MET5       -0.2715
     12  CB       -21.6630   11.3050  -27.2900 C.3     5  MET5        0.0427
     13  CG       -21.0160   10.1230  -27.9880 C.3     5  MET5        0.0599
     14  SD       -21.4970    8.5420  -27.2770 S.3     5  MET5       -0.1393
     15  CE       -23.2770    8.6780  -27.3890 C.3     5  MET5        0.0692
     16  N        -19.4870   13.2750  -26.5430 N.am    6  GLY6       -0.1940
     17  CA       -18.1060   13.5340  -26.2080 C.3     6  GLY6        0.2014
     18  C        -17.8800   13.3420  -24.7270 C.2     6  GLY6        0.2639
     19  O        -18.8030   13.4700  -23.9240 O.2     6  GLY6       -0.2714
     20  N        -16.6410   13.0400  -24.3670 N.am    7  ILE7       -0.1963
     21  CA       -16.2910   12.8220  -22.9770 C.3     7  ILE7        0.1727
     22  C        -15.1770   13.7740  -22.5920 C.2     7  ILE7        0.2616
     23  O        -14.0630   13.6890  -23.1130 O.2     7  ILE7       -0.2715
     24  CB       -15.8390   11.3730  -22.7360 C.3     7  ILE7        0.0290
     25  CG1      -16.8490   10.4090  -23.3530 C.3     7  ILE7        0.0022
     26  CG2      -15.6620   11.1030  -21.2470 C.3     7  ILE7        0.0023
     27  CD1      -16.5460    8.9620  -23.0870 C.3     7  ILE7        0.0001
     28  N        -15.4930   14.6920  -21.6870 N.am    8  GLU8       -0.1977
     29  CA       -14.5020   15.6110  -21.1590 C.3     8  GLU8        0.1602
     30  C        -14.1180   15.1640  -19.7620 C.2     8  GLU8        0.2287
     31  O        -14.9140   15.2540  -18.8310 O.2     8  GLU8       -0.2864
     32  CB       -15.0650   17.0280  -21.1180 C.3     8  GLU8        0.0415
     33  CG       -16.5050   17.0770  -20.6720 C.3     8  GLU8        0.1163
     34  CD       -17.0830   18.4660  -20.7340 C.2     8  GLU8        0.3649
     35  OE1      -16.3230   19.4070  -21.0320 O.co2   8  GLU8       -0.2457
     36  OE2      -18.2970   18.6160  -20.4870 O.co2   8  GLU8       -0.2457
     37  N         -9.7000   18.4430  -27.1020 N.3    46  ARG46      -0.1245
     38  CA        -9.3740   19.6970  -26.4440 C.3    46  ARG46       0.1563
     39  C         -8.5610   19.4510  -25.1740 C.2    46  ARG46       0.2260
     40  O         -8.9330   18.6250  -24.3420 O.2    46  ARG46      -0.2867
     41  CB       -10.6580   20.4530  -26.1070 C.3    46  ARG46       0.0307
     42  CG       -10.4330   21.8300  -25.5250 C.3    46  ARG46       0.0489
     43  CD       -11.7360   22.4520  -25.0540 C.3    46  ARG46       0.2205
     44  NE       -11.5230   23.7910  -24.5120 N.pl3  46  ARG46      -0.0865
     45  CZ       -12.4490   24.4970  -23.8720 C.cat  46  ARG46       0.5346
     46  NH1      -13.6610   23.9920  -23.6850 N.pl3  46  ARG46       0.1354
     47  NH2      -12.1630   25.7090  -23.4130 N.pl3  46  ARG46       0.1354
     48  N         -7.1970   21.6340  -21.9480 N.3    48  TYR48      -0.1241
     49  CA        -7.2320   22.9110  -21.2490 C.3    48  TYR48       0.1605
     50  C         -7.3120   22.7260  -19.7390 C.2    48  TYR48       0.2264
     51  O         -7.6010   21.6340  -19.2490 O.2    48  TYR48      -0.2867
     52  CB        -8.3970   23.7670  -21.7500 C.3    48  TYR48       0.0534
     53  CG        -9.7480   23.1380  -21.5100 C.ar   48  TYR48      -0.0201
     54  CD1      -10.0800   21.9220  -22.0940 C.ar   48  TYR48      -0.0009
     55  CD2      -10.6930   23.7560  -20.7010 C.ar   48  TYR48      -0.0009
     56  CE1      -11.3120   21.3370  -21.8750 C.ar   48  TYR48       0.0417
     57  CE2      -11.9300   23.1800  -20.4770 C.ar   48  TYR48       0.0417
     58  CZ       -12.2340   21.9700  -21.0660 C.ar   48  TYR48       0.1957
     59  OH       -13.4660   21.3860  -20.8460 O.3    48  TYR48      -0.2866
     60  N         -9.2800   23.3520  -16.4130 N.3    50  ASP50      -0.1225
     61  CA       -10.6370   23.6340  -15.9620 C.3    50  ASP50       0.1805
     62  C        -10.8020   23.2820  -14.4860 C.2    50  ASP50       0.2597
     63  O        -10.6400   22.1260  -14.0960 O.2    50  ASP50      -0.2718
     64  CB       -11.6440   22.8470  -16.8010 C.3    50  ASP50       0.1424
     65  CG       -13.0340   23.4440  -16.7530 C.2    50  ASP50       0.3668
     66  OD1      -13.1420   24.6840  -16.6510 O.co2  50  ASP50      -0.2456
     67  OD2      -14.0160   22.6750  -16.8230 O.co2  50  ASP50      -0.2456
     68  N        -11.1320   24.2790  -13.6700 N.am   51  HIS51      -0.1975
     69  CA       -11.2710   24.0730  -12.2330 C.3    51  HIS51       0.1656
     70  C         -9.9440   23.6480  -11.6150 C.2    51  HIS51       0.2291
     71  O         -9.9090   22.8300  -10.6940 O.2    51  HIS51      -0.2864
     72  CB       -12.3410   23.0210  -11.9360 C.3    51  HIS51       0.0771
     73  CG       -13.7080   23.3950  -12.4170 C.ar   51  HIS51       0.0820
     74  ND1      -14.4270   24.4410  -11.8790 N.ar   51  HIS51      -0.2267
     75  CD2      -14.4910   22.8580  -13.3820 C.ar   51  HIS51       0.1154
     76  CE1      -15.5920   24.5350  -12.4940 C.ar   51  HIS51       0.1986
     77  NE2      -15.6570   23.5860  -13.4100 N.ar   51  HIS51      -0.2212
     78  N         -7.7410   19.1850  -18.2600 N.3    55  GLU55      -0.1245
     79  CA        -8.9290   18.5530  -18.8240 C.3    55  GLU55       0.1567
     80  C         -8.6820   18.0700  -20.2460 C.2    55  GLU55       0.2260
     81  O         -7.9850   18.7210  -21.0230 O.2    55  GLU55      -0.2867
     82  CB       -10.1190   19.5190  -18.8090 C.3    55  GLU55       0.0388
     83  CG       -11.3970   18.9130  -18.2520 C.3    55  GLU55       0.1160
     84  CD       -12.6430   19.3920  -18.9730 C.2    55  GLU55       0.3649
     85  OE1      -12.7460   19.1660  -20.1960 O.co2  55  GLU55      -0.2457
     86  OE2      -13.5270   19.9810  -18.3160 O.co2  55  GLU55      -0.2457
     87  N        -10.9670   16.9870  -23.4950 N.3    57  SER57      -0.1202
     88  CA       -12.2480   16.8200  -24.1520 C.3    57  SER57       0.2020
     89  C        -12.0520   16.1340  -25.4920 C.2    57  SER57       0.2619
     90  O        -11.3910   16.6590  -26.3900 O.2    57  SER57      -0.2717
     91  CB       -12.9480   18.1620  -24.3370 C.3    57  SER57       0.2103
     92  OG       -13.1600   18.7890  -23.0850 O.3    57  SER57      -0.2182
     93  N        -12.6320   14.9490  -25.6150 N.am   58  THR58      -0.1939
     94  CA       -12.5300   14.1780  -26.8360 C.3    58  THR58       0.2013
     95  C        -13.0760   14.9950  -27.9940 C.2    58  THR58       0.2484
     96  O        -13.8280   15.9440  -27.7910 O.2    58  THR58      -0.2729
     97  CB       -13.3520   12.8820  -26.7410 C.3    58  THR58       0.1807
     98  OG1      -14.7490   13.2010  -26.7570 O.3    58  THR58      -0.2208
     99  CG2      -13.0210   12.1260  -25.4660 C.3    58  THR58       0.0379
    100  N        -12.6770   14.6470  -29.2210 N.am   59  PRO59      -0.2715
    101  CA       -13.3770   15.2360  -30.3610 C.3    59  PRO59       0.1536
    102  C        -14.8110   14.7240  -30.3260 C.2    59  PRO59       0.2598
    103  O        -15.0820   13.7720  -29.5940 O.2    59  PRO59      -0.2715
    104  CB       -12.6210   14.6700  -31.5690 C.3    59  PRO59       0.0310
    105  CG       -11.9870   13.4090  -31.0720 C.3    59  PRO59       0.0237
    106  CD       -11.6760   13.6430  -29.6210 C.3    59  PRO59       0.0939
    107  N        -15.7200   15.3540  -31.0600 N.am   60  GLU60      -0.1978
    108  CA       -17.0800   14.8390  -31.1380 C.3    60  GLU60       0.1602
    109  C        -17.0700   13.4820  -31.8350 C.2    60  GLU60       0.2287
    110  O        -16.4880   13.3300  -32.9090 O.2    60  GLU60      -0.2864
    111  CB       -18.0020   15.8070  -31.8820 C.3    60  GLU60       0.0415
    112  CG       -18.1450   17.1780  -31.2380 C.3    60  GLU60       0.1163
    113  CD       -17.0700   18.1490  -31.6840 C.2    60  GLU60       0.3649
    114  OE1      -15.9760   17.6870  -32.0700 O.co2  60  GLU60      -0.2457
    115  OE2      -17.3250   19.3730  -31.6540 O.co2  60  GLU60      -0.2457
    116  N        -17.1540   14.5790  -17.6120 N.3   111  HIS111     -0.1241
    117  CA       -18.4050   15.0060  -18.2190 C.3   111  HIS111      0.1621
    118  C        -18.6900   14.2570  -19.5150 C.2   111  HIS111      0.2264
    119  O        -17.7860   13.9800  -20.3020 O.2   111  HIS111     -0.2867
    120  CB       -18.3850   16.5190  -18.4510 C.3   111  HIS111      0.0745
    121  CG       -18.1560   17.3170  -17.2040 C.ar  111  HIS111      0.0817
    122  ND1      -17.4140   18.4780  -17.1870 N.ar  111  HIS111     -0.2268
    123  CD2      -18.5730   17.1180  -15.9310 C.ar  111  HIS111      0.1154
    124  CE1      -17.3860   18.9630  -15.9580 C.ar  111  HIS111      0.1986
    125  NE2      -18.0810   18.1570  -15.1780 N.ar  111  HIS111     -0.2212
    126  N        -21.0750   14.5520  -22.8550 N.3   113  ASN113     -0.1240
    127  CA       -21.9740   15.3920  -23.6280 C.3   113  ASN113      0.1653
    128  C        -22.7000   14.5850  -24.6900 C.2   113  ASN113      0.2266
    129  O        -22.0930   13.7680  -25.3780 O.2   113  ASN113     -0.2867
    130  CB       -21.1980   16.5370  -24.2740 C.3   113  ASN113      0.1155
    131  CG       -20.5420   17.4340  -23.2520 C.2   113  ASN113      0.2627
    132  OD1      -21.0440   17.5910  -22.1410 O.2   113  ASN113     -0.2716
    133  ND2      -19.4150   18.0270  -23.6180 N.am  113  ASN113     -0.0877
    134  N        -25.6790   14.9110  -27.9400 N.3   115  LEU115     -0.1245
    135  CA       -26.5060   15.7490  -28.7910 C.3   115  LEU115      0.1561
    136  C        -27.9230   15.2060  -28.8380 C.2   115  LEU115      0.2260
    137  O        -28.1530   14.0770  -29.2660 O.2   115  LEU115     -0.2867
    138  CB       -25.9260   15.8480  -30.2010 C.3   115  LEU115      0.0270
    139  CG       -25.1270   17.1230  -30.4770 C.3   115  LEU115      0.0019
    140  CD1      -24.6610   17.1650  -31.9210 C.3   115  LEU115      0.0001
    141  CD2      -25.9590   18.3530  -30.1450 C.3   115  LEU115      0.0001
    142  N        -24.6880   23.4820  -12.8570 N.3   172  GLU172     -0.1245
    143  CA       -23.5400   23.0510  -12.0720 C.3   172  GLU172      0.1567
    144  C        -22.7560   24.2580  -11.5790 C.2   172  GLU172      0.2260
    145  O        -22.2730   25.0720  -12.3670 O.2   172  GLU172     -0.2867
    146  CB       -22.6200   22.1280  -12.8720 C.3   172  GLU172      0.0388
    147  CG       -21.4580   21.5810  -12.0480 C.3   172  GLU172      0.1160
    148  CD       -20.3560   20.9850  -12.9010 C.2   172  GLU172      0.3649
    149  OE1      -20.2600   21.3540  -14.0900 O.co2 172  GLU172     -0.2457
    150  OE2      -19.5830   20.1500  -12.3820 O.co2 172  GLU172     -0.2457
    151  N        -27.1930   23.2300  -17.7780 N.3   183  ARG183     -0.1245
    152  CA       -26.4170   24.0140  -18.7320 C.3   183  ARG183      0.1563
    153  C        -26.6350   23.5090  -20.1460 C.2   183  ARG183      0.2260
    154  O        -26.3940   22.3400  -20.4430 O.2   183  ARG183     -0.2867
    155  CB       -24.9280   23.9290  -18.4040 C.3   183  ARG183      0.0307
    156  CG       -24.2960   25.2320  -17.9660 C.3   183  ARG183      0.0489
    157  CD       -22.8420   25.0140  -17.6050 C.3   183  ARG183      0.2205
    158  NE       -22.4510   25.8340  -16.4660 N.pl3 183  ARG183     -0.0865
    159  CZ       -21.3240   25.6720  -15.7820 C.cat 183  ARG183      0.5346
    160  NH1      -20.4700   24.7150  -16.1200 N.pl3 183  ARG183      0.1354
    161  NH2      -21.0550   26.4670  -14.7560 N.pl3 183  ARG183      0.1354
    162  N        -25.2190   24.2850  -23.7400 N.3   185  GLU185     -0.1231
    163  CA       -24.2360   24.9470  -24.5910 C.3   185  GLU185      0.1684
    164  C        -23.9670   24.0390  -25.7800 C.2   185  GLU185      0.2434
    165  O        -22.9030   23.4270  -25.8840 O.2   185  GLU185     -0.2733
    166  CB       -22.9390   25.2210  -23.8220 C.3   185  GLU185      0.0402
    167  CG       -23.1030   26.1200  -22.6080 C.3   185  GLU185      0.1161
    168  CD       -21.7960   26.3360  -21.8750 C.2   185  GLU185      0.3649
    169  OE1      -20.7600   25.8350  -22.3550 O.co2 185  GLU185     -0.2457
    170  OE2      -21.7990   27.0000  -20.8200 O.co2 185  GLU185     -0.2457
    171  N        -24.9420   23.9580  -26.6890 N.am  186  PRO186     -0.2718
    172  CA       -24.9320   23.0150  -27.8080 C.3   186  PRO186      0.1535
    173  C        -23.6240   23.0400  -28.5810 C.2   186  PRO186      0.2599
    174  O        -23.1140   21.9800  -28.9430 O.2   186  PRO186     -0.2715
    175  CB       -26.0730   23.5200  -28.6920 C.3   186  PRO186      0.0310
    176  CG       -27.0030   24.1770  -27.7400 C.3   186  PRO186      0.0237
    177  CD       -26.1340   24.8210  -26.7020 C.3   186  PRO186      0.0939
    178  N        -23.0830   24.2300  -28.8140 N.am  187  HIS187     -0.1960
    179  CA       -21.9470   24.3810  -29.7120 C.3   187  HIS187      0.1787
    180  C        -22.3680   23.8440  -31.0760 C.2   187  HIS187      0.2620
    181  O        -21.5450   23.4520  -31.9010 O.2   187  HIS187     -0.2715
    182  CB       -20.7110   23.6580  -29.1740 C.3   187  HIS187      0.0785
    183  CG       -20.1500   24.2690  -27.9270 C.ar  187  HIS187      0.0821
    184  ND1      -19.7240   25.5800  -27.8660 N.ar  187  HIS187     -0.2267
    185  CD2      -19.9370   23.7490  -26.6950 C.ar  187  HIS187      0.1154
    186  CE1      -19.2790   25.8410  -26.6520 C.ar  187  HIS187      0.1986
    187  NE2      -19.3960   24.7460  -25.9200 N.ar  187  HIS187     -0.2212
    188  N        -23.6800   23.8440  -31.2860 N.am  188  ALA188     -0.1977
    189  CA       -24.3070   23.3930  -32.5170 C.3   188  ALA188      0.1597
    190  C        -25.5980   24.1880  -32.6510 C.2   188  ALA188      0.2287
    191  O        -26.0400   24.8130  -31.6860 O.2   188  ALA188     -0.2864
    192  CB       -24.5940   21.9010  -32.4560 C.3   188  ALA188      0.0319
    193  N        -27.3040   20.0520  -26.2760 N.3   195  ARG195     -0.1245
    194  CA       -26.1950   19.2750  -25.7550 C.3   195  ARG195      0.1563
    195  C        -26.4680   18.9420  -24.2990 C.2   195  ARG195      0.2260
    196  O        -26.4440   19.8150  -23.4290 O.2   195  ARG195     -0.2867
    197  CB       -24.8760   20.0380  -25.8840 C.3   195  ARG195      0.0307
    198  CG       -23.6510   19.1760  -25.6290 C.3   195  ARG195      0.0489
    199  CD       -22.3940   20.0100  -25.4710 C.3   195  ARG195      0.2205
    200  NE       -22.3490   20.6750  -24.1740 N.pl3 195  ARG195     -0.0865
    201  CZ       -21.3170   21.3880  -23.7390 C.cat 195  ARG195      0.5346
    202  NH1      -20.2420   21.5290  -24.5010 N.pl3 195  ARG195      0.1354
    203  NH2      -21.3580   21.9580  -22.5430 N.pl3 195  ARG195      0.1354
    204  N        -25.4560   17.7850  -20.8960 N.3   197  HIS197     -0.1241
    205  CA       -24.2080   17.7830  -20.1600 C.3   197  HIS197      0.1621
    206  C        -24.3720   16.8710  -18.9500 C.2   197  HIS197      0.2264
    207  O        -25.0640   17.2080  -17.9880 O.2   197  HIS197     -0.2867
    208  CB       -23.8610   19.2130  -19.7310 C.3   197  HIS197      0.0745
    209  CG       -22.4050   19.4330  -19.4710 C.ar  197  HIS197      0.0817
    210  ND1      -21.8750   19.4840  -18.1970 N.ar  197  HIS197     -0.2268
    211  CD2      -21.3640   19.6260  -20.3140 C.ar  197  HIS197      0.1154
    212  CE1      -20.5750   19.6910  -18.2700 C.ar  197  HIS197      0.1986
    213  NE2      -20.2370   19.7800  -19.5460 N.ar  197  HIS197     -0.2212
    214  N        -17.3380   16.7430  -37.2460 N.3   389  ARG389     -0.1245
    215  CA       -16.6680   17.9970  -37.5670 C.3   389  ARG389      0.1563
    216  C        -15.2780   18.0550  -36.9390 C.2   389  ARG389      0.2260
    217  O        -14.4400   18.8680  -37.3340 O.2   389  ARG389     -0.2867
    218  CB       -17.5060   19.1700  -37.0660 C.3   389  ARG389      0.0307
    219  CG       -17.8130   19.0890  -35.5820 C.3   389  ARG389      0.0489
    220  CD       -18.5370   20.3300  -35.1130 C.3   389  ARG389      0.2205
    221  NE       -18.8590   20.2660  -33.6930 N.pl3 389  ARG389     -0.0865
    222  CZ       -19.6000   21.1680  -33.0620 C.cat 389  ARG389      0.5346
    223  NH1      -20.0950   22.1980  -33.7330 N.pl3 389  ARG389      0.1354
    224  NH2      -19.8480   21.0390  -31.7660 N.pl3 389  ARG389      0.1354
    225  N        -14.9450   24.2040  -30.6770 N.3   409  TRP409     -0.1241
    226  CA       -16.0040   23.3600  -31.2170 C.3   409  TRP409      0.1605
    227  C        -16.8320   24.1630  -32.2060 C.2   409  TRP409      0.2264
    228  O        -17.3070   23.6330  -33.2090 O.2   409  TRP409     -0.2867
    229  CB       -16.9180   22.8380  -30.1050 C.3   409  TRP409      0.0550
    230  CG       -16.1920   22.2620  -28.9330 C.ar  409  TRP409      0.0003
    231  CD1      -16.2340   22.7070  -27.6450 C.ar  409  TRP409      0.0946
    232  CD2      -15.3060   21.1360  -28.9410 C.ar  409  TRP409      0.0152
    233  NE1      -15.4320   21.9270  -26.8490 N.ar  409  TRP409     -0.2442
    234  CE2      -14.8520   20.9570  -27.6200 C.ar  409  TRP409      0.0810
    235  CE3      -14.8550   20.2640  -29.9350 C.ar  409  TRP409      0.0012
    236  CZ2      -13.9660   19.9410  -27.2710 C.ar  409  TRP409      0.0191
    237  CZ3      -13.9770   19.2560  -29.5840 C.ar  409  TRP409      0.0001
    238  CH2      -13.5440   19.1020  -28.2640 C.ar  409  TRP409      0.0015
    239  N        -22.0260   19.5890  -36.0520 N.3   430  PRO430     -0.2116
    240  CA       -21.1200   18.5420  -35.5740 C.3   430  PRO430      0.1372
    241  C        -20.9900   17.4320  -36.6030 C.2   430  PRO430      0.2244
    242  O        -19.9360   16.8070  -36.7130 O.2   430  PRO430     -0.2868
    243  CB       -21.8230   18.0210  -34.3140 C.3   430  PRO430      0.0268
    244  CG       -23.2560   18.4460  -34.4650 C.3   430  PRO430      0.0207
    245  CD       -23.1890   19.7570  -35.1670 C.3   430  PRO430      0.0892
@<TRIPOS>BOND
     1   215   214    1
     2   215   218    1
     3   215   216    1
     4   217   216    2
     5   218   219    1
     6   242   241    2
     7   241   240    1
     8   239   240    1
     9   239   245    1
    10   219   220    1
    11   240   243    1
    12   245   244    1
    13   220   221    1
    14   244   243    1
    15   223   222    1
    16   221   222    2
    17     7     5    1
    18   228   227    2
    19   222   224    1
    20   110   109    2
    21   190   189    1
    22   190   191    2
    23   189   192    1
    24   189   188    1
    25   227   226    1
    26   114   113   ar
    27     5     6    1
    28     5     2    1
    29   140   139    1
    30   181   180    2
    31   111   112    1
    32   111   108    1
    33   109   108    1
    34   113   115   ar
    35   113   112    1
    36   104   105    1
    37   104   101    1
    38     1     2    1
    39   188   180   am
    40     2     3    1
    41   226   225    1
    42   226   229    1
    43   108   107    1
    44   180   179    1
    45   105   106    1
    46   107   102   am
    47   139   138    1
    48   139   141    1
    49   101   102    1
    50   101   100    1
    51   102   103    2
    52   138   135    1
    53   229   230    1
    54   235   237   ar
    55   235   232   ar
    56     3     8   am
    57     3     4    2
    58   179   182    1
    59   179   178    1
    60   106   100    1
    61   237   238   ar
    62     8     9    1
    63   137   136    2
    64   100    95   am
    65   182   183    1
    66   174   173    2
    67   232   230   ar
    68   232   234   ar
    69   230   231   ar
    70   136   135    1
    71   178   173   am
    72   135   134    1
    73    11    10    2
    74   175   172    1
    75   175   176    1
    76   173   172    1
    77   238   236   ar
    78    95    96    2
    79    95    94    1
    80    13    12    1
    81    13    14    1
    82     9    10    1
    83     9    12    1
    84   183   184   ar
    85   183   185   ar
    86   184   186   ar
    87   172   171    1
    88    10    16   am
    89   176   177    1
    90   231   233   ar
    91   234   236   ar
    92   234   233   ar
    93    15    14    1
    94    37    38    1
    95    94    97    1
    96    94    93    1
    97    98    97    1
    98    97    99    1
    99   177   171    1
   100   185   187   ar
   101   171   164   am
   102   186   187   ar
   103    16    17    1
   104    38    41    1
   105    38    39    1
   106    90    89    2
   107   193   194    1
   108    17    18    1
   109    41    42    1
   110   197   194    1
   111   197   198    1
   112   165   164    2
   113   164   163    1
   114   194   195    1
   115   198   199    1
   116    93    89   am
   117    42    43    1
   118    89    88    1
   119   199   200    1
   120   129   128    2
   121    39    40    2
   122    43    44    1
   123    18    20   am
   124    18    19    2
   125   128   127    1
   126   163   166    1
   127   163   162    1
   128    44    45    2
   129   202   201    1
   130    20    21    1
   131    91    88    1
   132    91    92    1
   133   195   196    2
   134   130   127    1
   135   130   131    1
   136   200   201    2
   137    88    87    1
   138    45    46    1
   139    45    47    1
   140   166   167    1
   141   201   203    1
   142   127   126    1
   143   133   131   am
   144    25    27    1
   145    25    24    1
   146   131   132    2
   147    23    22    2
   148    21    24    1
   149    21    22    1
   150    24    26    1
   151   167   168    1
   152    22    28   am
   153   169   168   ar
   154    54    56   ar
   155    54    53   ar
   156    48    49    1
   157   168   170   ar
   158    56    58   ar
   159    52    53    1
   160    52    49    1
   161    28    29    1
   162    53    55   ar
   163    49    50    1
   164    29    32    1
   165    29    30    1
   166    32    33    1
   167    58    59    1
   168    58    57   ar
   169    35    34   ar
   170    81    80    2
   171   204   205    1
   172    34    33    1
   173    34    36   ar
   174    55    57   ar
   175   154   153    2
   176   211   213   ar
   177   211   209   ar
   178   119   118    2
   179    80    79    1
   180    85    84   ar
   181   205   208    1
   182   205   206    1
   183   153   152    1
   184    30    31    2
   185    50    51    2
   186   208   209    1
   187   213   212   ar
   188   118   117    1
   189   209   210   ar
   190    84    86   ar
   191    84    83    1
   192   206   207    2
   193    79    82    1
   194    79    78    1
   195    82    83    1
   196   152   155    1
   197   152   151    1
   198   120   117    1
   199   120   121    1
   200   155   156    1
   201   212   210   ar
   202   117   116    1
   203   156   157    1
   204   157   158    1
   205   121   122   ar
   206   121   123   ar
   207   122   124   ar
   208    67    65   ar
   209    64    65    1
   210    64    61    1
   211    65    66   ar
   212   158   159    2
   213    60    61    1
   214   160   159    1
   215    61    62    1
   216   124   125   ar
   217   123   125   ar
   218   159   161    1
   219    62    63    2
   220    62    68   am
   221   149   148   ar
   222    68    69    1
   223    77    75   ar
   224    77    76   ar
   225    75    73   ar
   226   148   150   ar
   227   148   147    1
   228   146   143    1
   229   146   147    1
   230   142   143    1
   231    76    74   ar
   232    73    72    1
   233    73    74   ar
   234   145   144    2
   235    69    72    1
   236    69    70    1
   237   143   144    1
   238    70    71    2
