@<TRIPOS>MOLECULE
tmp/4b0tA00.pdb
 166 163 0 0 0
SMALL
GASTEIGER

@<TRIPOS>ATOM
      1  N         17.1340   21.9160   13.5860 N.3    53  ARG53      -0.1245
      2  CA        17.5190   21.8210   14.9780 C.3    53  ARG53       0.1563
      3  C         18.9440   21.3000   15.2140 C.2    53  ARG53       0.2260
      4  O         19.3740   20.3160   14.6120 O.2    53  ARG53      -0.2867
      5  CB        16.5390   20.9270   15.7290 C.3    53  ARG53       0.0307
      6  CG        16.8390   20.9270   17.2200 C.3    53  ARG53       0.0489
      7  CD        16.3360   19.6890   17.8800 C.3    53  ARG53       0.2205
      8  NE        16.9010   18.4640   17.3180 N.pl3  53  ARG53      -0.0865
      9  CZ        16.2740   17.2910   17.3670 C.cat  53  ARG53       0.5346
     10  NH1       15.0770   17.2040   17.9700 N.pl3  53  ARG53       0.1354
     11  NH2       16.8350   16.2100   16.8320 N.pl3  53  ARG53       0.1354
     12  N         24.6560   17.0930   16.8910 N.3    63  GLU63      -0.1245
     13  CA        23.7780   16.5570   15.8570 C.3    63  GLU63       0.1567
     14  C         22.9660   17.6460   15.1630 C.2    63  GLU63       0.2260
     15  O         22.4960   18.5910   15.8080 O.2    63  GLU63      -0.2867
     16  CB        22.8570   15.4930   16.4710 C.3    63  GLU63       0.0388
     17  CG        21.9380   14.7870   15.4830 C.3    63  GLU63       0.1160
     18  CD        20.7020   14.1910   16.1760 C.2    63  GLU63       0.3649
     19  OE1       19.9330   14.9680   16.7800 O.co2  63  GLU63      -0.2457
     20  OE2       20.5000   12.9540   16.1230 O.co2  63  GLU63      -0.2457
     21  N         19.6330   18.2170   12.7410 N.3    65  ALA65      -0.1231
     22  CA        18.4330   17.6090   12.1830 C.3    65  ALA65       0.1694
     23  C         17.7840   18.6100   11.2430 C.2    65  ALA65       0.2593
     24  O         17.4360   19.7210   11.6680 O.2    65  ALA65      -0.2718
     25  CB        17.4430   17.2010   13.3210 C.3    65  ALA65       0.0304
     26  N         17.6150   18.2280    9.9790 N.am   66  THR66      -0.1939
     27  CA        17.0970   19.1620    8.9850 C.3    66  THR66       0.2028
     28  C         15.6690   19.5510    9.3550 C.2    66  THR66       0.2642
     29  O         14.9860   18.8420   10.0750 O.2    66  THR66      -0.2714
     30  CB        17.0470   18.5830    7.5610 C.3    66  THR66       0.1808
     31  OG1       16.1230   17.4840    7.5250 O.3    66  THR66      -0.2208
     32  CG2       18.4740   18.1570    7.0210 C.3    66  THR66       0.0379
     33  N         15.2440   20.6950    8.8510 N.am   67  ALA67      -0.1963
     34  CA        13.8420   21.0860    8.8300 C.3    67  ALA67       0.1728
     35  C         13.0590   20.0880    7.9730 C.2    67  ALA67       0.2616
     36  O         13.6350   19.3490    7.1730 O.2    67  ALA67      -0.2715
     37  CB        13.7220   22.4730    8.2200 C.3    67  ALA67       0.0334
     38  N         11.7490   20.0390    8.1690 N.am   68  GLU68      -0.1977
     39  CA        10.8990   19.1950    7.3420 C.3    68  GLU68       0.1602
     40  C         11.0090   19.5850    5.8660 C.2    68  GLU68       0.2287
     41  O         10.7780   20.7370    5.5160 O.2    68  GLU68      -0.2864
     42  CB         9.4410   19.3150    7.7980 C.3    68  GLU68       0.0415
     43  CG         9.2030   18.9350    9.2670 C.3    68  GLU68       0.1163
     44  CD         9.2460   20.1300   10.2060 C.2    68  GLU68       0.3649
     45  OE1       10.0780   21.0290    9.9720 O.co2  68  GLU68      -0.2457
     46  OE2        8.4350   20.1860   11.1690 O.co2  68  GLU68      -0.2457
     47  N         14.0490   10.0280    8.2460 N.3   125  ASN125     -0.1225
     48  CA        12.6770   10.0950    8.7300 C.3   125  ASN125      0.1785
     49  C         11.7580   10.3040    7.5320 C.2   125  ASN125      0.2597
     50  O         11.9590   11.2240    6.7330 O.2   125  ASN125     -0.2718
     51  CB        12.5070   11.2540    9.7190 C.3   125  ASN125      0.1169
     52  CG        13.3230   11.0710   11.0110 C.2   125  ASN125      0.2627
     53  OD1       12.8880   10.4020   11.9290 O.2   125  ASN125     -0.2716
     54  ND2       14.4940   11.7010   11.0820 N.am  125  ASN125     -0.0877
     55  N         10.7570    9.4450    7.3960 N.am  126  TYR126     -0.1962
     56  CA         9.8280    9.5310    6.2830 C.3   126  TYR126      0.1771
     57  C          8.4100    9.5410    6.8190 C.2   126  TYR126      0.2619
     58  O          8.0230    8.6760    7.6120 O.2   126  TYR126     -0.2715
     59  CB         9.9910    8.3320    5.3390 C.3   126  TYR126      0.0574
     60  CG        11.3630    8.1830    4.7060 C.ar  126  TYR126     -0.0198
     61  CD1       11.6780    8.8280    3.5090 C.ar  126  TYR126     -0.0009
     62  CD2       12.3270    7.3820    5.2940 C.ar  126  TYR126     -0.0009
     63  CE1       12.9430    8.6710    2.9100 C.ar  126  TYR126      0.0417
     64  CE2       13.5840    7.2170    4.7160 C.ar  126  TYR126      0.0417
     65  CZ        13.8890    7.8620    3.5260 C.ar  126  TYR126      0.1957
     66  OH        15.1450    7.6900    2.9690 O.3   126  TYR126     -0.2866
     67  N          7.6190   10.5060    6.3750 N.am  127  LEU127     -0.1977
     68  CA         6.2070   10.4640    6.7090 C.3   127  LEU127      0.1596
     69  C          5.5230    9.4240    5.8080 C.2   127  LEU127      0.2287
     70  O          5.8170    9.3380    4.6140 O.2   127  LEU127     -0.2864
     71  CB         5.5830   11.8560    6.5770 C.3   127  LEU127      0.0297
     72  CG         4.0770   11.9930    6.8370 C.3   127  LEU127      0.0022
     73  CD1        3.7330   13.4120    7.1830 C.3   127  LEU127      0.0001
     74  CD2        3.3050   11.5640    5.5960 C.3   127  LEU127      0.0001
     75  N          7.4490    6.0410   16.6320 N.3   201  ASP201     -0.1225
     76  CA         7.9330    7.2990   17.1970 C.3   201  ASP201      0.1805
     77  C          6.7870    8.3110   17.2440 C.2   201  ASP201      0.2598
     78  O          5.7820    8.1450   16.5440 O.2   201  ASP201     -0.2718
     79  CB         9.0930    7.8690   16.3620 C.3   201  ASP201      0.1424
     80  CG        10.4360    7.2250   16.6910 C.2   201  ASP201      0.3668
     81  OD1       10.4420    6.0640   17.1590 O.co2 201  ASP201     -0.2456
     82  OD2       11.4860    7.8800   16.4810 O.co2 201  ASP201     -0.2456
     83  N          6.9130    9.3180   18.1110 N.am  202  GLU202     -0.1966
     84  CA         6.0120   10.4650   18.0790 C.3   202  GLU202      0.1718
     85  C          6.0340   10.9850   16.6530 C.2   202  GLU202      0.2458
     86  O          7.1060   11.2800   16.1190 O.2   202  GLU202     -0.2730
     87  CB         6.4970   11.5620   19.0270 C.3   202  GLU202      0.0428
     88  CG         6.6370   11.1200   20.4770 C.3   202  GLU202      0.1163
     89  CD         7.3160   12.1660   21.3550 C.2   202  GLU202      0.3649
     90  OE1        7.9320   13.1070   20.8050 O.co2 202  GLU202     -0.2457
     91  OE2        7.2340   12.0440   22.5980 O.co2 202  GLU202     -0.2457
     92  N          4.8580   11.0740   16.0150 N.am  203  PRO203     -0.2716
     93  CA         4.8320   11.4480   14.5930 C.3   203  PRO203      0.1536
     94  C          5.2370   12.9010   14.2890 C.2   203  PRO203      0.2599
     95  O          5.5990   13.1790   13.1490 O.2   203  PRO203     -0.2715
     96  CB         3.3800   11.1770   14.1740 C.3   203  PRO203      0.0310
     97  CG         2.5950   11.1870   15.4490 C.3   203  PRO203      0.0237
     98  CD         3.5230   10.7130   16.5310 C.3   203  PRO203      0.0939
     99  N          5.2100   13.7860   15.2820 N.am  204  HIS204     -0.1960
    100  CA         5.3410   15.2320   15.0410 C.3   204  HIS204      0.1787
    101  C          4.3240   15.6780   14.0010 C.2   204  HIS204      0.2620
    102  O          4.6220   16.4920   13.1340 O.2   204  HIS204     -0.2715
    103  CB         6.7520   15.6030   14.5810 C.3   204  HIS204      0.0785
    104  CG         7.8150   15.2740   15.5810 C.ar  204  HIS204      0.0821
    105  ND1        7.6170   15.3660   16.9420 N.ar  204  HIS204     -0.2267
    106  CD2        9.0850   14.8400   15.4160 C.ar  204  HIS204      0.1154
    107  CE1        8.7210   15.0070   17.5720 C.ar  204  HIS204      0.1986
    108  NE2        9.6280   14.6820   16.6690 N.ar  204  HIS204     -0.2212
    109  N          3.1440   15.0790   14.0780 N.am  205  ALA205     -0.1977
    110  CA         2.0440   15.3000   13.1430 C.3   205  ALA205      0.1597
    111  C          0.7440   14.8910   13.8400 C.2   205  ALA205      0.2287
    112  O          0.7810   14.2880   14.9200 O.2   205  ALA205     -0.2864
    113  CB         2.2500   14.5030   11.8630 C.3   205  ALA205      0.0319
    114  N          5.2980    8.4650   11.4460 N.3   212  ARG212     -0.1245
    115  CA         6.6680    8.7910   11.1110 C.3   212  ARG212      0.1563
    116  C          7.4830    7.4890   11.1060 C.2   212  ARG212      0.2260
    117  O          7.4710    6.7220   12.0680 O.2   212  ARG212     -0.2867
    118  CB         7.2200    9.8410   12.0980 C.3   212  ARG212      0.0307
    119  CG         8.5350   10.5080   11.6830 C.3   212  ARG212      0.0489
    120  CD         8.8730   11.7620   12.5140 C.3   212  ARG212      0.2205
    121  NE         8.9210   11.5040   13.9510 N.pl3 212  ARG212     -0.0865
    122  CZ        10.0350   11.2950   14.6560 C.cat 212  ARG212      0.5346
    123  NH1       11.2240   11.3180   14.0630 N.pl3 212  ARG212      0.1354
    124  NH2        9.9620   11.0660   15.9680 N.pl3 212  ARG212      0.1354
    125  N         11.2060    5.8980   10.9990 N.3   214  HIS214     -0.1241
    126  CA        12.5870    6.2500   11.3760 C.3   214  HIS214      0.1621
    127  C         13.5460    5.1220   10.9900 C.2   214  HIS214      0.2264
    128  O         13.4550    4.0180   11.5310 O.2   214  HIS214     -0.2867
    129  CB        12.6560    6.4880   12.9040 C.3   214  HIS214      0.0745
    130  CG        13.9680    7.0320   13.3930 C.ar  214  HIS214      0.0817
    131  ND1       14.3580    8.3410   13.1850 N.ar  214  HIS214     -0.2268
    132  CD2       14.9600    6.4560   14.1130 C.ar  214  HIS214      0.1154
    133  CE1       15.5420    8.5390   13.7390 C.ar  214  HIS214      0.1986
    134  NE2       15.9310    7.4130   14.3070 N.ar  214  HIS214     -0.2212
    135  N          5.6770   23.0670    6.9920 N.3   411  ARG411     -0.1245
    136  CA         5.5350   23.6520    8.3250 C.3   411  ARG411      0.1563
    137  C          6.7860   24.4170    8.7740 C.2   411  ARG411      0.2260
    138  O          6.7000   25.4060    9.5180 O.2   411  ARG411     -0.2867
    139  CB         5.2180   22.5340    9.3360 C.3   411  ARG411      0.0307
    140  CG         5.1670   22.9500   10.8090 C.3   411  ARG411      0.0489
    141  CD         4.7170   21.7750   11.6930 C.3   411  ARG411      0.2205
    142  NE         5.6650   20.6590   11.6670 N.pl3 411  ARG411     -0.0865
    143  CZ         5.4330   19.4450   12.1730 C.cat 411  ARG411      0.5346
    144  NH1        4.2680   19.1630   12.7440 N.pl3 411  ARG411      0.1354
    145  NH2        6.3750   18.5120   12.1190 N.pl3 411  ARG411      0.1354
    146  N          9.0250   20.9740   17.1000 N.3   433  TRP433     -0.1241
    147  CA         8.4710   20.6200   15.7890 C.3   433  TRP433      0.1605
    148  C          6.9910   21.0140   15.6320 C.2   433  TRP433      0.2264
    149  O          6.6020   21.5860   14.6080 O.2   433  TRP433     -0.2867
    150  CB         8.6940   19.1290   15.4640 C.3   433  TRP433      0.0550
    151  CG        10.1600   18.7290   15.4960 C.ar  433  TRP433      0.0003
    152  CD1       10.7920   17.9860   16.4620 C.ar  433  TRP433      0.0946
    153  CD2       11.1680   19.0870   14.5430 C.ar  433  TRP433      0.0152
    154  NE1       12.1260   17.8580   16.1600 N.ar  433  TRP433     -0.2442
    155  CE2       12.3850   18.5240   14.9890 C.ar  433  TRP433      0.0810
    156  CE3       11.1590   19.8230   13.3530 C.ar  433  TRP433      0.0012
    157  CZ2       13.5820   18.6750   14.2890 C.ar  433  TRP433      0.0191
    158  CZ3       12.3510   19.9730   12.6540 C.ar  433  TRP433      0.0001
    159  CH2       13.5500   19.4000   13.1270 C.ar  433  TRP433      0.0015
    160  N          2.2630   18.8950    9.1560 N.3   451  PRO451     -0.2116
    161  CA         3.6410   19.1480    8.7230 C.3   451  PRO451      0.1372
    162  C          3.7190   19.6460    7.2800 C.2   451  PRO451      0.2244
    163  O          4.7030   20.2800    6.9160 O.2   451  PRO451     -0.2868
    164  CB         4.3130   17.7760    8.8780 C.3   451  PRO451      0.0268
    165  CG         3.2110   16.8080    8.7210 C.3   451  PRO451      0.0207
    166  CD         1.9900   17.4520    9.3010 C.3   451  PRO451      0.0892
@<TRIPOS>BOND
     1    63    61   ar
     2    63    65   ar
     3    66    65    1
     4    61    60   ar
     5    65    64   ar
     6    70    69    2
     7    60    62   ar
     8    60    59    1
     9    64    62   ar
    10    59    56    1
    11    41    40    2
    12    74    72    1
    13    69    68    1
    14    40    39    1
    15    56    57    1
    16    56    55    1
    17    67    68    1
    18    67    57   am
    19    71    68    1
    20    71    72    1
    21    50    49    2
    22    57    58    2
    23    72    73    1
    24   163   162    2
    25   135   136    1
    26    32    30    1
    27    36    35    2
    28   162   161    1
    29    39    42    1
    30    39    38    1
    31    55    49   am
    32    31    30    1
    33    49    48    1
    34    30    27    1
    35    42    43    1
    36    35    38   am
    37    35    34    1
    38    37    34    1
    39    47    48    1
    40   136   137    1
    41   136   139    1
    42   165   164    1
    43   165   166    1
    44   161   164    1
    45   161   160    1
    46    48    51    1
    47   137   138    2
    48    34    33    1
    49    33    28   am
    50    27    28    1
    51    27    26    1
    52   160   166    1
    53    43    44    1
    54   139   140    1
    55    28    29    2
    56    51    52    1
    57    45    44   ar
    58    26    23   am
    59    44    46   ar
    60   140   141    1
    61   127   126    1
    62   127   128    2
    63   125   126    1
    64    52    54   am
    65    52    53    2
    66   116   115    1
    67   116   117    2
    68   115   114    1
    69   115   118    1
    70    23    24    2
    71    23    22    1
    72   126   129    1
    73   142   141    1
    74   142   143    2
    75   119   118    1
    76   119   120    1
    77   113   110    1
    78   145   143    1
    79   143   144    1
    80    22    21    1
    81    22    25    1
    82   120   121    1
    83   158   159   ar
    84   158   156   ar
    85   129   130    1
    86   159   157   ar
    87   102   101    2
    88   110   111    1
    89   110   109    1
    90    95    94    2
    91   131   130   ar
    92   131   133   ar
    93   156   153   ar
    94   130   132   ar
    95     1     2    1
    96   133   134   ar
    97   111   112    2
    98   121   122    2
    99   101   109   am
   100   101   100    1
   101   123   122    1
   102   132   134   ar
   103    96    93    1
   104    96    97    1
   105   157   155   ar
   106    94    93    1
   107    94    99   am
   108   153   155   ar
   109   153   151   ar
   110   103   100    1
   111   103   104    1
   112    93    92    1
   113   149   148    2
   114     4     3    2
   115   122   124    1
   116     2     3    1
   117     2     5    1
   118   155   154   ar
   119   100    99    1
   120    14    15    2
   121    14    13    1
   122   106   104   ar
   123   106   108   ar
   124    97    98    1
   125   150   151    1
   126   150   147    1
   127    17    18    1
   128    17    16    1
   129   151   152   ar
   130   104   105   ar
   131   148   147    1
   132     5     6    1
   133   147   146    1
   134    13    16    1
   135    13    12    1
   136    92    98    1
   137    92    85   am
   138    86    85    2
   139    20    18   ar
   140   154   152   ar
   141    18    19   ar
   142    79    80    1
   143    79    76    1
   144    82    80   ar
   145    78    77    2
   146    75    76    1
   147    85    84    1
   148   108   107   ar
   149    80    81   ar
   150    11     9    1
   151   105   107   ar
   152    76    77    1
   153     6     7    1
   154    77    83   am
   155     8     9    2
   156     8     7    1
   157     9    10    1
   158    84    83    1
   159    84    87    1
   160    87    88    1
   161    88    89    1
   162    90    89   ar
   163    89    91   ar
