@<TRIPOS>MOLECULE
tmp/4b11C00.pdb
 243 235 0 0 0
SMALL
GASTEIGER

@<TRIPOS>ATOM
      1  N         10.9730  -19.6140   90.3460 N.3    70  TYR70      -0.1227
      2  CA        10.7200  -18.3510   89.5890 C.3    70  TYR70       0.1736
      3  C         10.2550  -17.1870   90.5010 C.2    70  TYR70       0.2595
      4  O         10.4120  -17.2560   91.7570 O.2    70  TYR70      -0.2718
      5  CB         9.7700  -18.6460   88.3790 C.3    70  TYR70       0.0548
      6  CG         9.9110  -17.6880   87.1930 C.ar   70  TYR70      -0.0200
      7  CD1       11.1810  -17.4050   86.6200 C.ar   70  TYR70      -0.0009
      8  CD2        8.8080  -17.0450   86.7120 C.ar   70  TYR70      -0.0009
      9  CE1       11.3090  -16.5360   85.5140 C.ar   70  TYR70       0.0417
     10  CE2        8.8990  -16.1750   85.5990 C.ar   70  TYR70       0.0417
     11  CZ        10.1660  -15.8920   85.0680 C.ar   70  TYR70       0.1957
     12  OH        10.1730  -15.0810   83.9500 O.3    70  TYR70      -0.2866
     13  N          9.6690  -16.1490   89.8940 N.am   71  VAL71      -0.1966
     14  CA         9.3820  -14.7980   90.4960 C.3    71  VAL71       0.1727
     15  C          8.4010  -14.9620   91.6670 C.2    71  VAL71       0.2616
     16  O          7.3530  -15.6200   91.5380 O.2    71  VAL71      -0.2715
     17  CB         8.7940  -13.8090   89.4180 C.3    71  VAL71       0.0290
     18  CG1        8.4710  -12.4690   90.0670 C.3    71  VAL71       0.0023
     19  CG2        9.7370  -13.6690   88.2550 C.3    71  VAL71       0.0023
     20  N          8.7130  -14.3600   92.8120 N.am   72  GLU72      -0.1963
     21  CA         7.8310  -14.3260   93.9540 C.3    72  GLU72       0.1733
     22  C          7.4150  -12.8930   94.2030 C.2    72  GLU72       0.2616
     23  O          8.1060  -12.0130   93.7730 O.2    72  GLU72      -0.2715
     24  CB         8.5550  -14.7730   95.2310 C.3    72  GLU72       0.0429
     25  CG         8.9180  -16.2530   95.0680 C.3    72  GLU72       0.1163
     26  CD         9.4320  -16.8940   96.3170 C.2    72  GLU72       0.3649
     27  OE1        9.4290  -16.2540   97.3990 O.co2  72  GLU72      -0.2457
     28  OE2        9.8080  -18.0730   96.2370 O.co2  72  GLU72      -0.2457
     29  N          6.2830  -12.6560   94.8650 N.am   73  ASP73      -0.1957
     30  CA         5.9450  -11.2580   95.1840 C.3    73  ASP73       0.1840
     31  C          6.9140  -10.7660   96.2690 C.2    73  ASP73       0.2622
     32  O          7.6400  -11.5350   96.9310 O.2    73  ASP73      -0.2715
     33  CB         4.5230  -11.2110   95.7180 C.3    73  ASP73       0.1450
     34  CG         4.4430  -11.8230   97.0790 C.2    73  ASP73       0.3671
     35  OD1        4.7020  -13.0670   97.2200 O.co2  73  ASP73      -0.2456
     36  OD2        4.2410  -11.0480   98.0590 O.co2  73  ASP73      -0.2456
     37  N          6.9050   -9.4510   96.4600 N.am   74  ASP74      -0.1971
     38  CA         7.7610   -8.8330   97.5000 C.3    74  ASP74       0.1709
     39  C          7.7360   -9.3630   98.9180 C.2    74  ASP74       0.2293
     40  O          8.7380   -9.2060   99.5980 O.2    74  ASP74      -0.2864
     41  CB         7.6490   -7.2990   97.4860 C.3    74  ASP74       0.1436
     42  CG         8.6330   -6.6640   96.5280 C.2    74  ASP74       0.3671
     43  OD1        8.4870   -6.8210   95.2930 O.co2  74  ASP74      -0.2456
     44  OD2        9.5810   -6.0000   97.0040 O.co2  74  ASP74      -0.2456
     45  N          3.4520  -15.5930   97.3540 N.3    78  PHE78      -0.1241
     46  CA         3.0660  -16.1770   96.0320 C.3    78  PHE78       0.1605
     47  C          4.3340  -16.3800   95.1700 C.2    78  PHE78       0.2264
     48  O          5.2980  -15.6280   95.2430 O.2    78  PHE78      -0.2867
     49  CB         2.1840  -15.2000   95.2850 C.3    78  PHE78       0.0534
     50  CG         0.9170  -14.8680   96.0060 C.ar   78  PHE78      -0.0203
     51  CD1       -0.0110  -15.8730   96.2940 C.ar   78  PHE78      -0.0042
     52  CD2        0.7270  -13.5880   96.5520 C.ar   78  PHE78      -0.0042
     53  CE1       -1.2040  -15.5820   96.9530 C.ar   78  PHE78      -0.0003
     54  CE2       -0.4860  -13.2940   97.2330 C.ar   78  PHE78      -0.0003
     55  CZ        -1.4100  -14.3110   97.4480 C.ar   78  PHE78      -0.0000
     56  N          4.9350  -17.2130   90.9050 N.3    80  PHE80      -0.1241
     57  CA         4.3600  -17.4990   89.5490 C.3    80  PHE80       0.1605
     58  C          4.4850  -18.9730   89.2100 C.2    80  PHE80       0.2264
     59  O          5.5220  -19.5780   89.5220 O.2    80  PHE80      -0.2867
     60  CB         5.0820  -16.7400   88.4190 C.3    80  PHE80       0.0534
     61  CG         4.7310  -15.2700   88.3250 C.ar   80  PHE80      -0.0203
     62  CD1        3.4780  -14.7890   88.7020 C.ar   80  PHE80      -0.0042
     63  CD2        5.6420  -14.3790   87.7350 C.ar   80  PHE80      -0.0042
     64  CE1        3.1740  -13.4230   88.6180 C.ar   80  PHE80      -0.0003
     65  CE2        5.3430  -13.0330   87.6800 C.ar   80  PHE80      -0.0003
     66  CZ         4.0930  -12.5590   88.0680 C.ar   80  PHE80      -0.0000
     67  N          3.6580  -20.6610   85.9310 N.3    82  TYR82      -0.1241
     68  CA         3.3280  -20.9670   84.5300 C.3    82  TYR82       0.1605
     69  C          3.1410  -22.4550   84.2820 C.2    82  TYR82       0.2264
     70  O          4.0100  -23.2730   84.7320 O.2    82  TYR82      -0.2867
     71  CB         4.5200  -20.5460   83.6440 C.3    82  TYR82       0.0534
     72  CG         4.6900  -19.0210   83.5950 C.ar   82  TYR82      -0.0201
     73  CD1        4.0480  -18.2780   82.5960 C.ar   82  TYR82      -0.0009
     74  CD2        5.5450  -18.3370   84.5110 C.ar   82  TYR82      -0.0009
     75  CE1        4.2280  -16.9200   82.4630 C.ar   82  TYR82       0.0417
     76  CE2        5.6900  -16.9150   84.4340 C.ar   82  TYR82       0.0417
     77  CZ         5.0420  -16.2300   83.3570 C.ar   82  TYR82       0.1957
     78  OH         5.1810  -14.8630   83.1950 O.3    82  TYR82      -0.2866
     79  N         12.5550  -14.1900   77.8570 N.3   136  ASN136     -0.1240
     80  CA        11.7340  -14.4690   79.0610 C.3   136  ASN136      0.1653
     81  C         12.1970  -15.7310   79.7480 C.2   136  ASN136      0.2266
     82  O         13.0300  -16.4980   79.2510 O.2   136  ASN136     -0.2867
     83  CB        10.2790  -14.6910   78.6690 C.3   136  ASN136      0.1155
     84  CG         9.3040  -14.0390   79.6660 C.2   136  ASN136      0.2627
     85  OD1        9.6030  -13.8870   80.9040 O.2   136  ASN136     -0.2716
     86  ND2        8.1170  -13.6180   79.1400 N.am  136  ASN136     -0.0877
     87  N         11.2780   -7.5480   79.8820 N.3   172  THR172     -0.1203
     88  CA        10.6760   -6.8080   81.0010 C.3   172  THR172      0.1994
     89  C         11.2230   -7.3060   82.3070 C.2   172  THR172      0.2618
     90  O         11.7040   -8.4870   82.4170 O.2   172  THR172     -0.2717
     91  CB         9.1170   -6.9150   80.9860 C.3   172  THR172      0.1784
     92  OG1        8.7050   -8.2810   81.1140 O.3   172  THR172     -0.2211
     93  CG2        8.5420   -6.3210   79.6720 C.3   172  THR172      0.0376
     94  N         11.1070   -6.5440   83.3570 N.am  173  ALA173     -0.1965
     95  CA        11.3930   -7.0960   84.6870 C.3   173  ALA173      0.1728
     96  C         10.7690   -6.1810   85.7280 C.2   173  ALA173      0.2616
     97  O         10.6030   -4.9720   85.4810 O.2   173  ALA173     -0.2715
     98  CB        12.9100   -7.1590   84.9540 C.3   173  ALA173      0.0334
     99  N         10.5140   -6.7200   86.8870 N.am  174  GLY174     -0.1955
    100  CA        10.0850   -5.9360   88.0040 C.3   174  GLY174      0.1869
    101  C         11.2250   -5.2030   88.6750 C.2   174  GLY174      0.2309
    102  O         10.9830   -4.1700   89.2960 O.2   174  GLY174     -0.2863
    103  N          1.2480   -1.9360   87.7690 N.3   186  TYR186     -0.1227
    104  CA         0.2050   -2.9830   87.5990 C.3   186  TYR186      0.1736
    105  C         -0.9570   -2.7780   88.5790 C.2   186  TYR186      0.2595
    106  O         -0.7790   -2.1840   89.6970 O.2   186  TYR186     -0.2718
    107  CB         0.8180   -4.3800   87.6830 C.3   186  TYR186      0.0548
    108  CG         1.9490   -4.5430   88.6510 C.ar  186  TYR186     -0.0200
    109  CD1        1.6930   -4.6510   90.0290 C.ar  186  TYR186     -0.0009
    110  CD2        3.2150   -4.7250   88.1890 C.ar  186  TYR186     -0.0009
    111  CE1        2.7260   -4.8240   90.9240 C.ar  186  TYR186      0.0417
    112  CE2        4.2690   -4.9220   89.0340 C.ar  186  TYR186      0.0417
    113  CZ         4.0140   -4.9730   90.4090 C.ar  186  TYR186      0.1957
    114  OH         5.0580   -5.1730   91.2400 O.3   186  TYR186     -0.2866
    115  N         -2.1160   -3.2750   88.1540 N.am  187  TYR187     -0.1976
    116  CA        -3.3570   -3.1140   88.8520 C.3   187  TYR187      0.1639
    117  C         -4.1080   -4.4090   88.8010 C.2   187  TYR187      0.2290
    118  O         -3.8790   -5.2070   87.9010 O.2   187  TYR187     -0.2864
    119  CB        -4.2230   -2.0770   88.1160 C.3   187  TYR187      0.0560
    120  CG        -3.6830   -0.6870   88.2430 C.ar  187  TYR187     -0.0198
    121  CD1       -2.6440   -0.2560   87.4020 C.ar  187  TYR187     -0.0009
    122  CD2       -4.2520    0.1960   89.2050 C.ar  187  TYR187     -0.0009
    123  CE1       -2.1410    1.0430   87.5140 C.ar  187  TYR187      0.0417
    124  CE2       -3.7260    1.4880   89.3420 C.ar  187  TYR187      0.0417
    125  CZ        -2.7140    1.8910   88.4540 C.ar  187  TYR187      0.1957
    126  OH        -2.1100    3.1390   88.5010 O.3   187  TYR187     -0.2866
    127  N         -3.7710  -11.9020   99.8230 N.3   201  PHE201     -0.1241
    128  CA        -3.8780  -10.9930   98.7060 C.3   201  PHE201      0.1605
    129  C         -4.3800   -9.6140   99.1120 C.2   201  PHE201      0.2264
    130  O         -3.8000   -8.6290   98.6790 O.2   201  PHE201     -0.2867
    131  CB        -4.7070  -11.5620   97.5440 C.3   201  PHE201      0.0534
    132  CG        -4.4930  -10.8190   96.2580 C.ar  201  PHE201     -0.0203
    133  CD1       -5.2730   -9.6990   95.9220 C.ar  201  PHE201     -0.0042
    134  CD2       -3.5030  -11.2320   95.3580 C.ar  201  PHE201     -0.0042
    135  CE1       -5.0500   -9.0160   94.7290 C.ar  201  PHE201     -0.0003
    136  CE2       -3.2890  -10.5530   94.1590 C.ar  201  PHE201     -0.0003
    137  CZ        -4.0730   -9.4360   93.8360 C.ar  201  PHE201     -0.0000
    138  N         -4.4710  -14.0030   79.1550 N.3   279  TYR279     -0.1241
    139  CA        -3.8490  -15.3020   79.3320 C.3   279  TYR279      0.1605
    140  C         -3.9210  -15.7280   80.7930 C.2   279  TYR279      0.2264
    141  O         -4.0770  -14.9170   81.7530 O.2   279  TYR279     -0.2867
    142  CB        -2.4040  -15.3000   78.8070 C.3   279  TYR279      0.0534
    143  CG        -1.4170  -14.3570   79.4950 C.ar  279  TYR279     -0.0201
    144  CD1       -0.7180  -14.7090   80.6920 C.ar  279  TYR279     -0.0009
    145  CD2       -1.1210  -13.1430   78.8890 C.ar  279  TYR279     -0.0009
    146  CE1        0.2630  -13.8880   81.2520 C.ar  279  TYR279      0.0417
    147  CE2       -0.1070  -12.3320   79.4110 C.ar  279  TYR279      0.0417
    148  CZ         0.5160  -12.6740   80.6360 C.ar  279  TYR279      0.1957
    149  OH         1.5410  -11.8010   81.0730 O.3   279  TYR279     -0.2866
    150  N         -2.1530  -17.2730   84.1340 N.3   281  LEU281     -0.1245
    151  CA        -0.8550  -17.4050   84.7720 C.3   281  LEU281      0.1561
    152  C         -1.1520  -17.6110   86.2690 C.2   281  LEU281      0.2260
    153  O         -1.2980  -16.6360   87.0480 O.2   281  LEU281     -0.2867
    154  CB         0.0430  -16.1810   84.5320 C.3   281  LEU281      0.0270
    155  CG         1.2800  -16.0060   85.3900 C.3   281  LEU281      0.0019
    156  CD1        2.1370  -17.3230   85.5130 C.3   281  LEU281      0.0001
    157  CD2        2.2250  -14.8390   84.9220 C.3   281  LEU281      0.0001
    158  N         -0.5430  -18.4830   90.2420 N.3   283  SER283     -0.1217
    159  CA         0.5380  -18.3750   91.2130 C.3   283  SER283      0.1889
    160  C          0.3600  -19.4640   92.2990 C.2   283  SER283      0.2288
    161  O         -0.6910  -19.6910   92.7720 O.2   283  SER283     -0.2866
    162  CB         0.6030  -17.0150   91.8780 C.3   283  SER283      0.2089
    163  OG         1.3230  -16.1090   91.0590 O.3   283  SER283     -0.2183
    164  N         -3.4940  -19.5170   93.2030 N.3   294  LEU294     -0.1245
    165  CA        -4.2570  -18.3550   92.8390 C.3   294  LEU294      0.1561
    166  C         -4.4730  -18.4040   91.2950 C.2   294  LEU294      0.2260
    167  O         -3.5130  -18.3800   90.6090 O.2   294  LEU294     -0.2867
    168  CB        -3.5200  -17.0850   93.2520 C.3   294  LEU294      0.0270
    169  CG        -4.0140  -15.7150   92.7210 C.3   294  LEU294      0.0019
    170  CD1       -5.4060  -15.5280   93.3000 C.3   294  LEU294      0.0001
    171  CD2       -3.1050  -14.5960   93.1940 C.3   294  LEU294      0.0001
    172  N         -4.4830  -12.4520   83.0060 N.3   298  TYR298     -0.1241
    173  CA        -3.6680  -11.2470   82.7440 C.3   298  TYR298      0.1605
    174  C         -4.1050  -10.6660   81.3980 C.2   298  TYR298      0.2264
    175  O         -4.1060  -11.3180   80.3920 O.2   298  TYR298     -0.2867
    176  CB        -2.1620  -11.6400   82.6030 C.3   298  TYR298      0.0534
    177  CG        -1.6090  -11.8540   83.9970 C.ar  298  TYR298     -0.0201
    178  CD1       -1.8540  -13.0690   84.7180 C.ar  298  TYR298     -0.0009
    179  CD2       -0.6730  -10.9170   84.5350 C.ar  298  TYR298     -0.0009
    180  CE1       -1.3230  -13.2750   86.0010 C.ar  298  TYR298      0.0417
    181  CE2       -0.2060  -11.1050   85.8790 C.ar  298  TYR298      0.0417
    182  CZ        -0.4510  -12.3420   86.4940 C.ar  298  TYR298      0.1957
    183  OH        -0.0200  -12.5520   87.8030 O.3   298  TYR298     -0.2866
    184  N         -5.6020   -9.1760   86.1630 N.3   329  ASN329     -0.1225
    185  CA        -4.4690   -8.2410   86.2490 C.3   329  ASN329      0.1785
    186  C         -4.2530   -7.4880   85.0070 C.2   329  ASN329      0.2597
    187  O         -4.4320   -8.0160   83.9400 O.2   329  ASN329     -0.2718
    188  CB        -3.1910   -9.0740   86.5440 C.3   329  ASN329      0.1169
    189  CG        -3.2490   -9.7750   87.8610 C.2   329  ASN329      0.2627
    190  OD1       -3.2640   -9.1620   88.9070 O.2   329  ASN329     -0.2716
    191  ND2       -3.2420  -11.0880   87.8210 N.am  329  ASN329     -0.0877
    192  N         -3.8480   -6.2220   85.1130 N.am  330  ALA330     -0.1966
    193  CA        -3.5240   -5.4580   83.9050 C.3   330  ALA330      0.1728
    194  C         -2.4320   -4.4490   84.2350 C.2   330  ALA330      0.2616
    195  O         -2.2520   -4.0410   85.3830 O.2   330  ALA330     -0.2715
    196  CB        -4.7240   -4.7080   83.3880 C.3   330  ALA330      0.0334
    197  N         -1.7490   -3.9720   83.2110 N.am  331  LEU331     -0.1977
    198  CA        -0.7480   -2.9060   83.3170 C.3   331  LEU331      0.1596
    199  C         -1.3500   -1.6220   82.8110 C.2   331  LEU331      0.2287
    200  O         -2.2010   -1.6290   81.8970 O.2   331  LEU331     -0.2864
    201  CB         0.3940   -3.2620   82.3560 C.3   331  LEU331      0.0297
    202  CG         1.2150   -4.4880   82.7880 C.3   331  LEU331      0.0022
    203  CD1        2.0200   -5.0570   81.5890 C.3   331  LEU331      0.0001
    204  CD2        1.9860   -4.1320   84.1100 C.3   331  LEU331      0.0001
    205  N          1.7630   -2.9110   94.0450 N.3   349  ASP349     -0.1239
    206  CA         2.7910   -2.3710   94.8750 C.3   349  ASP349      0.1674
    207  C          4.0510   -1.9370   94.1840 C.2   349  ASP349      0.2266
    208  O          4.9160   -1.4050   94.8550 O.2   349  ASP349     -0.2867
    209  CB         3.1680   -3.4040   95.9400 C.3   349  ASP349      0.1410
    210  CG         2.4280   -3.1640   97.2240 C.2   349  ASP349      0.3668
    211  OD1        2.3260   -1.9860   97.6190 O.co2 349  ASP349     -0.2456
    212  OD2        1.9270   -4.1350   97.8130 O.co2 349  ASP349     -0.2456
    213  N          6.2200   -2.7440   86.3500 N.3   352  LEU352     -0.1245
    214  CA         6.9840   -3.5550   85.4100 C.3   352  LEU352      0.1561
    215  C          7.7750   -2.6410   84.4680 C.2   352  LEU352      0.2260
    216  O          7.2010   -1.7360   83.8310 O.2   352  LEU352     -0.2867
    217  CB         5.9910   -4.4420   84.5500 C.3   352  LEU352      0.0270
    218  CG         6.6920   -5.4080   83.5710 C.3   352  LEU352      0.0019
    219  CD1        7.3700   -6.6050   84.3540 C.3   352  LEU352      0.0001
    220  CD2        5.5880   -5.8270   82.6320 C.3   352  LEU352      0.0001
    221  N          2.5020   -6.3500   75.2870 N.3   372  VAL372     -0.1231
    222  CA         2.3870   -7.0230   76.5770 C.3   372  VAL372      0.1692
    223  C          3.1730   -8.3040   76.4200 C.2   372  VAL372      0.2592
    224  O          2.8790   -9.1510   75.5220 O.2   372  VAL372     -0.2718
    225  CB         0.8920   -7.3810   76.7960 C.3   372  VAL372      0.0266
    226  CG1        0.7380   -8.2430   78.0660 C.3   372  VAL372      0.0020
    227  CG2        0.1310   -6.0570   76.9840 C.3   372  VAL372      0.0020
    228  N          4.1500   -8.4730   77.3100 N.am  373  LEU373     -0.1966
    229  CA         4.9500   -9.7020   77.3440 C.3   373  LEU373      0.1728
    230  C          4.3790  -10.6540   78.3650 C.2   373  LEU373      0.2616
    231  O          3.5030  -10.3000   79.1990 O.2   373  LEU373     -0.2715
    232  CB         6.4020   -9.4140   77.7350 C.3   373  LEU373      0.0311
    233  CG         7.3380   -8.5420   76.9090 C.3   373  LEU373      0.0022
    234  CD1        8.7680   -9.0670   77.0310 C.3   373  LEU373      0.0001
    235  CD2        6.9210   -8.4780   75.4710 C.3   373  LEU373      0.0001
    236  N          4.8050  -11.9060   78.2510 N.am  374  LEU374     -0.1977
    237  CA         4.0790  -12.9450   79.0250 C.3   374  LEU374      0.1596
    238  C          4.6370  -13.0370   80.4310 C.2   374  LEU374      0.2287
    239  O          5.7630  -12.5370   80.7050 O.2   374  LEU374     -0.2864
    240  CB         4.1970  -14.2840   78.3300 C.3   374  LEU374      0.0297
    241  CG         3.7800  -14.2770   76.8740 C.3   374  LEU374      0.0022
    242  CD1        3.9830  -15.7300   76.3420 C.3   374  LEU374      0.0001
    243  CD2        2.2930  -13.9370   76.8770 C.3   374  LEU374      0.0001
@<TRIPOS>BOND
     1   221   222    1
     2   235   233    1
     3   224   223    2
     4   242   241    1
     5   223   222    1
     6   223   228   am
     7   222   225    1
     8   225   227    1
     9   225   226    1
    10   241   243    1
    11   241   240    1
    12   233   234    1
    13   233   232    1
    14   228   229    1
    15   229   232    1
    16   229   230    1
    17    79    80    1
    18   236   230   am
    19   236   237    1
    20   240   237    1
    21   230   231    2
    22    83    80    1
    23    83    84    1
    24   142   139    1
    25   142   143    1
    26   145   147   ar
    27   145   143   ar
    28   237   238    1
    29    80    81    1
    30    86    84   am
    31   138   139    1
    32    82    81    2
    33   139   140    1
    34   147   148   ar
    35   143   144   ar
    36    84    85    2
    37    93    91    1
    38    87    88    1
    39   175   174    2
    40   238   239    2
    41   148   149    1
    42   148   146   ar
    43   144   146   ar
    44   140   141    2
    45    91    88    1
    46    91    92    1
    47    88    89    1
    48   174   173    1
    49   203   202    1
    50   200   199    2
    51    89    90    2
    52    89    94   am
    53   201   202    1
    54   201   198    1
    55    75    73   ar
    56    75    77   ar
    57    73    72   ar
    58   176   173    1
    59   176   177    1
    60   220   218    1
    61   173   172    1
    62   202   204    1
    63   199   198    1
    64    78    77    1
    65   197   198    1
    66   197   194   am
    67    77    76   ar
    68    94    95    1
    69   196   193    1
    70   218   219    1
    71   218   217    1
    72    72    71    1
    73    72    74   ar
    74    71    68    1
    75   216   215    2
    76   193   194    1
    77   193   192    1
    78   187   186    2
    79    12    11    1
    80   177   179   ar
    81   177   178   ar
    82   150   151    1
    83   194   195    2
    84    69    68    1
    85    69    70    2
    86    76    74   ar
    87   215   214    1
    88    68    67    1
    89   154   151    1
    90   154   155    1
    91   179   181   ar
    92   217   214    1
    93    95    98    1
    94    95    96    1
    95   178   180   ar
    96   151   152    1
    97   157   155    1
    98   186   192   am
    99   186   185    1
   100    11     9   ar
   101    11    10   ar
   102   155   156    1
   103   214   213    1
   104    97    96    2
   105     9     7   ar
   106    10     8   ar
   107    96    99   am
   108   181   182   ar
   109   180   182   ar
   110   184   185    1
   111   185   188    1
   112   152   153    2
   113   182   183    1
   114   188   189    1
   115     7     6   ar
   116     8     6   ar
   117    99   100    1
   118     6     5    1
   119   121   123   ar
   120   121   120   ar
   121   123   125   ar
   122   104   107    1
   123   104   103    1
   124   104   105    1
   125    65    63   ar
   126    65    66   ar
   127   107   108    1
   128    63    61   ar
   129   191   189   am
   130   189   190    2
   131   118   117    2
   132   100   101    1
   133    66    64   ar
   134   119   120    1
   135   119   116    1
   136   115   105   am
   137   115   116    1
   138   110   108   ar
   139   110   112   ar
   140   120   122   ar
   141    19    17    1
   142    61    60    1
   143    61    62   ar
   144     5     2    1
   145    60    57    1
   146   125   126    1
   147   125   124   ar
   148   105   106    2
   149    64    62   ar
   150   108   109   ar
   151   101   102    2
   152   117   116    1
   153   112   113   ar
   154   122   124   ar
   155    58    59    2
   156    58    57    1
   157    17    18    1
   158    17    14    1
   159    57    56    1
   160     2     1    1
   161     2     3    1
   162    13    14    1
   163    13     3   am
   164   109   111   ar
   165   158   159    1
   166   113   111   ar
   167   113   114    1
   168    14    15    1
   169     3     4    2
   170   167   166    2
   171   163   162    1
   172   159   162    1
   173   159   160    1
   174   166   165    1
   175    16    15    2
   176    15    20   am
   177   160   161    2
   178   169   171    1
   179   169   168    1
   180   169   170    1
   181    20    21    1
   182   165   164    1
   183   165   168    1
   184    23    22    2
   185   137   136   ar
   186   137   135   ar
   187    21    22    1
   188    21    24    1
   189   205   206    1
   190   136   134   ar
   191   207   208    2
   192   207   206    1
   193    22    29   am
   194   135   133   ar
   195    29    30    1
   196   206   209    1
   197    25    24    1
   198    25    26    1
   199    47    48    2
   200    47    46    1
   201    30    33    1
   202    30    31    1
   203    49    50    1
   204    49    46    1
   205    43    42   ar
   206   134   132   ar
   207    33    34    1
   208   133   132   ar
   209   209   210    1
   210    50    51   ar
   211    50    52   ar
   212    46    45    1
   213    28    26   ar
   214   132   131    1
   215    31    37   am
   216    31    32    2
   217    51    53   ar
   218    26    27   ar
   219    37    38    1
   220    42    44   ar
   221    42    41    1
   222    52    54   ar
   223    53    55   ar
   224    34    35   ar
   225    34    36   ar
   226   210   211   ar
   227   210   212   ar
   228    54    55   ar
   229    41    38    1
   230    38    39    1
   231   131   128    1
   232   130   129    2
   233   128   129    1
   234   128   127    1
   235    39    40    2
