@<TRIPOS>MOLECULE
tmp/4b12A00.pdb
 228 219 0 0 0
SMALL
GASTEIGER

@<TRIPOS>ATOM
      1  N         31.9850   52.0920   70.3120 N.3    70  TYR70      -0.1227
      2  CA        31.7700   50.7080   69.8500 C.3    70  TYR70       0.1736
      3  C         31.2830   50.7150   68.3710 C.2    70  TYR70       0.2595
      4  O         31.4810   51.7130   67.6360 O.2    70  TYR70      -0.2718
      5  CB        30.9210   49.9490   70.8230 C.3    70  TYR70       0.0548
      6  CG        30.9630   48.4060   70.6910 C.ar   70  TYR70      -0.0200
      7  CD1       32.1340   47.7460   70.7930 C.ar   70  TYR70      -0.0009
      8  CD2       29.8220   47.6810   70.4790 C.ar   70  TYR70      -0.0009
      9  CE1       32.1780   46.3410   70.7330 C.ar   70  TYR70       0.0417
     10  CE2       29.8610   46.2650   70.3980 C.ar   70  TYR70       0.0417
     11  CZ        31.0750   45.6220   70.5110 C.ar   70  TYR70       0.1957
     12  OH        31.1630   44.1780   70.4560 O.3    70  TYR70      -0.2866
     13  N         30.7470   49.6160   67.8940 N.am   71  VAL71      -0.1966
     14  CA        30.5120   49.3880   66.4290 C.3    71  VAL71       0.1727
     15  C         29.5560   50.3510   65.7740 C.2    71  VAL71       0.2616
     16  O         28.4750   50.6290   66.3150 O.2    71  VAL71      -0.2715
     17  CB        29.8910   48.0040   66.1830 C.3    71  VAL71       0.0290
     18  CG1       29.7120   47.8230   64.6710 C.3    71  VAL71       0.0023
     19  CG2       30.8410   46.9110   66.7380 C.3    71  VAL71       0.0023
     20  N         29.8860   50.7960   64.5620 N.am   72  GLU72      -0.1963
     21  CA        29.0300   51.7290   63.8390 C.3    72  GLU72       0.1733
     22  C         28.6650   51.0460   62.5290 C.2    72  GLU72       0.2616
     23  O         29.3380   50.1480   62.0900 O.2    72  GLU72      -0.2715
     24  CB        29.7120   53.0810   63.5760 C.3    72  GLU72       0.0429
     25  CG        30.0250   53.8470   64.8330 C.3    72  GLU72       0.1163
     26  CD        30.6720   55.2410   64.5810 C.2    72  GLU72       0.3649
     27  OE1       30.8510   55.7160   63.4130 O.co2  72  GLU72      -0.2457
     28  OE2       31.0410   55.8490   65.5610 O.co2  72  GLU72      -0.2457
     29  N         27.5690   51.4620   61.8940 N.am   73  ASP73      -0.1957
     30  CA        27.2400   50.9290   60.5820 C.3    73  ASP73       0.1840
     31  C         28.2300   51.5900   59.5590 C.2    73  ASP73       0.2622
     32  O         28.9230   52.5680   59.8960 O.2    73  ASP73      -0.2715
     33  CB        25.8000   51.3150   60.3410 C.3    73  ASP73       0.1450
     34  CG        25.6770   52.8270   60.0350 C.2    73  ASP73       0.3671
     35  OD1       25.8250   53.6940   60.9280 O.co2  73  ASP73      -0.2456
     36  OD2       25.5300   53.1240   58.8430 O.co2  73  ASP73      -0.2456
     37  N         28.3140   51.0550   58.3370 N.am   74  ASP74      -0.1971
     38  CA        29.2290   51.6000   57.3110 C.3    74  ASP74       0.1709
     39  C         29.1500   53.0840   57.1070 C.2    74  ASP74       0.2293
     40  O         30.1580   53.7220   56.8040 O.2    74  ASP74      -0.2864
     41  CB        29.0310   50.9010   55.9810 C.3    74  ASP74       0.1436
     42  CG        29.6290   49.5220   56.0020 C.2    74  ASP74       0.3671
     43  OD1       29.1310   48.7000   56.7960 O.co2  74  ASP74      -0.2456
     44  OD2       30.6360   49.2780   55.2820 O.co2  74  ASP74      -0.2456
     45  N         24.6850   55.2350   62.7920 N.3    78  PHE78      -0.1241
     46  CA        24.2220   54.5390   63.9550 C.3    78  PHE78       0.1605
     47  C         25.4260   54.0070   64.7380 C.2    78  PHE78       0.2264
     48  O         26.3970   53.5930   64.1210 O.2    78  PHE78      -0.2867
     49  CB        23.4410   53.3320   63.4920 C.3    78  PHE78       0.0534
     50  CG        22.1630   53.6650   62.8000 C.ar   78  PHE78      -0.0203
     51  CD1       21.1530   54.3380   63.4570 C.ar   78  PHE78      -0.0042
     52  CD2       21.9700   53.2600   61.4580 C.ar   78  PHE78      -0.0042
     53  CE1       19.9600   54.6610   62.7980 C.ar   78  PHE78      -0.0003
     54  CE2       20.7700   53.5660   60.7920 C.ar   78  PHE78      -0.0003
     55  CZ        19.7590   54.2650   61.4720 C.ar   78  PHE78      -0.0000
     56  N         25.9910   51.0960   67.9860 N.3    80  PHE80      -0.1241
     57  CA        25.3800   50.2590   68.9950 C.3    80  PHE80       0.1605
     58  C         25.5070   50.8870   70.3610 C.2    80  PHE80       0.2264
     59  O         26.5470   51.5060   70.6930 O.2    80  PHE80      -0.2867
     60  CB        26.0630   48.8680   69.0590 C.3    80  PHE80       0.0534
     61  CG        25.7350   47.9490   67.9170 C.ar   80  PHE80      -0.0203
     62  CD1       24.4640   47.9720   67.3050 C.ar   80  PHE80      -0.0042
     63  CD2       26.6820   46.9920   67.4670 C.ar   80  PHE80      -0.0042
     64  CE1       24.1310   47.0890   66.2630 C.ar   80  PHE80      -0.0003
     65  CE2       26.3550   46.1090   66.4130 C.ar   80  PHE80      -0.0003
     66  CZ        25.0700   46.1370   65.8350 C.ar   80  PHE80      -0.0000
     67  N         24.6720   49.2030   73.6590 N.3    82  TYR82      -0.1241
     68  CA        24.2550   48.1550   74.5990 C.3    82  TYR82       0.1605
     69  C         24.0300   48.8040   76.0070 C.2    82  TYR82       0.2264
     70  O         24.8320   49.5960   76.4610 O.2    82  TYR82      -0.2867
     71  CB        25.4140   47.1820   74.7350 C.3    82  TYR82       0.0534
     72  CG        25.6270   46.2580   73.6030 C.ar   82  TYR82      -0.0201
     73  CD1       26.5210   46.5730   72.5680 C.ar   82  TYR82      -0.0009
     74  CD2       25.0560   44.9910   73.6160 C.ar   82  TYR82      -0.0009
     75  CE1       26.7140   45.6660   71.5350 C.ar   82  TYR82       0.0417
     76  CE2       25.3190   44.0430   72.6230 C.ar   82  TYR82       0.0417
     77  CZ        26.1260   44.3960   71.5860 C.ar   82  TYR82       0.1957
     78  OH        26.3580   43.5040   70.5540 O.3    82  TYR82      -0.2866
     79  N         33.6340   38.8910   73.2130 N.3   136  ASN136     -0.1240
     80  CA        32.7360   39.9420   72.7200 C.3   136  ASN136      0.1653
     81  C         33.1490   41.2540   73.3440 C.2   136  ASN136      0.2266
     82  O         33.9770   41.2810   74.2810 O.2   136  ASN136     -0.2867
     83  CB        31.2760   39.6510   73.0990 C.3   136  ASN136      0.1155
     84  CG        30.2880   40.2630   72.1130 C.2   136  ASN136      0.2627
     85  OD1       30.6590   41.0910   71.2480 O.2   136  ASN136     -0.2716
     86  ND2       29.0360   39.8940   72.2430 N.am  136  ASN136     -0.0877
     87  N         32.3100   36.6440   66.6460 N.3   172  THR172     -0.1218
     88  CA        31.6540   37.0740   65.4360 C.3   172  THR172      0.1862
     89  C         32.1260   38.4890   65.2190 C.2   172  THR172      0.2287
     90  O         32.4750   39.1870   66.2100 O.2   172  THR172     -0.2866
     91  CB        30.0800   37.0560   65.4920 C.3   172  THR172      0.1770
     92  OG1       29.5500   37.9710   66.4690 O.3   172  THR172     -0.2211
     93  CG2       29.5550   35.6700   65.8740 C.3   172  THR172      0.0375
     94  N         31.5670   41.8220   61.8980 N.3   174  GLY174     -0.1225
     95  CA        31.2080   42.2360   60.5250 C.3   174  GLY174      0.1811
     96  C         32.4020   42.3240   59.6140 C.2   174  GLY174      0.2280
     97  O         32.2810   42.2920   58.4140 O.2   174  GLY174     -0.2866
     98  N         22.3670   39.9030   57.7450 N.3   186  TYR186     -0.1241
     99  CA        21.2370   40.3420   58.5370 C.3   186  TYR186      0.1605
    100  C         20.0860   40.9300   57.7290 C.2   186  TYR186      0.2264
    101  O         20.2710   41.5010   56.6280 O.2   186  TYR186     -0.2867
    102  CB        21.6430   41.3730   59.5570 C.3   186  TYR186      0.0534
    103  CG        22.8790   42.1240   59.2030 C.ar  186  TYR186     -0.0201
    104  CD1       24.1810   41.6390   59.5640 C.ar  186  TYR186     -0.0009
    105  CD2       22.7770   43.3420   58.5420 C.ar  186  TYR186     -0.0009
    106  CE1       25.3200   42.3780   59.2540 C.ar  186  TYR186      0.0417
    107  CE2       23.9040   44.0800   58.2320 C.ar  186  TYR186      0.0417
    108  CZ        25.1600   43.6150   58.5890 C.ar  186  TYR186      0.1957
    109  OH        26.2500   44.3980   58.2270 O.3   186  TYR186     -0.2866
    110  N         16.0650   42.9740   58.2860 N.3   188  HIS188     -0.1241
    111  CA        15.3840   43.8690   59.2190 C.3   188  HIS188      0.1621
    112  C         13.9140   43.9340   58.8420 C.2   188  HIS188      0.2264
    113  O         13.5850   44.1660   57.6650 O.2   188  HIS188     -0.2867
    114  CB        15.9600   45.3190   59.0920 C.3   188  HIS188      0.0745
    115  CG        17.4980   45.3620   59.0370 C.ar  188  HIS188      0.0817
    116  ND1       18.2530   45.1130   60.1260 N.ar  188  HIS188     -0.2268
    117  CD2       18.3730   45.6090   57.9950 C.ar  188  HIS188      0.1154
    118  CE1       19.5560   45.1800   59.8140 C.ar  188  HIS188      0.1986
    119  NE2       19.6420   45.4840   58.5000 N.ar  188  HIS188     -0.2212
    120  N         16.9190   55.4220   57.8180 N.3   201  PHE201     -0.1241
    121  CA        17.0310   53.9460   57.7130 C.3   201  PHE201      0.1605
    122  C         16.2760   53.2930   56.5470 C.2   201  PHE201      0.2264
    123  O         16.8320   52.4630   55.8670 O.2   201  PHE201     -0.2867
    124  CB        16.6110   53.2830   58.9830 C.3   201  PHE201      0.0534
    125  CG        16.8390   51.7750   58.9890 C.ar  201  PHE201     -0.0203
    126  CD1       18.1320   51.2570   59.0350 C.ar  201  PHE201     -0.0042
    127  CD2       15.7790   50.8880   58.9260 C.ar  201  PHE201     -0.0042
    128  CE1       18.3620   49.8750   59.0190 C.ar  201  PHE201     -0.0003
    129  CE2       15.9930   49.5030   58.9470 C.ar  201  PHE201     -0.0003
    130  CZ        17.2880   48.9890   58.9870 C.ar  201  PHE201     -0.0000
    131  N         16.4430   39.9430   72.0810 N.3   290  TYR290     -0.1241
    132  CA        17.1350   40.7480   73.0930 C.3   290  TYR290      0.1605
    133  C         17.0310   42.2200   72.6200 C.2   290  TYR290      0.2264
    134  O         16.8600   42.4480   71.4550 O.2   290  TYR290     -0.2867
    135  CB        18.5620   40.3110   73.3700 C.3   290  TYR290      0.0534
    136  CG        19.5610   40.2470   72.2150 C.ar  290  TYR290     -0.0201
    137  CD1       20.2250   41.4090   71.7490 C.ar  290  TYR290     -0.0009
    138  CD2       19.8820   39.0350   71.5880 C.ar  290  TYR290     -0.0009
    139  CE1       21.2260   41.3340   70.7720 C.ar  290  TYR290      0.0417
    140  CE2       20.8650   39.0160   70.5620 C.ar  290  TYR290      0.0417
    141  CZ        21.4530   40.1780   70.1300 C.ar  290  TYR290      0.1957
    142  OH        22.4290   40.1330   69.1060 O.3   290  TYR290     -0.2866
    143  N         18.7850   45.8130   71.7650 N.3   292  LEU292     -0.1245
    144  CA        20.0830   46.3500   71.4480 C.3   292  LEU292      0.1561
    145  C         19.7920   47.6590   70.7200 C.2   292  LEU292      0.2260
    146  O         19.6440   47.6570   69.4950 O.2   292  LEU292     -0.2867
    147  CB        20.9260   45.4290   70.6160 C.3   292  LEU292      0.0270
    148  CG        22.2760   45.9890   70.0810 C.3   292  LEU292      0.0019
    149  CD1       23.1290   46.7710   71.0940 C.3   292  LEU292      0.0001
    150  CD2       23.0650   44.8760   69.3960 C.3   292  LEU292      0.0001
    151  N         20.4450   51.2670   68.9650 N.3   294  SER294     -0.1217
    152  CA        21.5590   52.0420   68.4790 C.3   294  SER294      0.1889
    153  C         21.2860   53.5430   68.7250 C.2   294  SER294      0.2288
    154  O         20.1750   54.0250   68.6490 O.2   294  SER294     -0.2866
    155  CB        21.8360   51.8830   67.0080 C.3   294  SER294      0.2089
    156  OG        22.0140   50.5370   66.6490 O.3   294  SER294     -0.2183
    157  N         17.4750   54.5230   68.3050 N.3   305  LEU305     -0.1245
    158  CA        16.6490   53.5200   67.5720 C.3   305  LEU305      0.1561
    159  C         16.4820   52.2750   68.4840 C.2   305  LEU305      0.2260
    160  O         17.4450   51.7010   68.8400 O.2   305  LEU305     -0.2867
    161  CB        17.3770   53.1030   66.2940 C.3   305  LEU305      0.0270
    162  CG        16.7030   51.9640   65.4570 C.3   305  LEU305      0.0019
    163  CD1       15.2940   52.3800   64.9850 C.3   305  LEU305      0.0001
    164  CD2       17.5800   51.4700   64.3190 C.3   305  LEU305      0.0001
    165  N         16.4200   41.9480   68.5800 N.3   309  TYR309     -0.1241
    166  CA        17.2000   41.0780   67.8220 C.3   309  TYR309      0.1605
    167  C         16.7060   39.6390   68.1060 C.2   309  TYR309      0.2264
    168  O         16.7330   39.2000   69.2160 O.2   309  TYR309     -0.2867
    169  CB        18.7350   41.1490   68.1850 C.3   309  TYR309      0.0534
    170  CG        19.4130   42.3230   67.5570 C.ar  309  TYR309     -0.0201
    171  CD1       19.1610   43.5930   68.0790 C.ar  309  TYR309     -0.0009
    172  CD2       20.3350   42.1740   66.5000 C.ar  309  TYR309     -0.0009
    173  CE1       19.7360   44.7250   67.4990 C.ar  309  TYR309      0.0417
    174  CE2       20.8880   43.3050   65.8980 C.ar  309  TYR309      0.0417
    175  CZ        20.6030   44.5670   66.4790 C.ar  309  TYR309      0.1957
    176  OH        21.1460   45.7320   65.9770 O.3   309  TYR309     -0.2866
    177  N         15.2610   42.6750   64.0430 N.3   340  ASN340     -0.1225
    178  CA        16.4420   42.3160   63.2680 C.3   340  ASN340      0.1785
    179  C         16.6280   40.7690   63.3980 C.2   340  ASN340      0.2597
    180  O         16.4570   40.1870   64.4930 O.2   340  ASN340     -0.2718
    181  CB        17.6620   43.0120   63.8380 C.3   340  ASN340      0.1169
    182  CG        17.6170   44.5090   63.6200 C.2   340  ASN340      0.2627
    183  OD1       17.1140   44.9440   62.6050 O.2   340  ASN340     -0.2716
    184  ND2       18.0310   45.2630   64.5700 N.am  340  ASN340     -0.0877
    185  N         16.9940   40.1380   62.3120 N.am  341  ALA341     -0.1966
    186  CA        17.4500   38.7590   62.4530 C.3   341  ALA341      0.1728
    187  C         18.5630   38.3890   61.4650 C.2   341  ALA341      0.2616
    188  O         18.8280   39.0830   60.4340 O.2   341  ALA341     -0.2715
    189  CB        16.2730   37.8290   62.2200 C.3   341  ALA341      0.0334
    190  N         19.1640   37.2230   61.6910 N.am  342  LEU342     -0.1977
    191  CA        20.2010   36.7380   60.8040 C.3   342  LEU342      0.1596
    192  C         19.6020   35.5380   60.0470 C.2   342  LEU342      0.2287
    193  O         18.6500   34.8970   60.5520 O.2   342  LEU342     -0.2864
    194  CB        21.4360   36.2500   61.6250 C.3   342  LEU342      0.0297
    195  CG        22.1550   37.3860   62.3960 C.3   342  LEU342      0.0022
    196  CD1       22.9630   36.8300   63.5770 C.3   342  LEU342      0.0001
    197  CD2       23.0530   38.0970   61.4010 C.3   342  LEU342      0.0001
    198  N         27.3420   39.1440   59.0390 N.3   363  LEU363     -0.1245
    199  CA        28.0350   38.8200   60.2650 C.3   363  LEU363      0.1561
    200  C         28.7750   37.5290   60.0680 C.2   363  LEU363      0.2260
    201  O         28.1360   36.4850   59.7980 O.2   363  LEU363     -0.2867
    202  CB        27.0510   38.6790   61.4220 C.3   363  LEU363      0.0270
    203  CG        27.7310   38.5420   62.7890 C.3   363  LEU363      0.0019
    204  CD1       28.3810   39.8910   63.1840 C.3   363  LEU363      0.0001
    205  CD2       26.8330   38.0410   63.9410 C.3   363  LEU363      0.0001
    206  N         23.3440   32.1660   68.3010 N.3   383  VAL383     -0.1231
    207  CA        23.2330   33.6460   68.0930 C.3   383  VAL383      0.1692
    208  C         24.0260   34.2850   69.2370 C.2   383  VAL383      0.2592
    209  O         23.7080   34.0570   70.4480 O.2   383  VAL383     -0.2718
    210  CB        21.7740   34.1450   68.1100 C.3   383  VAL383      0.0266
    211  CG1       21.6730   35.7120   68.0460 C.3   383  VAL383      0.0020
    212  CG2       21.0460   33.5160   66.9150 C.3   383  VAL383      0.0020
    213  N         25.1150   34.9700   68.8700 N.am  384  LEU384     -0.1966
    214  CA        25.8880   35.7310   69.8460 C.3   384  LEU384      0.1728
    215  C         25.3870   37.1440   69.9960 C.2   384  LEU384      0.2616
    216  O         24.6280   37.6210   69.1820 O.2   384  LEU384     -0.2715
    217  CB        27.3770   35.7310   69.5200 C.3   384  LEU384      0.0311
    218  CG        28.0830   34.4390   69.1820 C.3   384  LEU384      0.0022
    219  CD1       29.4760   34.7320   69.5980 C.3   384  LEU384      0.0001
    220  CD2       27.5040   33.3040   69.9990 C.3   384  LEU384      0.0001
    221  N         25.8360   37.8430   71.0240 N.am  385  LEU385     -0.1977
    222  CA        25.1470   39.0510   71.3900 C.3   385  LEU385      0.1596
    223  C         25.7650   40.2660   70.7480 C.2   385  LEU385      0.2287
    224  O         26.9120   40.2560   70.3040 O.2   385  LEU385     -0.2864
    225  CB        25.1730   39.2230   72.9070 C.3   385  LEU385      0.0297
    226  CG        24.5130   38.0410   73.6290 C.3   385  LEU385      0.0022
    227  CD1       24.7160   38.2670   75.1150 C.3   385  LEU385      0.0001
    228  CD2       22.9980   37.9300   73.3470 C.3   385  LEU385      0.0001
@<TRIPOS>BOND
     1    44    42   ar
     2   123   122    2
     3    41    42    1
     4    41    38    1
     5    42    43   ar
     6   122   121    1
     7   101   100    2
     8    40    39    2
     9    39    38    1
    10    38    37    1
    11   113   112    2
    12   121   120    1
    13   121   124    1
    14   100    99    1
    15    98    99    1
    16   117   119   ar
    17   117   115   ar
    18   109   108    1
    19   107   105   ar
    20   107   108   ar
    21   110   111    1
    22    37    31   am
    23    97    96    2
    24   119   118   ar
    25    99   102    1
    26   105   103   ar
    27   108   106   ar
    28   112   111    1
    29    36    34   ar
    30   127   129   ar
    31   127   125   ar
    32   129   130   ar
    33   124   125    1
    34   130   128   ar
    35   125   126   ar
    36   128   126   ar
    37   115   114    1
    38   115   116   ar
    39   198   199    1
    40   114   111    1
    41   103   102    1
    42   103   104   ar
    43   106   104   ar
    44    31    32    2
    45    31    30    1
    46    96    95    1
    47   201   200    2
    48   118   116   ar
    49    34    33    1
    50    34    35   ar
    51   192   193    2
    52   192   191    1
    53   200   199    1
    54   199   202    1
    55    33    30    1
    56   188   187    2
    57    95    94    1
    58    30    29    1
    59    54    52   ar
    60    54    55   ar
    61   191   194    1
    62   191   190    1
    63   197   195    1
    64   202   203    1
    65    52    50   ar
    66   187   190   am
    67   187   186    1
    68    55    53   ar
    69   194   195    1
    70    29    22   am
    71    23    22    2
    72   189   186    1
    73   185   186    1
    74   185   179   am
    75   195   196    1
    76    22    21    1
    77   183   182    2
    78   203   204    1
    79   203   205    1
    80    45    46    1
    81    53    51   ar
    82    50    51   ar
    83    50    49    1
    84   178   179    1
    85   178   181    1
    86   178   177    1
    87   179   180    2
    88    27    26   ar
    89    49    46    1
    90    24    21    1
    91    24    25    1
    92   182   181    1
    93   182   184   am
    94    21    20    1
    95    46    47    1
    96    48    47    2
    97   164   162    1
    98    20    15   am
    99    26    25    1
   100    26    28   ar
   101    18    17    1
   102   163   162    1
   103    89    88    1
   104    89    90    2
   105    88    91    1
   106    88    87    1
   107   162   161    1
   108    91    93    1
   109    91    92    1
   110    15    16    2
   111    15    14    1
   112    66    64   ar
   113    66    65   ar
   114   174   175   ar
   115   174   172   ar
   116   176   175    1
   117    17    14    1
   118    17    19    1
   119    64    62   ar
   120   161   158    1
   121    65    63   ar
   122    14    13    1
   123   175   173   ar
   124   172   170   ar
   125   156   155    1
   126   212   210    1
   127   155   152    1
   128    62    61   ar
   129    63    61   ar
   130   173   171   ar
   131   170   171   ar
   132   170   169    1
   133   158   157    1
   134   158   159    1
   135     4     3    2
   136   166   167    1
   137   166   169    1
   138   166   165    1
   139    13     3   am
   140    61    60    1
   141    56    57    1
   142   211   210    1
   143   207   210    1
   144   207   206    1
   145   207   208    1
   146   167   168    2
   147     3     2    1
   148   152   153    1
   149   152   151    1
   150   159   160    2
   151   154   153    2
   152   213   208   am
   153   213   214    1
   154    57    60    1
   155    57    58    1
   156   142   141    1
   157   216   215    2
   158   218   217    1
   159   218   219    1
   160   218   220    1
   161   208   209    2
   162   150   148    1
   163   146   145    2
   164   217   214    1
   165   214   215    1
   166     2     1    1
   167     2     5    1
   168   215   221   am
   169   148   147    1
   170   148   149    1
   171   141   140   ar
   172   141   139   ar
   173   224   223    2
   174    58    59    2
   175    10     8   ar
   176    10    11   ar
   177    12    11    1
   178     8     6   ar
   179    11     9   ar
   180    78    77    1
   181   140   138   ar
   182   147   144    1
   183     6     7   ar
   184     6     5    1
   185   145   144    1
   186     9     7   ar
   187   223   222    1
   188   139   137   ar
   189   221   222    1
   190    85    84    2
   191   222   225    1
   192   144   143    1
   193   134   133    2
   194    75    77   ar
   195    75    73   ar
   196    77    76   ar
   197   138   136   ar
   198   137   136   ar
   199   131   132    1
   200    84    86   am
   201    84    83    1
   202   136   135    1
   203    73    72   ar
   204   133   132    1
   205    76    74   ar
   206    80    83    1
   207    80    79    1
   208    80    81    1
   209   225   226    1
   210   132   135    1
   211    81    82    2
   212   228   226    1
   213    72    74   ar
   214    72    71    1
   215   226   227    1
   216    67    68    1
   217    68    71    1
   218    68    69    1
   219    69    70    2
