@<TRIPOS>MOLECULE
tmp/4b13C00.pdb
 250 243 0 0 0
SMALL
GASTEIGER

@<TRIPOS>ATOM
      1  N         10.8220  -19.4770   91.7340 N.3    70  TYR70      -0.1227
      2  CA        10.5890  -18.2440   90.9840 C.3    70  TYR70       0.1736
      3  C         10.1790  -17.0400   91.8590 C.2    70  TYR70       0.2595
      4  O         10.3840  -17.0600   93.1040 O.2    70  TYR70      -0.2718
      5  CB         9.6360  -18.4870   89.8130 C.3    70  TYR70       0.0548
      6  CG         9.7820  -17.5290   88.6490 C.ar   70  TYR70      -0.0200
      7  CD1       11.0480  -17.2910   88.0210 C.ar   70  TYR70      -0.0009
      8  CD2        8.6610  -16.8860   88.0970 C.ar   70  TYR70      -0.0009
      9  CE1       11.1460  -16.3950   86.9520 C.ar   70  TYR70       0.0417
     10  CE2        8.7680  -15.9910   87.0330 C.ar   70  TYR70       0.0417
     11  CZ        10.0170  -15.7370   86.4680 C.ar   70  TYR70       0.1957
     12  OH        10.0930  -14.8980   85.4160 O.3    70  TYR70      -0.2866
     13  N          9.5960  -16.0020   91.2520 N.am   71  VAL71      -0.1966
     14  CA         9.3460  -14.6890   91.9320 C.3    71  VAL71       0.1727
     15  C          8.3870  -14.7690   93.1660 C.2    71  VAL71       0.2616
     16  O          7.2930  -15.3650   93.0900 O.2    71  VAL71      -0.2715
     17  CB         8.8090  -13.5610   90.9810 C.3    71  VAL71       0.0290
     18  CG1        9.0420  -12.1760   91.5990 C.3    71  VAL71       0.0023
     19  CG2        9.5400  -13.6140   89.6370 C.3    71  VAL71       0.0023
     20  N          8.7980  -14.1870   94.2900 N.am   72  GLU72      -0.1963
     21  CA         7.8980  -14.0850   95.4180 C.3    72  GLU72       0.1733
     22  C          7.5810  -12.6400   95.6840 C.2    72  GLU72       0.2616
     23  O          8.2330  -11.7370   95.1670 O.2    72  GLU72      -0.2715
     24  CB         8.5560  -14.6130   96.6640 C.3    72  GLU72       0.0429
     25  CG         8.8430  -16.1160   96.5800 C.3    72  GLU72       0.1163
     26  CD         9.2750  -16.7170   97.8920 C.2    72  GLU72       0.3649
     27  OE1        9.3760  -15.9840   98.9040 O.co2  72  GLU72      -0.2457
     28  OE2        9.4930  -17.9310   97.9290 O.co2  72  GLU72      -0.2457
     29  N          6.6230  -12.4060   96.5700 N.am   73  ASP73      -0.1957
     30  CA         6.3080  -11.0320   96.8480 C.3    73  ASP73       0.1840
     31  C          7.3700  -10.5870   97.8320 C.2    73  ASP73       0.2622
     32  O          8.1080  -11.4400   98.3530 O.2    73  ASP73      -0.2715
     33  CB         4.8740  -10.9030   97.3780 C.3    73  ASP73       0.1450
     34  CG         4.6890  -11.5540   98.6930 C.2    73  ASP73       0.3671
     35  OD1        4.7380  -12.7990   98.7580 O.co2  73  ASP73      -0.2456
     36  OD2        4.4820  -10.8000   99.6800 O.co2  73  ASP73      -0.2456
     37  N          7.4540   -9.2720   98.0350 N.am   74  ASP74      -0.1971
     38  CA         8.4180   -8.6270   98.9480 C.3    74  ASP74       0.1709
     39  C          8.3250   -9.1700  100.3820 C.2    74  ASP74       0.2293
     40  O          9.2700   -9.0630  101.1710 O.2    74  ASP74      -0.2864
     41  CB         8.2050   -7.0950   98.9080 C.3    74  ASP74       0.1436
     42  CG         9.3430   -6.3160   99.5520 C.2    74  ASP74       0.3671
     43  OD1       10.5090   -6.4530   99.1140 O.co2  74  ASP74      -0.2456
     44  OD2        9.0720   -5.5600  100.5040 O.co2  74  ASP74      -0.2456
     45  N          3.5940  -15.1090   98.8050 N.3    78  PHE78      -0.1241
     46  CA         3.1640  -15.7290   97.5340 C.3    78  PHE78       0.1605
     47  C          4.3610  -16.0500   96.6340 C.2    78  PHE78       0.2264
     48  O          5.3650  -15.3430   96.6550 O.2    78  PHE78      -0.2867
     49  CB         2.2900  -14.7650   96.7410 C.3    78  PHE78       0.0534
     50  CG         1.0470  -14.3440   97.4540 C.ar   78  PHE78      -0.0203
     51  CD1        0.0820  -15.2880   97.8400 C.ar   78  PHE78      -0.0042
     52  CD2        0.8230  -12.9920   97.6990 C.ar   78  PHE78      -0.0042
     53  CE1       -1.0760  -14.8800   98.5020 C.ar   78  PHE78      -0.0003
     54  CE2       -0.3380  -12.5780   98.3480 C.ar   78  PHE78      -0.0003
     55  CZ        -1.2810  -13.5170   98.7340 C.ar   78  PHE78      -0.0000
     56  N          4.8820  -16.9910   92.3590 N.3    80  PHE80      -0.1241
     57  CA         4.2670  -17.2540   91.0450 C.3    80  PHE80       0.1605
     58  C          4.3580  -18.7350   90.6770 C.2    80  PHE80       0.2264
     59  O          5.3730  -19.4030   90.9390 O.2    80  PHE80      -0.2867
     60  CB         4.9460  -16.4560   89.9510 C.3    80  PHE80       0.0534
     61  CG         4.5510  -15.0510   89.9280 C.ar   80  PHE80      -0.0203
     62  CD1        3.2610  -14.6680   90.2300 C.ar   80  PHE80      -0.0042
     63  CD2        5.4950  -14.0920   89.6760 C.ar   80  PHE80      -0.0042
     64  CE1        2.9090  -13.3210   90.2090 C.ar   80  PHE80      -0.0003
     65  CE2        5.1520  -12.7470   89.6570 C.ar   80  PHE80      -0.0003
     66  CZ         3.8670  -12.3740   89.9090 C.ar   80  PHE80      -0.0000
     67  N          3.5730  -20.5240   87.3780 N.3    82  TYR82      -0.1241
     68  CA         3.2120  -20.7690   86.0500 C.3    82  TYR82       0.1605
     69  C          3.0510  -22.2650   85.8510 C.2    82  TYR82       0.2264
     70  O          3.8970  -23.0730   86.3120 O.2    82  TYR82      -0.2867
     71  CB         4.3190  -20.3220   85.1210 C.3    82  TYR82       0.0534
     72  CG         4.5240  -18.8160   85.0390 C.ar   82  TYR82      -0.0201
     73  CD1        5.3960  -18.1470   85.8980 C.ar   82  TYR82      -0.0009
     74  CD2        3.8630  -18.0790   84.0710 C.ar   82  TYR82      -0.0009
     75  CE1        5.5960  -16.7790   85.7920 C.ar   82  TYR82       0.0417
     76  CE2        4.0330  -16.6950   83.9440 C.ar   82  TYR82       0.0417
     77  CZ         4.9050  -16.0640   84.8140 C.ar   82  TYR82       0.1957
     78  OH         5.1260  -14.7430   84.6990 O.3    82  TYR82      -0.2866
     79  N         12.4150  -14.0480   79.3430 N.3   136  ASN136     -0.1240
     80  CA        11.5680  -14.3210   80.5080 C.3   136  ASN136      0.1653
     81  C         12.0520  -15.5560   81.2100 C.2   136  ASN136      0.2266
     82  O         12.8320  -16.3010   80.6410 O.2   136  ASN136     -0.2867
     83  CB        10.1050  -14.5420   80.0990 C.3   136  ASN136      0.1155
     84  CG         9.1130  -13.9330   81.1220 C.2   136  ASN136      0.2627
     85  OD1        9.4000  -13.7660   82.3100 O.2   136  ASN136     -0.2716
     86  ND2        7.9290  -13.5410   80.6240 N.am  136  ASN136     -0.0877
     87  N         11.1750   -7.5530   81.3180 N.3   172  THR172     -0.1218
     88  CA        10.6190   -6.7960   82.4350 C.3   172  THR172      0.1862
     89  C         11.1220   -7.3520   83.7620 C.2   172  THR172      0.2287
     90  O         11.5350   -8.5420   83.9050 O.2   172  THR172     -0.2866
     91  CB         9.0680   -6.8780   82.5130 C.3   172  THR172      0.1770
     92  OG1        8.6600   -8.2430   82.5060 O.3   172  THR172     -0.2211
     93  CG2        8.4450   -6.1960   81.3720 C.3   172  THR172      0.0375
     94  N          1.1910   -1.7520   89.1720 N.3   186  TYR186     -0.1227
     95  CA         0.2010   -2.7950   89.0250 C.3   186  TYR186      0.1736
     96  C         -0.9650   -2.5590   89.9550 C.2   186  TYR186      0.2595
     97  O         -0.8050   -2.1070   91.0840 O.2   186  TYR186     -0.2718
     98  CB         0.7550   -4.2230   89.2010 C.3   186  TYR186      0.0548
     99  CG         1.9040   -4.4010   90.0980 C.ar  186  TYR186     -0.0200
    100  CD1        1.7330   -4.5140   91.4760 C.ar  186  TYR186     -0.0009
    101  CD2        3.1870   -4.5200   89.5700 C.ar  186  TYR186     -0.0009
    102  CE1        2.8210   -4.7170   92.3190 C.ar  186  TYR186      0.0417
    103  CE2        4.2790   -4.7260   90.4080 C.ar  186  TYR186      0.0417
    104  CZ         4.0790   -4.8070   91.7680 C.ar  186  TYR186      0.1957
    105  OH         5.1960   -5.0040   92.5280 O.3   186  TYR186     -0.2866
    106  N         -2.1250   -2.9460   89.4640 N.am  187  TYR187     -0.1962
    107  CA        -3.3880   -2.7950   90.2080 C.3   187  TYR187      0.1771
    108  C         -4.1520   -4.1310   90.2260 C.2   187  TYR187      0.2619
    109  O         -3.8930   -4.9970   89.3920 O.2   187  TYR187     -0.2715
    110  CB        -4.2070   -1.7550   89.4920 C.3   187  TYR187      0.0574
    111  CG        -3.6050   -0.3660   89.5420 C.ar  187  TYR187     -0.0198
    112  CD1       -2.5310   -0.0090   88.7060 C.ar  187  TYR187     -0.0009
    113  CD2       -4.1280    0.5960   90.4000 C.ar  187  TYR187     -0.0009
    114  CE1       -2.0480    1.2810   88.7110 C.ar  187  TYR187      0.0417
    115  CE2       -3.6280    1.8750   90.4340 C.ar  187  TYR187      0.0417
    116  CZ        -2.6030    2.2150   89.5820 C.ar  187  TYR187      0.1957
    117  OH        -2.1080    3.4950   89.6090 O.3   187  TYR187     -0.2866
    118  N         -5.0340   -4.3120   91.2050 N.am  188  HIS188     -0.1973
    119  CA        -5.8100   -5.5640   91.3280 C.3   188  HIS188      0.1656
    120  C         -7.2610   -5.3160   91.6180 C.2   188  HIS188      0.2291
    121  O         -7.5830   -4.4930   92.4440 O.2   188  HIS188     -0.2864
    122  CB        -5.3000   -6.4460   92.4910 C.3   188  HIS188      0.0771
    123  CG        -3.8890   -6.1210   92.9450 C.ar  188  HIS188      0.0820
    124  ND1       -2.7830   -6.5130   92.2480 N.ar  188  HIS188     -0.2267
    125  CD2       -3.4280   -5.4240   94.0600 C.ar  188  HIS188      0.1154
    126  CE1       -1.6700   -6.0480   92.8820 C.ar  188  HIS188      0.1986
    127  NE2       -2.0630   -5.3960   93.9880 N.ar  188  HIS188     -0.2212
    128  N         -3.7470  -10.5580  100.7980 N.3   201  PHE201     -0.1241
    129  CA        -3.3770  -10.0810   99.4680 C.3   201  PHE201      0.1605
    130  C         -3.0270   -8.5890   99.4040 C.2   201  PHE201      0.2264
    131  O         -3.8790   -7.7250   99.6410 O.2   201  PHE201     -0.2867
    132  CB        -4.4910  -10.4340   98.4820 C.3   201  PHE201      0.0534
    133  CG        -4.1690  -10.1090   97.0580 C.ar  201  PHE201     -0.0203
    134  CD1       -3.4750  -11.0120   96.2670 C.ar  201  PHE201     -0.0042
    135  CD2       -4.5600   -8.8980   96.5070 C.ar  201  PHE201     -0.0042
    136  CE1       -3.1750  -10.7090   94.9480 C.ar  201  PHE201     -0.0003
    137  CE2       -4.2580   -8.5880   95.1960 C.ar  201  PHE201     -0.0003
    138  CZ        -3.5670   -9.4960   94.4130 C.ar  201  PHE201     -0.0000
    139  N         -4.5960  -13.8870   80.7630 N.3   273  TYR273     -0.1241
    140  CA        -3.8960  -15.1400   80.9850 C.3   273  TYR273      0.1605
    141  C         -3.9560  -15.5550   82.4140 C.2   273  TYR273      0.2264
    142  O         -4.1770  -14.7300   83.2900 O.2   273  TYR273     -0.2867
    143  CB        -2.4470  -15.1580   80.4130 C.3   273  TYR273      0.0534
    144  CG        -1.4050  -14.2300   81.0410 C.ar  273  TYR273     -0.0201
    145  CD1       -0.7500  -14.5680   82.2520 C.ar  273  TYR273     -0.0009
    146  CD2       -1.1240  -13.0160   80.4570 C.ar  273  TYR273     -0.0009
    147  CE1        0.2310  -13.7480   82.7900 C.ar  273  TYR273      0.0417
    148  CE2       -0.1710  -12.2040   80.9790 C.ar  273  TYR273      0.0417
    149  CZ         0.4830  -12.5470   82.1480 C.ar  273  TYR273      0.1957
    150  OH         1.4110  -11.6700   82.6350 O.3   273  TYR273     -0.2866
    151  N         -2.3030  -17.0150   85.6160 N.3   275  LEU275     -0.1245
    152  CA        -1.0370  -17.1750   86.3930 C.3   275  LEU275      0.1561
    153  C         -1.3320  -17.2940   87.8820 C.2   275  LEU275      0.2260
    154  O         -1.5280  -16.2700   88.5660 O.2   275  LEU275     -0.2867
    155  CB        -0.0170  -16.0750   86.1010 C.3   275  LEU275      0.0270
    156  CG         1.1980  -15.9730   87.0100 C.3   275  LEU275      0.0019
    157  CD1        1.9620  -17.2900   87.0530 C.3   275  LEU275      0.0001
    158  CD2        2.0610  -14.7490   86.6140 C.3   275  LEU275      0.0001
    159  N         -0.6460  -18.0810   91.8740 N.3   277  SER277     -0.1217
    160  CA         0.4650  -18.0030   92.8400 C.3   277  SER277      0.1889
    161  C          0.2710  -19.0670   93.8730 C.2   277  SER277      0.2288
    162  O         -0.8480  -19.3940   94.2080 O.2   277  SER277     -0.2866
    163  CB         0.5610  -16.6280   93.4990 C.3   277  SER277      0.2089
    164  OG         0.9060  -15.6350   92.5600 O.3   277  SER277     -0.2183
    165  N         -3.6330  -19.2450   94.8890 N.3   288  LEU288     -0.1245
    166  CA        -4.3300  -18.0820   94.3730 C.3   288  LEU288      0.1561
    167  C         -4.5370  -18.2510   92.8360 C.2   288  LEU288      0.2260
    168  O         -3.5970  -18.5070   92.0940 O.2   288  LEU288     -0.2867
    169  CB        -3.5460  -16.7870   94.6670 C.3   288  LEU288      0.0270
    170  CG        -4.2230  -15.4740   94.2490 C.3   288  LEU288      0.0019
    171  CD1       -5.5740  -15.2830   94.8800 C.3   288  LEU288      0.0001
    172  CD2       -3.3730  -14.2370   94.5390 C.3   288  LEU288      0.0001
    173  N         -4.5630  -12.3200   84.5270 N.3   292  TYR292     -0.1227
    174  CA        -3.7670  -11.1210   84.2520 C.3   292  TYR292      0.1736
    175  C         -4.2310  -10.4960   82.9380 C.2   292  TYR292      0.2596
    176  O         -4.2210  -11.1480   81.9140 O.2   292  TYR292     -0.2718
    177  CB        -2.2380  -11.4230   84.1880 C.3   292  TYR292      0.0548
    178  CG        -1.6630  -11.6990   85.5470 C.ar  292  TYR292     -0.0200
    179  CD1       -1.9600  -12.8730   86.2450 C.ar  292  TYR292     -0.0009
    180  CD2       -0.7040  -10.8200   86.0960 C.ar  292  TYR292     -0.0009
    181  CE1       -1.3950  -13.1200   87.5200 C.ar  292  TYR292      0.0417
    182  CE2       -0.1920  -11.0380   87.3580 C.ar  292  TYR292      0.0417
    183  CZ        -0.5250  -12.1920   88.0320 C.ar  292  TYR292      0.1957
    184  OH         0.0340  -12.3730   89.2870 O.3   292  TYR292     -0.2866
    185  N         -4.5600   -9.2100   82.9670 N.am  293  SER293     -0.1952
    186  CA        -5.0840   -8.5500   81.7320 C.3   293  SER293      0.1924
    187  C         -4.0240   -8.5750   80.6300 C.2   293  SER293      0.2314
    188  O         -2.8270   -8.2830   80.8820 O.2   293  SER293     -0.2863
    189  CB        -5.5230   -7.1120   82.0360 C.3   293  SER293      0.2116
    190  OG        -5.6870   -6.3430   80.8380 O.3   293  SER293     -0.2180
    191  N         -5.6890   -8.8930   87.7680 N.3   323  ASN323     -0.1225
    192  CA        -4.5180   -8.0580   87.8340 C.3   323  ASN323      0.1785
    193  C         -4.2920   -7.3110   86.5570 C.2   323  ASN323      0.2597
    194  O         -4.4750   -7.8460   85.4560 O.2   323  ASN323     -0.2718
    195  CB        -3.3300   -8.9880   88.1070 C.3   323  ASN323      0.1169
    196  CG        -3.4070   -9.6060   89.4950 C.2   323  ASN323      0.2627
    197  OD1       -3.5170   -8.8710   90.4970 O.2   323  ASN323     -0.2716
    198  ND2       -3.3020  -10.9550   89.5830 N.am  323  ASN323     -0.0877
    199  N         -3.9600   -6.0380   86.6720 N.am  324  ALA324     -0.1966
    200  CA        -3.5950   -5.2950   85.4710 C.3   324  ALA324      0.1728
    201  C         -2.4610   -4.3030   85.7180 C.2   324  ALA324      0.2616
    202  O         -2.2300   -3.9190   86.8590 O.2   324  ALA324     -0.2715
    203  CB        -4.8190   -4.5220   84.9630 C.3   324  ALA324      0.0334
    204  N         -1.8180   -3.8370   84.6550 N.am  325  LEU325     -0.1977
    205  CA        -0.8310   -2.7740   84.7880 C.3   325  LEU325      0.1596
    206  C         -1.3590   -1.4800   84.1530 C.2   325  LEU325      0.2287
    207  O         -2.1220   -1.5260   83.1270 O.2   325  LEU325     -0.2864
    208  CB         0.4280   -3.1300   83.9900 C.3   325  LEU325      0.0297
    209  CG         1.2360   -4.4270   84.2900 C.3   325  LEU325      0.0022
    210  CD1        1.9620   -4.9620   83.0390 C.3   325  LEU325      0.0001
    211  CD2        2.2320   -4.2840   85.4370 C.3   325  LEU325      0.0001
    212  N          1.7430   -2.7390   95.5400 N.3   343  ASP343     -0.1239
    213  CA         2.8310   -2.2050   96.3780 C.3   343  ASP343      0.1674
    214  C          4.0280   -1.7110   95.5820 C.2   343  ASP343      0.2266
    215  O          4.9930   -1.1980   96.1720 O.2   343  ASP343     -0.2867
    216  CB         3.3440   -3.2440   97.3920 C.3   343  ASP343      0.1410
    217  CG         2.2940   -3.6660   98.4040 C.2   343  ASP343      0.3668
    218  OD1        1.9610   -2.8820   99.3260 O.co2 343  ASP343     -0.2456
    219  OD2        1.8090   -4.8110   98.2820 O.co2 343  ASP343     -0.2456
    220  N          6.2220   -2.7480   87.6740 N.3   346  LEU346     -0.1245
    221  CA         6.9070   -3.5420   86.6790 C.3   346  LEU346      0.1561
    222  C          7.6860   -2.5830   85.7810 C.2   346  LEU346      0.2260
    223  O          7.1340   -1.6010   85.2640 O.2   346  LEU346     -0.2867
    224  CB         5.9240   -4.3000   85.8080 C.3   346  LEU346      0.0270
    225  CG         6.5980   -5.3950   84.9940 C.3   346  LEU346      0.0019
    226  CD1        7.2400   -6.4900   85.8850 C.3   346  LEU346      0.0001
    227  CD2        5.6550   -5.9610   83.9430 C.3   346  LEU346      0.0001
    228  N          2.2600   -6.2230   76.7140 N.3   366  VAL366     -0.1231
    229  CA         2.2780   -6.9560   77.9590 C.3   366  VAL366      0.1692
    230  C          3.0080   -8.2870   77.7970 C.2   366  VAL366      0.2592
    231  O          2.6690   -9.0700   76.8960 O.2   366  VAL366     -0.2718
    232  CB         0.8020   -7.1800   78.3290 C.3   366  VAL366      0.0266
    233  CG1        0.6330   -8.0970   79.5440 C.3   366  VAL366      0.0020
    234  CG2        0.1400   -5.8270   78.5540 C.3   366  VAL366      0.0020
    235  N          3.9990   -8.5100   78.6610 N.am  367  LEU367     -0.1966
    236  CA         4.7830   -9.7230   78.6820 C.3   367  LEU367      0.1728
    237  C          4.2510  -10.5720   79.7830 C.2   367  LEU367      0.2616
    238  O          3.5240  -10.1150   80.6580 O.2   367  LEU367     -0.2715
    239  CB         6.2910   -9.4630   78.9800 C.3   367  LEU367      0.0311
    240  CG         7.2500   -8.5950   78.1470 C.3   367  LEU367      0.0022
    241  CD1        8.7000   -9.0570   78.3130 C.3   367  LEU367      0.0001
    242  CD2        6.8830   -8.5740   76.6860 C.3   367  LEU367      0.0001
    243  N          4.7350  -11.7870   79.8200 N.am  368  LEU368     -0.1977
    244  CA         4.0990  -12.8450   80.5850 C.3   368  LEU368      0.1596
    245  C          4.6760  -12.9410   81.9870 C.2   368  LEU368      0.2287
    246  O          5.7540  -12.3640   82.2900 O.2   368  LEU368     -0.2864
    247  CB         4.1920  -14.1520   79.8660 C.3   368  LEU368      0.0297
    248  CG         3.7780  -14.2020   78.3860 C.3   368  LEU368      0.0022
    249  CD1        3.8980  -15.6430   77.9330 C.3   368  LEU368      0.0001
    250  CD2        2.3880  -13.6830   78.1020 C.3   368  LEU368      0.0001
@<TRIPOS>BOND
     1   242   240    1
     2   228   229    1
     3   231   230    2
     4   230   229    1
     5   230   235   am
     6   249   248    1
     7   229   232    1
     8   250   248    1
     9   240   241    1
    10   240   239    1
    11   232   234    1
    12   232   233    1
    13   248   247    1
    14   235   236    1
    15   236   239    1
    16   236   237    1
    17    79    80    1
    18   237   243   am
    19   237   238    2
    20   243   244    1
    21   247   244    1
    22    83    80    1
    23    83    84    1
    24   143   140    1
    25   143   144    1
    26   146   148   ar
    27   146   144   ar
    28    80    81    1
    29   244   245    1
    30    86    84   am
    31   187   188    2
    32   187   186    1
    33    82    81    2
    34   139   140    1
    35   190   189    1
    36   148   149   ar
    37   140   141    1
    38   144   145   ar
    39    84    85    2
    40    87    88    1
    41    93    91    1
    42   186   189    1
    43   186   185    1
    44   176   175    2
    45   245   246    2
    46   149   150    1
    47   149   147   ar
    48   145   147   ar
    49   141   142    2
    50    88    91    1
    51    88    89    1
    52    92    91    1
    53   175   185   am
    54   175   174    1
    55   210   209    1
    56   207   206    2
    57    89    90    2
    58   227   225    1
    59    76    74   ar
    60    76    77   ar
    61   208   209    1
    62   208   205    1
    63    74    72   ar
    64   206   205    1
    65   177   174    1
    66   177   178    1
    67   174   173    1
    68   209   211    1
    69   204   205    1
    70   204   201   am
    71    78    77    1
    72    77    75   ar
    73   203   200    1
    74   225   224    1
    75   225   226    1
    76    72    71    1
    77    72    73   ar
    78    71    68    1
    79   223   222    2
    80    12    11    1
    81   194   193    2
    82   200   201    1
    83   200   199    1
    84   178   180   ar
    85   178   179   ar
    86   151   152    1
    87   201   202    2
    88   222   221    1
    89    75    73   ar
    90   224   221    1
    91    69    68    1
    92    69    70    2
    93    68    67    1
    94   180   182   ar
    95   155   152    1
    96   155   156    1
    97   179   181   ar
    98   152   153    1
    99    11     9   ar
   100    11    10   ar
   101   193   199   am
   102   193   192    1
   103   158   156    1
   104   221   220    1
   105     9     7   ar
   106   156   157    1
   107    10     8   ar
   108   182   183   ar
   109   181   183   ar
   110   191   192    1
   111   192   195    1
   112   153   154    2
   113     7     6   ar
   114   183   184    1
   115     8     6   ar
   116   195   196    1
   117     6     5    1
   118   112   114   ar
   119   112   111   ar
   120   114   116   ar
   121    95    94    1
   122    95    98    1
   123    95    96    1
   124    98    99    1
   125   109   108    2
   126   106    96   am
   127   106   107    1
   128   110   111    1
   129   110   107    1
   130   196   198   am
   131   196   197    2
   132   111   113   ar
   133   101    99   ar
   134   101   103   ar
   135   116   117    1
   136   116   115   ar
   137    19    17    1
   138    65    63   ar
   139    65    66   ar
   140    63    61   ar
   141     5     2    1
   142    66    64   ar
   143    61    60    1
   144    61    62   ar
   145    60    57    1
   146    96    97    2
   147    99   100   ar
   148   107   108    1
   149    64    62   ar
   150   108   118   am
   151   113   115   ar
   152   103   104   ar
   153    58    59    2
   154    58    57    1
   155    17    18    1
   156    17    14    1
   157     2     1    1
   158     2     3    1
   159    57    56    1
   160   118   119    1
   161    13     3   am
   162    13    14    1
   163   119   120    1
   164   119   122    1
   165   100   102   ar
   166   120   121    2
   167   104   102   ar
   168   104   105    1
   169     3     4    2
   170   159   160    1
   171    14    15    1
   172   168   167    2
   173   124   126   ar
   174   124   123   ar
   175   122   123    1
   176   164   163    1
   177   167   166    1
   178   160   163    1
   179   160   161    1
   180   126   127   ar
   181   123   125   ar
   182    16    15    2
   183    15    20   am
   184   161   162    2
   185   127   125   ar
   186   170   172    1
   187   170   169    1
   188   170   171    1
   189    20    21    1
   190   166   169    1
   191   166   165    1
   192   138   136   ar
   193   138   137   ar
   194   136   134   ar
   195    23    22    2
   196   137   135   ar
   197    21    22    1
   198    21    24    1
   199   212   213    1
   200   214   215    2
   201   214   213    1
   202    22    29   am
   203   134   133   ar
   204   213   216    1
   205   135   133   ar
   206    29    30    1
   207    25    24    1
   208    25    26    1
   209    47    48    2
   210    47    46    1
   211    49    50    1
   212    49    46    1
   213    30    33    1
   214    30    31    1
   215   133   132    1
   216    33    34    1
   217   216   217    1
   218    50    52   ar
   219    50    51   ar
   220    46    45    1
   221    52    54   ar
   222    31    37   am
   223    31    32    2
   224    51    53   ar
   225    26    28   ar
   226    26    27   ar
   227    37    38    1
   228   219   217   ar
   229    54    55   ar
   230   217   218   ar
   231   132   129    1
   232    53    55   ar
   233    34    35   ar
   234    34    36   ar
   235    41    38    1
   236    41    42    1
   237    38    39    1
   238    43    42   ar
   239   130   129    1
   240   130   131    2
   241   129   128    1
   242    42    44   ar
   243    39    40    2
