@<TRIPOS>MOLECULE
tmp/4b14C00.pdb
 228 219 0 0 0
SMALL
GASTEIGER

@<TRIPOS>ATOM
      1  N         10.7490  -19.4410   92.1530 N.3    69  TYR69      -0.1227
      2  CA        10.5210  -18.2730   91.2940 C.3    69  TYR69       0.1736
      3  C         10.1640  -16.9740   92.1220 C.2    69  TYR69       0.2595
      4  O         10.4150  -16.9260   93.3430 O.2    69  TYR69      -0.2718
      5  CB         9.5890  -18.5960   90.1490 C.3    69  TYR69       0.0548
      6  CG         9.7380  -17.5910   88.9810 C.ar   69  TYR69      -0.0200
      7  CD1       11.0090  -17.2770   88.4040 C.ar   69  TYR69      -0.0009
      8  CD2        8.6270  -16.9500   88.4360 C.ar   69  TYR69      -0.0009
      9  CE1       11.1120  -16.3180   87.3990 C.ar   69  TYR69       0.0417
     10  CE2        8.7190  -15.9770   87.4070 C.ar   69  TYR69       0.0417
     11  CZ         9.9620  -15.6780   86.9020 C.ar   69  TYR69       0.1957
     12  OH        10.0800  -14.7990   85.8720 O.3    69  TYR69      -0.2866
     13  N          9.6450  -15.9220   91.4960 N.am   70  VAL70      -0.1966
     14  CA         9.3000  -14.6680   92.2380 C.3    70  VAL70       0.1727
     15  C          8.3360  -14.8210   93.4460 C.2    70  VAL70       0.2616
     16  O          7.2590  -15.4150   93.3250 O.2    70  VAL70      -0.2715
     17  CB         8.6790  -13.5910   91.3300 C.3    70  VAL70       0.0290
     18  CG1        8.6890  -12.1940   91.9700 C.3    70  VAL70       0.0023
     19  CG2        9.5650  -13.4330   90.1230 C.3    70  VAL70       0.0023
     20  N          8.7310  -14.2040   94.5570 N.am   71  GLU71      -0.1963
     21  CA         7.9000  -13.9910   95.7340 C.3    71  GLU71       0.1733
     22  C          7.5260  -12.5290   95.8990 C.2    71  GLU71       0.2616
     23  O          8.2170  -11.6100   95.4240 O.2    71  GLU71      -0.2715
     24  CB         8.6480  -14.4200   97.0040 C.3    71  GLU71       0.0429
     25  CG         8.8580  -15.9260   96.8550 C.3    71  GLU71       0.1163
     26  CD         9.4080  -16.6320   98.0780 C.2    71  GLU71       0.3649
     27  OE1        9.4040  -16.0100   99.1510 O.co2  71  GLU71      -0.2457
     28  OE2        9.7630  -17.8420   98.0140 O.co2  71  GLU71      -0.2457
     29  N          6.4380  -12.2970   96.6240 N.am   72  ASP72      -0.1957
     30  CA         6.0820  -10.9130   96.9200 C.3    72  ASP72       0.1840
     31  C          7.0930  -10.4630   97.9680 C.2    72  ASP72       0.2622
     32  O          7.8820  -11.2770   98.4480 O.2    72  ASP72      -0.2715
     33  CB         4.6500  -10.8640   97.5010 C.3    72  ASP72       0.1450
     34  CG         4.6000  -11.4440   98.8700 C.2    72  ASP72       0.3671
     35  OD1        4.7930  -12.6400   98.9460 O.co2  72  ASP72      -0.2456
     36  OD2        4.4120  -10.7300   99.8870 O.co2  72  ASP72      -0.2456
     37  N          7.0440   -9.1840   98.3250 N.am   73  ASP73      -0.1971
     38  CA         8.0750   -8.5820   99.2060 C.3    73  ASP73       0.1709
     39  C          8.0590   -9.0670  100.6440 C.2    73  ASP73       0.2293
     40  O          9.0780   -9.0140  101.3430 O.2    73  ASP73      -0.2864
     41  CB         8.0640   -7.0370   99.1600 C.3    73  ASP73       0.1436
     42  CG         8.5710   -6.5030   97.8510 C.2    73  ASP73       0.3671
     43  OD1        7.7660   -6.3610   96.9000 O.co2  73  ASP73      -0.2456
     44  OD2        9.7870   -6.2140   97.7540 O.co2  73  ASP73      -0.2456
     45  N          3.6140  -15.1090   99.0830 N.3    77  PHE77      -0.1241
     46  CA         3.1060  -15.6830   97.8490 C.3    77  PHE77       0.1605
     47  C          4.3390  -15.9610   96.9610 C.2    77  PHE77       0.2264
     48  O          5.3330  -15.2460   97.0270 O.2    77  PHE77      -0.2867
     49  CB         2.1850  -14.6910   97.0930 C.3    77  PHE77       0.0534
     50  CG         1.0300  -14.1700   97.9160 C.ar   77  PHE77      -0.0203
     51  CD1       -0.1070  -14.9410   98.0910 C.ar   77  PHE77      -0.0042
     52  CD2        1.0950  -12.9040   98.4670 C.ar   77  PHE77      -0.0042
     53  CE1       -1.1600  -14.4670   98.8560 C.ar   77  PHE77      -0.0003
     54  CE2        0.0640  -12.4240   99.2220 C.ar   77  PHE77      -0.0003
     55  CZ        -1.0660  -13.1930   99.4080 C.ar   77  PHE77      -0.0000
     56  N          4.8470  -16.8970   92.6000 N.3    79  PHE79      -0.1241
     57  CA         4.1740  -17.1870   91.3430 C.3    79  PHE79       0.1605
     58  C          4.2910  -18.6920   91.0270 C.2    79  PHE79       0.2264
     59  O          5.3180  -19.3710   91.3750 O.2    79  PHE79      -0.2867
     60  CB         4.8180  -16.3590   90.1930 C.3    79  PHE79       0.0534
     61  CG         4.3760  -14.9560   90.1780 C.ar   79  PHE79      -0.0203
     62  CD1        3.0630  -14.5960   90.5260 C.ar   79  PHE79      -0.0042
     63  CD2        5.2880  -13.9490   89.8530 C.ar   79  PHE79      -0.0042
     64  CE1        2.6870  -13.2200   90.5520 C.ar   79  PHE79      -0.0003
     65  CE2        4.9070  -12.6250   89.8530 C.ar   79  PHE79      -0.0003
     66  CZ         3.6170  -12.2710   90.1640 C.ar   79  PHE79      -0.0000
     67  N          3.5150  -20.5120   87.7640 N.3    81  TYR81      -0.1241
     68  CA         3.1790  -20.7190   86.3820 C.3    81  TYR81       0.1605
     69  C          2.9910  -22.2050   86.1400 C.2    81  TYR81       0.2264
     70  O          3.8730  -22.9860   86.5020 O.2    81  TYR81      -0.2867
     71  CB         4.2870  -20.1980   85.4580 C.3    81  TYR81       0.0534
     72  CG         4.3740  -18.6750   85.3720 C.ar   81  TYR81      -0.0201
     73  CD1        5.1760  -17.9880   86.2710 C.ar   81  TYR81      -0.0009
     74  CD2        3.7530  -17.9390   84.3610 C.ar   81  TYR81      -0.0009
     75  CE1        5.3200  -16.6360   86.1740 C.ar   81  TYR81       0.0417
     76  CE2        3.8780  -16.5540   84.2800 C.ar   81  TYR81       0.0417
     77  CZ         4.6590  -15.9300   85.1950 C.ar   81  TYR81       0.1957
     78  OH         4.9420  -14.5970   85.2470 O.3    81  TYR81      -0.2866
     79  N         12.3540  -14.0630   79.7800 N.3   135  ASN135     -0.1240
     80  CA        11.4610  -14.3610   80.9150 C.3   135  ASN135      0.1653
     81  C         11.9680  -15.5430   81.6190 C.2   135  ASN135      0.2266
     82  O         12.8180  -16.2890   81.0160 O.2   135  ASN135     -0.2867
     83  CB         9.9770  -14.5250   80.4590 C.3   135  ASN135      0.1155
     84  CG         8.9980  -13.9380   81.4570 C.2   135  ASN135      0.2627
     85  OD1        9.3250  -13.8250   82.6700 O.2   135  ASN135     -0.2716
     86  ND2        7.8390  -13.4900   80.9820 N.am  135  ASN135     -0.0877
     87  N         11.1370   -7.4890   81.7570 N.3   171  THR171     -0.1218
     88  CA        10.4520   -6.7730   82.8350 C.3   171  THR171      0.1862
     89  C         10.9830   -7.3290   84.1320 C.2   171  THR171      0.2287
     90  O         11.2120   -8.5700   84.2550 O.2   171  THR171     -0.2866
     91  CB         8.8820   -6.9150   82.8170 C.3   171  THR171      0.1770
     92  OG1        8.5440   -8.3170   82.7090 O.3   171  THR171     -0.2211
     93  CG2        8.3590   -6.2830   81.6530 C.3   171  THR171      0.0375
     94  N         10.4080   -6.6200   88.6350 N.3   173  GLY173     -0.1225
     95  CA        10.0340   -5.8830   89.8250 C.3   173  GLY173      0.1811
     96  C         11.1860   -5.0730   90.4750 C.2   173  GLY173      0.2280
     97  O         10.9660   -3.9870   91.0220 O.2   173  GLY173     -0.2866
     98  N          1.2590   -1.8740   89.5230 N.3   185  TYR185     -0.1241
     99  CA         0.1760   -2.8180   89.4420 C.3   185  TYR185      0.1605
    100  C         -0.9440   -2.5620   90.4490 C.2   185  TYR185      0.2264
    101  O         -0.7980   -1.9530   91.4920 O.2   185  TYR185     -0.2867
    102  CB         0.6550   -4.2810   89.3770 C.3   185  TYR185      0.0534
    103  CG         1.7800   -4.5380   90.3010 C.ar  185  TYR185     -0.0201
    104  CD1        1.5340   -4.6950   91.6460 C.ar  185  TYR185     -0.0009
    105  CD2        3.0980   -4.6120   89.8560 C.ar  185  TYR185     -0.0009
    106  CE1        2.5450   -4.8820   92.5580 C.ar  185  TYR185      0.0417
    107  CE2        4.1410   -4.8360   90.7790 C.ar  185  TYR185      0.0417
    108  CZ         3.8440   -4.9880   92.1020 C.ar  185  TYR185      0.1957
    109  OH         4.8680   -5.2320   92.9800 O.3   185  TYR185     -0.2866
    110  N         -5.0320   -4.4280   91.5800 N.3   187  HIS187     -0.1241
    111  CA        -5.7710   -5.6580   91.8650 C.3   187  HIS187      0.1621
    112  C         -7.2490   -5.4100   92.1180 C.2   187  HIS187      0.2264
    113  O         -7.6200   -4.4780   92.8600 O.2   187  HIS187     -0.2867
    114  CB        -5.1660   -6.2910   93.1360 C.3   187  HIS187      0.0745
    115  CG        -3.6420   -6.2290   93.1850 C.ar  187  HIS187      0.0817
    116  ND1       -2.8850   -6.9270   92.3400 N.ar  187  HIS187     -0.2268
    117  CD2       -2.7760   -5.5410   94.0080 C.ar  187  HIS187      0.1154
    118  CE1       -1.5800   -6.7340   92.6190 C.ar  187  HIS187      0.1986
    119  NE2       -1.5040   -5.8570   93.6100 N.ar  187  HIS187     -0.2212
    120  N         -3.7740  -10.5480  101.0850 N.3   200  PHE200     -0.1241
    121  CA        -3.3280  -10.0860   99.7550 C.3   200  PHE200      0.1605
    122  C         -3.1910   -8.5670   99.5230 C.2   200  PHE200      0.2264
    123  O         -4.0530   -7.7660   99.9010 O.2   200  PHE200     -0.2867
    124  CB        -4.2390  -10.7500   98.6900 C.3   200  PHE200      0.0534
    125  CG        -3.9660  -10.2930   97.2770 C.ar  200  PHE200     -0.0203
    126  CD1       -4.5890   -9.1520   96.7450 C.ar  200  PHE200     -0.0042
    127  CD2       -3.0880  -10.9930   96.4720 C.ar  200  PHE200     -0.0042
    128  CE1       -4.2950   -8.7060   95.4510 C.ar  200  PHE200     -0.0003
    129  CE2       -2.8120  -10.5740   95.1830 C.ar  200  PHE200     -0.0003
    130  CZ        -3.4010   -9.4110   94.6570 C.ar  200  PHE200     -0.0000
    131  N         -4.7210  -13.7620   81.0670 N.3   272  TYR272     -0.1241
    132  CA        -4.0850  -15.0300   81.3470 C.3   272  TYR272      0.1605
    133  C         -4.0600  -15.4350   82.7990 C.2   272  TYR272      0.2264
    134  O         -4.2180  -14.6100   83.7080 O.2   272  TYR272     -0.2867
    135  CB        -2.6540  -15.0670   80.7690 C.3   272  TYR272      0.0534
    136  CG        -1.5900  -14.1810   81.3960 C.ar  272  TYR272     -0.0201
    137  CD1       -0.8740  -14.6140   82.5340 C.ar  272  TYR272     -0.0009
    138  CD2       -1.2580  -12.9400   80.8690 C.ar  272  TYR272     -0.0009
    139  CE1        0.1350  -13.8420   83.1230 C.ar  272  TYR272      0.0417
    140  CE2       -0.2310  -12.2040   81.4750 C.ar  272  TYR272      0.0417
    141  CZ         0.4480  -12.6470   82.5450 C.ar  272  TYR272      0.1957
    142  OH         1.4190  -11.8270   83.0720 O.3   272  TYR272     -0.2866
    143  N         -2.3240  -16.9230   86.0330 N.3   274  LEU274     -0.1245
    144  CA        -1.0940  -17.1220   86.8280 C.3   274  LEU274      0.1561
    145  C         -1.4460  -17.2380   88.2870 C.2   274  LEU274      0.2260
    146  O         -1.7090  -16.2000   88.9050 O.2   274  LEU274     -0.2867
    147  CB        -0.0920  -15.9900   86.5300 C.3   274  LEU274      0.0270
    148  CG         1.1430  -15.8090   87.4360 C.3   274  LEU274      0.0019
    149  CD1        1.9250  -17.1040   87.5300 C.3   274  LEU274      0.0001
    150  CD2        2.0110  -14.5830   87.1050 C.3   274  LEU274      0.0001
    151  N         -0.7260  -17.9640   92.3170 N.3   276  SER276     -0.1217
    152  CA         0.3900  -17.8820   93.2240 C.3   276  SER276      0.1889
    153  C          0.2320  -18.9640   94.2580 C.2   276  SER276      0.2288
    154  O         -0.8570  -19.3100   94.6630 O.2   276  SER276     -0.2866
    155  CB         0.4940  -16.5050   93.9000 C.3   276  SER276      0.2089
    156  OG         0.7340  -15.4990   92.9740 O.3   276  SER276     -0.2183
    157  N         -3.7100  -19.1690   95.1420 N.3   287  LEU287     -0.1245
    158  CA        -4.4380  -17.9870   94.8010 C.3   287  LEU287      0.1561
    159  C         -4.6350  -18.1250   93.2890 C.2   287  LEU287      0.2260
    160  O         -3.6690  -18.2790   92.5350 O.2   287  LEU287     -0.2867
    161  CB        -3.5990  -16.7620   95.1280 C.3   287  LEU287      0.0270
    162  CG        -4.1240  -15.4370   94.5490 C.3   287  LEU287      0.0019
    163  CD1       -5.4810  -15.0720   95.0870 C.3   287  LEU287      0.0001
    164  CD2       -3.1560  -14.2640   94.8590 C.3   287  LEU287      0.0001
    165  N         -4.7120  -12.2270   84.8850 N.3   291  TYR291     -0.1241
    166  CA        -3.8180  -11.0620   84.5840 C.3   291  TYR291      0.1605
    167  C         -4.3300  -10.4530   83.2860 C.2   291  TYR291      0.2264
    168  O         -4.3260  -11.0890   82.2370 O.2   291  TYR291     -0.2867
    169  CB        -2.3030  -11.4130   84.5120 C.3   291  TYR291      0.0534
    170  CG        -1.7080  -11.6720   85.9150 C.ar  291  TYR291     -0.0201
    171  CD1       -2.0870  -12.7900   86.6610 C.ar  291  TYR291     -0.0009
    172  CD2       -0.7780  -10.7870   86.4890 C.ar  291  TYR291     -0.0009
    173  CE1       -1.5100  -13.0580   87.9040 C.ar  291  TYR291      0.0417
    174  CE2       -0.2600  -10.9820   87.7520 C.ar  291  TYR291      0.0417
    175  CZ        -0.6500  -12.1160   88.4610 C.ar  291  TYR291      0.1957
    176  OH        -0.1540  -12.3340   89.7150 O.3   291  TYR291     -0.2866
    177  N         -5.8350   -8.9060   88.0860 N.3   322  ASN322     -0.1225
    178  CA        -4.6510   -8.0820   88.1340 C.3   322  ASN322      0.1785
    179  C         -4.4190   -7.2790   86.8950 C.2   322  ASN322      0.2597
    180  O         -4.6070   -7.7670   85.7820 O.2   322  ASN322     -0.2718
    181  CB        -3.4520   -8.9680   88.4460 C.3   322  ASN322      0.1169
    182  CG        -3.6030   -9.6610   89.7960 C.2   322  ASN322      0.2627
    183  OD1       -3.8750   -9.0080   90.7940 O.2   322  ASN322     -0.2716
    184  ND2       -3.4380  -10.9890   89.8350 N.am  322  ASN322     -0.0877
    185  N         -3.9820   -6.0480   87.0500 N.am  323  ALA323     -0.1966
    186  CA        -3.6790   -5.2680   85.8440 C.3   323  ALA323      0.1728
    187  C         -2.5580   -4.3140   86.1100 C.2   323  ALA323      0.2616
    188  O         -2.2740   -4.0710   87.2820 O.2   323  ALA323     -0.2715
    189  CB        -4.9000   -4.5130   85.4010 C.3   323  ALA323      0.0334
    190  N         -1.9040   -3.8280   85.0640 N.am  324  LEU324     -0.1977
    191  CA        -0.8750   -2.7990   85.2240 C.3   324  LEU324      0.1596
    192  C         -1.4140   -1.5000   84.5930 C.2   324  LEU324      0.2287
    193  O         -2.1960   -1.5680   83.6220 O.2   324  LEU324     -0.2864
    194  CB         0.3290   -3.1920   84.4040 C.3   324  LEU324      0.0297
    195  CG         1.0900   -4.5150   84.6660 C.3   324  LEU324      0.0022
    196  CD1        1.8910   -5.0130   83.4330 C.3   324  LEU324      0.0001
    197  CD2        2.0490   -4.3040   85.8380 C.3   324  LEU324      0.0001
    198  N          6.2110   -2.6610   88.1340 N.3   345  LEU345     -0.1245
    199  CA         6.9130   -3.4720   87.1380 C.3   345  LEU345      0.1561
    200  C          7.6760   -2.5360   86.2450 C.2   345  LEU345      0.2260
    201  O          7.1070   -1.6090   85.6070 O.2   345  LEU345     -0.2867
    202  CB         5.9860   -4.2750   86.2710 C.3   345  LEU345      0.0270
    203  CG         6.4750   -5.5010   85.4530 C.3   345  LEU345      0.0019
    204  CD1        7.0930   -6.6730   86.2860 C.3   345  LEU345      0.0001
    205  CD2        5.4070   -6.0310   84.4820 C.3   345  LEU345      0.0001
    206  N          2.2340   -6.2050   77.1460 N.3   365  VAL365     -0.1231
    207  CA         2.1480   -6.9320   78.4120 C.3   365  VAL365      0.1692
    208  C          2.8970   -8.2290   78.2870 C.2   365  VAL365      0.2592
    209  O          2.4770   -9.0780   77.4910 O.2   365  VAL365     -0.2718
    210  CB         0.6570   -7.1850   78.7690 C.3   365  VAL365      0.0266
    211  CG1        0.5070   -8.0860   80.0090 C.3   365  VAL365      0.0020
    212  CG2       -0.0410   -5.8540   78.9980 C.3   365  VAL365      0.0020
    213  N          3.9690   -8.3690   79.0870 N.am  366  LEU366     -0.1966
    214  CA         4.7450   -9.6110   79.1480 C.3   366  LEU366      0.1728
    215  C          4.2330  -10.4790   80.2560 C.2   366  LEU366      0.2616
    216  O          3.5640  -10.0180   81.1870 O.2   366  LEU366     -0.2715
    217  CB         6.2720   -9.4000   79.3410 C.3   366  LEU366      0.0311
    218  CG         7.2690   -8.3920   78.7130 C.3   366  LEU366      0.0022
    219  CD1        8.7450   -8.8290   78.5990 C.3   366  LEU366      0.0001
    220  CD2        6.8330   -7.6710   77.4710 C.3   366  LEU366      0.0001
    221  N          4.6350  -11.7320   80.1940 N.am  367  LEU367     -0.1977
    222  CA         3.9780  -12.7880   80.9820 C.3   367  LEU367      0.1596
    223  C          4.5050  -12.8500   82.4430 C.2   367  LEU367      0.2287
    224  O          5.6440  -12.4230   82.7490 O.2   367  LEU367     -0.2864
    225  CB         4.0140  -14.1570   80.3210 C.3   367  LEU367      0.0297
    226  CG         3.5990  -14.2560   78.8360 C.3   367  LEU367      0.0022
    227  CD1        3.6750  -15.6730   78.4020 C.3   367  LEU367      0.0001
    228  CD2        2.2160  -13.7450   78.5330 C.3   367  LEU367      0.0001
@<TRIPOS>BOND
     1   206   207    1
     2   220   218    1
     3   209   208    2
     4   208   207    1
     5   208   213   am
     6   227   226    1
     7   207   210    1
     8   228   226    1
     9   219   218    1
    10   218   217    1
    11   210   212    1
    12   210   211    1
    13   226   225    1
    14   213   214    1
    15   214   217    1
    16   214   215    1
    17    79    80    1
    18   221   215   am
    19   221   222    1
    20   215   216    2
    21   225   222    1
    22    83    80    1
    23    83    84    1
    24   135   132    1
    25   135   136    1
    26   138   136   ar
    27   138   140   ar
    28    80    81    1
    29   222   223    1
    30    86    84   am
    31    82    81    2
    32   131   132    1
    33   132   133    1
    34   136   137   ar
    35    84    85    2
    36   140   141   ar
    37    93    91    1
    38    87    88    1
    39   168   167    2
    40   223   224    2
    41   137   139   ar
    42   141   142    1
    43   141   139   ar
    44    92    91    1
    45   133   134    2
    46    91    88    1
    47    88    89    1
    48   167   166    1
    49   196   195    1
    50   193   192    2
    51    89    90    2
    52    76    74   ar
    53    76    77   ar
    54    74    72   ar
    55   194   195    1
    56   194   191    1
    57   205   203    1
    58   169   166    1
    59   169   170    1
    60   166   165    1
    61   192   191    1
    62   195   197    1
    63   190   191    1
    64   190   187   am
    65    77    78    1
    66    77    75   ar
    67    72    71    1
    68    72    73   ar
    69   189   186    1
    70   203   202    1
    71   203   204    1
    72    71    68    1
    73   201   200    2
    74   180   179    2
    75   186   187    1
    76   186   185    1
    77    12    11    1
    78   170   172   ar
    79   170   171   ar
    80   143   144    1
    81   187   188    2
    82    69    68    1
    83    69    70    2
    84    75    73   ar
    85   200   199    1
    86   202   199    1
    87    68    67    1
    88   172   174   ar
    89   147   144    1
    90   147   148    1
    91   171   173   ar
    92   144   145    1
    93   179   185   am
    94   179   178    1
    95    11     9   ar
    96    11    10   ar
    97   150   148    1
    98   199   198    1
    99     9     7   ar
   100    10     8   ar
   101   148   149    1
   102   174   175   ar
   103   173   175   ar
   104   177   178    1
   105   178   181    1
   106   145   146    2
   107     7     6   ar
   108     8     6   ar
   109   181   182    1
   110   175   176    1
   111    94    95    1
   112     6     5    1
   113   102    99    1
   114   102   103    1
   115    99    98    1
   116    99   100    1
   117   182   184   am
   118   182   183    2
   119    95    96    1
   120    65    63   ar
   121    65    66   ar
   122    63    61   ar
   123   105   103   ar
   124   105   107   ar
   125    19    17    1
   126     5     2    1
   127    66    64   ar
   128    61    60    1
   129    61    62   ar
   130    60    57    1
   131   103   104   ar
   132   100   101    2
   133    96    97    2
   134    62    64   ar
   135   107   108   ar
   136    58    57    1
   137    58    59    2
   138     2     3    1
   139     2     1    1
   140    17    18    1
   141    17    14    1
   142    57    56    1
   143    13     3   am
   144    13    14    1
   145   110   111    1
   146   104   106   ar
   147   111   112    1
   148   111   114    1
   149   108   106   ar
   150   108   109    1
   151   112   113    2
   152     3     4    2
   153    14    15    1
   154   151   152    1
   155   116   118   ar
   156   116   115   ar
   157   160   159    2
   158   118   119   ar
   159   156   155    1
   160   114   115    1
   161   115   117   ar
   162   152   155    1
   163   152   153    1
   164   159   158    1
   165    16    15    2
   166    15    20   am
   167   119   117   ar
   168   153   154    2
   169   162   164    1
   170   162   163    1
   171   162   161    1
   172    20    21    1
   173   130   129   ar
   174   130   128   ar
   175   158   161    1
   176   158   157    1
   177   129   127   ar
   178    23    22    2
   179   128   126   ar
   180    21    22    1
   181    21    24    1
   182    22    29   am
   183   127   125   ar
   184    29    30    1
   185   126   125   ar
   186    25    24    1
   187    25    26    1
   188    43    42   ar
   189    30    33    1
   190    30    31    1
   191    47    48    2
   192    47    46    1
   193    49    46    1
   194    49    50    1
   195   125   124    1
   196    33    34    1
   197    44    42   ar
   198    46    45    1
   199    42    41    1
   200    50    51   ar
   201    50    52   ar
   202    31    37   am
   203    31    32    2
   204    28    26   ar
   205    26    27   ar
   206    51    53   ar
   207    37    38    1
   208    52    54   ar
   209   124   121    1
   210    53    55   ar
   211    34    35   ar
   212    34    36   ar
   213    41    38    1
   214    38    39    1
   215    54    55   ar
   216   122   121    1
   217   122   123    2
   218   121   120    1
   219    39    40    2
