@<TRIPOS>MOLECULE
tmp/4b16A03.pdb
 76 72 0 0 0
SMALL
GASTEIGER

@<TRIPOS>ATOM
      1  N          8.3980   -5.0990   13.0170 N.3   196  PHE196     -0.1227
      2  CA         8.9750   -6.2160   13.7730 C.3   196  PHE196      0.1736
      3  C          9.5710   -7.2840   12.8490 C.2   196  PHE196      0.2595
      4  O         10.6760   -7.7860   13.0950 O.2   196  PHE196     -0.2718
      5  CB         7.9270   -6.8950   14.6650 C.3   196  PHE196      0.0547
      6  CG         7.5290   -6.1220   15.9000 C.ar  196  PHE196     -0.0202
      7  CD1        8.3120   -5.0970   16.4310 C.ar  196  PHE196     -0.0042
      8  CD2        6.3660   -6.4840   16.5730 C.ar  196  PHE196     -0.0042
      9  CE1        7.9150   -4.4240   17.5870 C.ar  196  PHE196     -0.0003
     10  CE2        5.9640   -5.8260   17.7370 C.ar  196  PHE196     -0.0003
     11  CZ         6.7430   -4.7930   18.2480 C.ar  196  PHE196     -0.0000
     12  N          8.8340   -7.6480   11.8030 N.am  197  GLN197     -0.1979
     13  CA         9.3060   -8.6700   10.8700 C.3   197  GLN197      0.1601
     14  C         10.5630   -8.2130   10.1260 C.2   197  GLN197      0.2287
     15  O         11.5050   -8.9970    9.9380 O.2   197  GLN197     -0.2864
     16  CB         8.2050   -9.0760    9.8810 C.3   197  GLN197      0.0394
     17  CG         8.5860  -10.2670    8.9940 C.3   197  GLN197      0.0908
     18  CD         9.1130  -11.4780    9.7740 C.2   197  GLN197      0.2608
     19  OE1        8.6120  -11.8200   10.8600 O.2   197  GLN197     -0.2717
     20  NE2       10.1260  -12.1230    9.2270 N.am  197  GLN197     -0.0878
     21  N         12.7610   -5.9860   11.2380 N.3   199  MET199     -0.1230
     22  CA        13.8500   -5.9680   12.2030 C.3   199  MET199      0.1702
     23  C         14.3790   -7.3780   12.4600 C.2   199  MET199      0.2592
     24  O         15.5960   -7.5750   12.5610 O.2   199  MET199     -0.2718
     25  CB        13.4170   -5.2860   13.5020 C.3   199  MET199      0.0401
     26  CG        13.4400   -3.7620   13.4470 C.3   199  MET199      0.0596
     27  SD        15.0610   -3.0510   13.0750 S.3   199  MET199     -0.1393
     28  CE        15.9780   -3.5100   14.5440 C.3   199  MET199      0.0692
     29  N         13.4750   -8.3620   12.5200 N.am  200  LYS200     -0.1980
     30  CA        13.8970   -9.7680   12.5970 C.3   200  LYS200      0.1596
     31  C         14.7750  -10.1550   11.3960 C.2   200  LYS200      0.2287
     32  O         15.8420  -10.7440   11.5590 O.2   200  LYS200     -0.2864
     33  CB        12.6790  -10.6990   12.7070 C.3   200  LYS200      0.0298
     34  CG        13.0400  -12.1670   12.8700 C.3   200  LYS200      0.0038
     35  CD        11.7980  -13.0320   13.0600 C.3   200  LYS200      0.0206
     36  CE        12.1670  -14.5100   13.0940 C.3   200  LYS200      0.1093
     37  NZ        10.9790  -15.3840   13.3340 N.3   200  LYS200     -0.1314
     38  N         18.2870   -8.1640   11.5060 N.3   203  THR203     -0.1203
     39  CA        19.1760   -8.6120   12.5680 C.3   203  THR203      0.1994
     40  C         19.6730  -10.0430   12.3320 C.2   203  THR203      0.2618
     41  O         20.8400  -10.3330   12.5750 O.2   203  THR203     -0.2717
     42  CB        18.5300   -8.4830   13.9660 C.3   203  THR203      0.1784
     43  OG1       17.2760   -9.1770   13.9930 O.3   203  THR203     -0.2211
     44  CG2       18.3240   -6.9990   14.3370 C.3   203  THR203      0.0376
     45  N         18.7960  -10.9290   11.8460 N.am  204  SER204     -0.1951
     46  CA        19.1870  -12.3180   11.5810 C.3   204  SER204      0.1924
     47  C         20.0690  -12.4820   10.3350 C.2   204  SER204      0.2314
     48  O         20.9660  -13.3320   10.3150 O.2   204  SER204     -0.2863
     49  CB        17.9510  -13.2200   11.4770 C.3   204  SER204      0.2116
     50  OG        17.2720  -13.2910   12.7290 O.3   204  SER204     -0.2180
     51  N         10.4930   -5.2290   22.2460 N.3   237  ALA237     -0.1231
     52  CA        10.5230   -6.3200   21.2720 C.3   237  ALA237      0.1694
     53  C         11.8380   -6.3940   20.4810 C.2   237  ALA237      0.2591
     54  O         12.4550   -7.4640   20.3980 O.2   237  ALA237     -0.2718
     55  CB         9.3260   -6.2480   20.3410 C.3   237  ALA237      0.0304
     56  N         12.2810   -5.2710   19.9110 N.am  238  VAL238     -0.1980
     57  CA        13.4430   -5.3170   19.0140 C.3   238  VAL238      0.1595
     58  C         14.7770   -5.4940   19.7480 C.2   238  VAL238      0.2287
     59  O         15.7350   -6.0290   19.1750 O.2   238  VAL238     -0.2864
     60  CB        13.4970   -4.1240   18.0310 C.3   238  VAL238      0.0276
     61  CG1       12.2170   -4.0580   17.2020 C.3   238  VAL238      0.0022
     62  CG2       13.7500   -2.8100   18.7680 C.3   238  VAL238      0.0022
     63  N         15.5240   -7.5600   21.8730 N.3   240  GLN240     -0.1231
     64  CA        15.8280   -8.9790   22.0430 C.3   240  GLN240      0.1698
     65  C         16.9100   -9.4640   21.0630 C.2   240  GLN240      0.2592
     66  O         17.5890  -10.4570   21.3330 O.2   240  GLN240     -0.2718
     67  CB        14.5490   -9.8210   21.9570 C.3   240  GLN240      0.0381
     68  CG        13.6310   -9.6490   23.1670 C.3   240  GLN240      0.0905
     69  CD        14.2880  -10.1020   24.4630 C.2   240  GLN240      0.2608
     70  OE1       14.6890  -11.2490   24.5910 O.2   240  GLN240     -0.2717
     71  NE2       14.4170   -9.1920   25.4170 N.am  240  GLN240     -0.0878
     72  N         17.0890   -8.7510   19.9470 N.am  241  ALA241     -0.1980
     73  CA        18.1790   -9.0740   19.0120 C.3   241  ALA241      0.1597
     74  C         19.5260   -8.6700   19.6140 C.2   241  ALA241      0.2287
     75  O         19.6850   -7.5320   20.0790 O.2   241  ALA241     -0.2864
     76  CB        17.9760   -8.3700   17.6770 C.3   241  ALA241      0.0319
@<TRIPOS>BOND
     1    17    18    1
     2    17    16    1
     3    20    18   am
     4    18    19    2
     5    16    13    1
     6    15    14    2
     7    14    13    1
     8    48    47    2
     9    47    46    1
    10    13    12    1
    11    21    22    1
    12    31    32    2
    13    31    30    1
    14    49    46    1
    15    49    50    1
    16    38    39    1
    17    46    45    1
    18    12     3   am
    19    45    40   am
    20    22    23    1
    21    22    25    1
    22    40    39    1
    23    40    41    2
    24    23    29   am
    25    23    24    2
    26    29    30    1
    27    39    42    1
    28    30    33    1
    29    33    34    1
    30     3     4    2
    31     3     2    1
    32    34    35    1
    33     1     2    1
    34    35    36    1
    35    27    26    1
    36    27    28    1
    37    36    37    1
    38    26    25    1
    39     2     5    1
    40    42    43    1
    41    42    44    1
    42     5     6    1
    43     6     7   ar
    44     6     8   ar
    45     7     9   ar
    46     8    10   ar
    47    61    60    1
    48     9    11   ar
    49    76    73    1
    50    10    11   ar
    51    60    62    1
    52    60    57    1
    53    73    74    1
    54    73    72    1
    55    57    58    1
    56    57    56    1
    57    59    58    2
    58    74    75    2
    59    56    53   am
    60    72    65   am
    61    55    52    1
    62    54    53    2
    63    53    52    1
    64    65    66    2
    65    65    64    1
    66    52    51    1
    67    63    64    1
    68    67    64    1
    69    67    68    1
    70    68    69    1
    71    69    70    2
    72    69    71   am
