@<TRIPOS>MOLECULE
tmp/4b16A02.pdb
 82 77 0 0 0
SMALL
GASTEIGER

@<TRIPOS>ATOM
      1  N         38.2170    0.7150    1.3800 N.3   139  LEU139     -0.1231
      2  CA        38.3640    1.5380    2.5760 C.3   139  LEU139      0.1693
      3  C         38.8140    0.7150    3.7700 C.2   139  LEU139      0.2592
      4  O         39.6770    1.1480    4.5370 O.2   139  LEU139     -0.2718
      5  CB        37.0580    2.2750    2.8990 C.3   139  LEU139      0.0284
      6  CG        36.7580    3.4580    1.9740 C.3   139  LEU139      0.0019
      7  CD1       35.3090    3.8830    2.1700 C.3   139  LEU139      0.0001
      8  CD2       37.7230    4.6300    2.1950 C.3   139  LEU139      0.0001
      9  N         38.2360   -0.4720    3.9360 N.am  140  ASN140     -0.1974
     10  CA        38.6490   -1.3060    5.0520 C.3   140  ASN140      0.1688
     11  C         40.1230   -1.7550    4.9270 C.2   140  ASN140      0.2292
     12  O         40.8010   -1.9720    5.9430 O.2   140  ASN140     -0.2864
     13  CB        37.7330   -2.5170    5.2720 C.3   140  ASN140      0.1181
     14  CG        38.2500   -3.3660    6.4040 C.2   140  ASN140      0.2629
     15  OD1       38.6830   -4.5040    6.2080 O.2   140  ASN140     -0.2716
     16  ND2       38.2740   -2.7760    7.5990 N.am  140  ASN140     -0.0877
     17  N         42.4830    0.1100    3.7450 N.3   142  SER142     -0.1217
     18  CA        43.2620    1.3690    3.7560 C.3   142  SER142      0.1889
     19  C         44.5970    1.2720    4.4850 C.2   142  SER142      0.2288
     20  O         44.6770    0.6690    5.5540 O.2   142  SER142     -0.2866
     21  CB        42.4520    2.4930    4.4160 C.3   142  SER142      0.2089
     22  OG        41.4570    3.0080    3.5490 O.3   142  SER142     -0.2183
     23  N         46.3670    2.5880    6.7900 N.3   144  THR144     -0.1203
     24  CA        46.2590    3.4300    7.9820 C.3   144  THR144      0.1994
     25  C         46.1130    2.5780    9.2420 C.2   144  THR144      0.2619
     26  O         45.6470    1.4390    9.1700 O.2   144  THR144     -0.2717
     27  CB        45.0720    4.4230    7.8990 C.3   144  THR144      0.1784
     28  OG1       45.0580    5.2370    9.0770 O.3   144  THR144     -0.2211
     29  CG2       43.7260    3.6960    7.7740 C.3   144  THR144      0.0376
     30  N         46.5200    3.1320   10.3840 N.am  145  SER145     -0.1937
     31  CA        46.3110    2.4900   11.6840 C.3   145  SER145      0.2055
     32  C         45.0420    3.0310   12.3460 C.2   145  SER145      0.2643
     33  O         44.6120    2.5430   13.3980 O.2   145  SER145     -0.2714
     34  CB        47.5270    2.6990   12.5910 C.3   145  SER145      0.2130
     35  OG        48.6830    2.0780   12.0500 O.3   145  SER145     -0.2179
     36  N         44.4430    4.0400   11.7160 N.am  146  ARG146     -0.1963
     37  CA        43.2010    4.6360   12.1970 C.3   146  ARG146      0.1729
     38  C         42.0340    3.6730   11.9710 C.2   146  ARG146      0.2616
     39  O         42.0370    2.9040   11.0050 O.2   146  ARG146     -0.2715
     40  CB        42.9330    5.9500   11.4550 C.3   146  ARG146      0.0348
     41  CG        43.9330    7.0600   11.7480 C.3   146  ARG146      0.0492
     42  CD        43.5120    7.7950   13.0040 C.3   146  ARG146      0.2205
     43  NE        44.5160    8.7290   13.5070 N.pl3 146  ARG146     -0.0865
     44  CZ        44.2320    9.7100   14.3560 C.cat 146  ARG146      0.5346
     45  NH1       42.9800    9.8820   14.7750 N.pl3 146  ARG146      0.1354
     46  NH2       45.1870   10.5220   14.7790 N.pl3 146  ARG146      0.1354
     47  N         41.0500    3.6960   12.8690 N.am  147  ARG147     -0.1963
     48  CA        39.8210    2.9400   12.6280 C.3   147  ARG147      0.1729
     49  C         38.8700    3.7500   11.7540 C.2   147  ARG147      0.2616
     50  O         38.5040    4.8710   12.0960 O.2   147  ARG147     -0.2715
     51  CB        39.1470    2.5380   13.9330 C.3   147  ARG147      0.0348
     52  CG        37.9860    1.5730   13.7780 C.3   147  ARG147      0.0492
     53  CD        38.3770    0.2250   13.1780 C.3   147  ARG147      0.2205
     54  NE        37.3510   -0.7630   13.4990 N.pl3 147  ARG147     -0.0865
     55  CZ        36.2800   -1.0330   12.7600 C.cat 147  ARG147      0.5346
     56  NH1       36.0600   -0.4150   11.5920 N.pl3 147  ARG147      0.1354
     57  NH2       35.4230   -1.9390   13.1950 N.pl3 147  ARG147      0.1354
     58  N         38.5060    3.1830   10.6100 N.am  148  ILE148     -0.1977
     59  CA        37.5140    3.7920    9.7300 C.3   148  ILE148      0.1596
     60  C         36.2610    2.9390    9.8480 C.2   148  ILE148      0.2287
     61  O         36.2370    1.7960    9.3860 O.2   148  ILE148     -0.2864
     62  CB        37.9930    3.8600    8.2530 C.3   148  ILE148      0.0276
     63  CG1       39.2870    4.6950    8.1390 C.3   148  ILE148      0.0022
     64  CG2       36.8900    4.4190    7.3490 C.3   148  ILE148      0.0022
     65  CD1       39.9330    4.6680    6.7640 C.3   148  ILE148      0.0001
     66  N         31.5840   -6.2570    5.9590 N.3   171  LYS171     -0.1245
     67  CA        32.5450   -5.2860    6.4910 C.3   171  LYS171      0.1561
     68  C         31.9110   -3.9910    6.9840 C.2   171  LYS171      0.2260
     69  O         32.6170   -3.0330    7.3020 O.2   171  LYS171     -0.2867
     70  CB        33.6510   -4.9990    5.4770 C.3   171  LYS171      0.0271
     71  CG        34.5390   -6.2110    5.2200 C.3   171  LYS171      0.0035
     72  CD        35.7690   -5.8450    4.4240 C.3   171  LYS171      0.0206
     73  CE        36.7950   -6.9670    4.4790 C.3   171  LYS171      0.1093
     74  NZ        36.2410   -8.2390    3.9520 N.3   171  LYS171     -0.1314
     75  N         30.2110   -1.9160    9.8600 N.3   173  ASP173     -0.1239
     76  CA        30.0860   -1.8800   11.3150 C.3   173  ASP173      0.1674
     77  C         28.6560   -1.6050   11.7740 C.2   173  ASP173      0.2266
     78  O         28.1800   -2.2140   12.7430 O.2   173  ASP173     -0.2867
     79  CB        31.0460   -0.8360   11.8870 C.3   173  ASP173      0.1410
     80  CG        32.4750   -1.1510   11.5480 C.2   173  ASP173      0.3668
     81  OD1       32.9900   -2.1300   12.1240 O.co2 173  ASP173     -0.2456
     82  OD2       33.0680   -0.4500   10.6900 O.co2 173  ASP173     -0.2456
@<TRIPOS>BOND
     1     1     2    1
     2     6     7    1
     3     6     8    1
     4     6     5    1
     5     2     5    1
     6     2     3    1
     7    22    21    1
     8    17    18    1
     9    18    21    1
    10    18    19    1
    11     3     9   am
    12     3     4    2
    13     9    10    1
    14    74    73    1
    15    72    73    1
    16    72    71    1
    17    19    20    2
    18    11    10    1
    19    11    12    2
    20    10    13    1
    21    71    70    1
    22    13    14    1
    23    70    67    1
    24    66    67    1
    25    15    14    2
    26    14    16   am
    27    67    68    1
    28    65    63    1
    29    23    24    1
    30    68    69    2
    31    64    62    1
    32    29    27    1
    33    27    24    1
    34    27    28    1
    35    24    25    1
    36    63    62    1
    37    62    59    1
    38    26    25    2
    39    25    30   am
    40    61    60    2
    41    59    60    1
    42    59    58    1
    43    75    76    1
    44    30    31    1
    45    58    49   am
    46    82    80   ar
    47    39    38    2
    48    76    77    1
    49    76    79    1
    50    40    41    1
    51    40    37    1
    52    80    79    1
    53    80    81   ar
    54    56    55    1
    55    31    32    1
    56    31    34    1
    57    36    37    1
    58    36    32   am
    59    41    42    1
    60    49    50    2
    61    49    48    1
    62    77    78    2
    63    38    37    1
    64    38    47   am
    65    35    34    1
    66    32    33    2
    67    48    47    1
    68    48    51    1
    69    55    57    1
    70    55    54    2
    71    42    43    1
    72    53    54    1
    73    53    52    1
    74    43    44    2
    75    52    51    1
    76    44    45    1
    77    44    46    1
