@<TRIPOS>MOLECULE
tmp/4b17A00.pdb
 157 153 0 0 0
SMALL
GASTEIGER

@<TRIPOS>ATOM
      1  N         19.3780   57.2940   82.4910 N.3   185  SER185     -0.1217
      2  CA        20.8340   57.3930   82.5560 C.3   185  SER185      0.1889
      3  C         21.3720   56.6790   83.7890 C.2   185  SER185      0.2288
      4  O         20.6780   56.5930   84.8100 O.2   185  SER185     -0.2866
      5  CB        21.2470   58.8630   82.5850 C.3   185  SER185      0.2089
      6  OG        22.6400   58.9890   82.7470 O.3   185  SER185     -0.2183
      7  N         23.6590   57.7660   85.5590 N.3   187  SER187     -0.1217
      8  CA        24.0400   58.8060   86.5080 C.3   187  SER187      0.1889
      9  C         22.9610   59.0580   87.5650 C.2   187  SER187      0.2288
     10  O         23.1860   59.8090   88.5050 O.2   187  SER187     -0.2866
     11  CB        24.3990   60.1080   85.7880 C.3   187  SER187      0.2089
     12  OG        23.2440   60.6970   85.2330 O.3   187  SER187     -0.2183
     13  N         16.0760   70.7640   88.3400 N.3   216  ASP216     -0.1239
     14  CA        17.2210   69.9680   87.9330 C.3   216  ASP216      0.1674
     15  C         17.8830   70.7140   86.7760 C.2   216  ASP216      0.2266
     16  O         17.3160   70.8090   85.6920 O.2   216  ASP216     -0.2867
     17  CB        16.7490   68.5670   87.5110 C.3   216  ASP216      0.1410
     18  CG        17.8880   67.6760   87.0020 C.2   216  ASP216      0.3668
     19  OD1       19.0620   68.1180   86.9970 O.co2 216  ASP216     -0.2456
     20  OD2       17.6000   66.5290   86.5850 O.co2 216  ASP216     -0.2456
     21  N         20.6220   71.1530   83.9240 N.3   218  GLY218     -0.1210
     22  CA        21.3770   70.2240   83.0980 C.3   218  GLY218      0.1956
     23  C         20.7480   68.8450   83.1670 C.2   218  GLY218      0.2612
     24  O         21.4210   67.8430   83.4150 O.2   218  GLY218     -0.2717
     25  N         19.4430   68.8030   82.9270 N.am  219  ALA219     -0.1965
     26  CA        18.6270   67.6470   83.2580 C.3   219  ALA219      0.1728
     27  C         18.6460   66.5370   82.2090 C.2   219  ALA219      0.2616
     28  O         18.3730   65.3700   82.5230 O.2   219  ALA219     -0.2715
     29  CB        17.2000   68.0960   83.5200 C.3   219  ALA219      0.0334
     30  N         18.9510   66.9020   80.9690 N.am  220  CYS220     -0.1954
     31  CA        18.9330   65.9560   79.8550 C.3   220  CYS220      0.1828
     32  C         19.9230   64.7880   80.0240 C.2   220  CYS220      0.2467
     33  O         21.1140   65.0080   80.2490 O.2   220  CYS220     -0.2730
     34  CB        19.2220   66.7060   78.5480 C.3   220  CYS220      0.0996
     35  SG        19.3970   65.6640   77.0930 S.3   220  CYS220     -0.0797
     36  N         19.4490   63.5410   79.8740 N.am  221  PRO221     -0.2715
     37  CA        18.0920   63.0870   79.5380 C.3   221  PRO221      0.1536
     38  C         17.1940   62.7420   80.7260 C.2   221  PRO221      0.2599
     39  O         16.0540   62.3530   80.4850 O.2   221  PRO221     -0.2715
     40  CB        18.3530   61.8130   78.7310 C.3   221  PRO221      0.0310
     41  CG        19.5700   61.2550   79.3610 C.3   221  PRO221      0.0237
     42  CD        20.4260   62.4480   79.7490 C.3   221  PRO221      0.0939
     43  N         17.6880   62.8400   81.9600 N.am  222  GLY222     -0.1941
     44  CA        16.8140   62.7350   83.1150 C.3   222  GLY222      0.2014
     45  C         17.0970   61.7330   84.2160 C.2   222  GLY222      0.2639
     46  O         16.1630   61.2660   84.8820 O.2   222  GLY222     -0.2714
     47  N         18.3690   61.4150   84.4300 N.am  223  GLY223     -0.1939
     48  CA        18.7430   60.4870   85.4830 C.3   223  GLY223      0.2014
     49  C         18.4750   61.0720   86.8570 C.2   223  GLY223      0.2638
     50  O         17.8940   60.4200   87.7120 O.2   223  GLY223     -0.2714
     51  N         18.8960   62.3120   87.0650 N.am  224  TRP224     -0.1973
     52  CA        18.6510   63.0030   88.3280 C.3   224  TRP224      0.1640
     53  C         17.1690   63.3260   88.5340 C.2   224  TRP224      0.2290
     54  O         16.6040   63.0120   89.5890 O.2   224  TRP224     -0.2864
     55  CB        19.5440   64.2450   88.4550 C.3   224  TRP224      0.0576
     56  CG        20.9610   63.8680   88.7690 C.ar  224  TRP224      0.0006
     57  CD1       21.5810   62.7000   88.4390 C.ar  224  TRP224      0.0946
     58  CD2       21.9280   64.6370   89.5060 C.ar  224  TRP224      0.0152
     59  NE1       22.8670   62.6940   88.9130 N.ar  224  TRP224     -0.2442
     60  CE2       23.1070   63.8700   89.5700 C.ar  224  TRP224      0.0810
     61  CE3       21.9120   65.9020   90.1070 C.ar  224  TRP224      0.0012
     62  CZ2       24.2580   64.3180   90.2150 C.ar  224  TRP224      0.0191
     63  CZ3       23.0590   66.3450   90.7470 C.ar  224  TRP224      0.0001
     64  CH2       24.2170   65.5510   90.7960 C.ar  224  TRP224      0.0015
     65  N         17.1020   72.1440   80.5140 N.3   239  ASP239     -0.1225
     66  CA        18.1150   71.7670   79.5470 C.3   239  ASP239      0.1805
     67  C         17.6740   72.1150   78.1370 C.2   239  ASP239      0.2598
     68  O         16.4810   72.2040   77.8580 O.2   239  ASP239     -0.2718
     69  CB        18.3730   70.2650   79.6310 C.3   239  ASP239      0.1424
     70  CG        19.7860   69.9070   79.2730 C.2   239  ASP239      0.3668
     71  OD1       20.2570   70.3370   78.1980 O.co2 239  ASP239     -0.2456
     72  OD2       20.4210   69.1940   80.0710 O.co2 239  ASP239     -0.2456
     73  N         18.6400   72.2980   77.2440 N.am  240  ASN240     -0.1960
     74  CA        18.3360   72.4600   75.8280 C.3   240  ASN240      0.1819
     75  C         18.1270   71.1060   75.1440 C.2   240  ASN240      0.2621
     76  O         17.5040   71.0210   74.0860 O.2   240  ASN240     -0.2715
     77  CB        19.4210   73.2800   75.1350 C.3   240  ASN240      0.1195
     78  CG        19.1790   74.7660   75.2540 C.2   240  ASN240      0.2630
     79  OD1       18.0560   75.2280   75.0840 O.2   240  ASN240     -0.2716
     80  ND2       20.2270   75.5230   75.5540 N.am  240  ASN240     -0.0877
     81  N         18.6440   70.0500   75.7660 N.am  241  GLY241     -0.1954
     82  CA        18.4150   68.6910   75.3030 C.3   241  GLY241      0.1869
     83  C         17.1110   68.1080   75.8280 C.2   241  GLY241      0.2309
     84  O         16.5620   68.5730   76.8330 O.2   241  GLY241     -0.2863
     85  N         16.2280   75.6530   78.3700 N.3   258  GLU258     -0.1231
     86  CA        17.1030   76.7640   78.7130 C.3   258  GLU258      0.1699
     87  C         18.4840   76.2730   79.1290 C.2   258  GLU258      0.2592
     88  O         18.7540   75.0760   79.1900 O.2   258  GLU258     -0.2718
     89  CB        16.5180   77.6090   79.8660 C.3   258  GLU258      0.0402
     90  CG        15.0160   77.8990   79.8060 C.3   258  GLU258      0.1161
     91  CD        14.5820   79.0690   80.6990 C.2   258  GLU258      0.3649
     92  OE1       15.3670   80.0360   80.8460 O.co2 258  GLU258     -0.2457
     93  OE2       13.4480   79.0270   81.2380 O.co2 258  GLU258     -0.2457
     94  N         19.3350   77.2400   79.4420 N.am  259  ASP259     -0.1960
     95  CA        20.6940   77.0350   79.9110 C.3   259  ASP259      0.1840
     96  C         20.6760   77.1080   81.4370 C.2   259  ASP259      0.2623
     97  O         20.3850   78.1580   82.0080 O.2   259  ASP259     -0.2715
     98  CB        21.5650   78.1570   79.3290 C.3   259  ASP259      0.1450
     99  CG        23.0510   77.9630   79.5720 C.2   259  ASP259      0.3671
    100  OD1       23.4670   77.6830   80.7200 O.co2 259  ASP259     -0.2456
    101  OD2       23.8140   78.1170   78.5990 O.co2 259  ASP259     -0.2456
    102  N         20.9790   75.9930   82.0920 N.am  260  GLY260     -0.1940
    103  CA        20.9620   75.9250   83.5430 C.3   260  GLY260      0.2014
    104  C         21.6870   77.0770   84.2090 C.2   260  GLY260      0.2638
    105  O         21.2660   77.5560   85.2630 O.2   260  GLY260     -0.2714
    106  N         22.7660   77.5290   83.5740 N.am  261  PHE261     -0.1973
    107  CA        23.5670   78.6430   84.0740 C.3   261  PHE261      0.1639
    108  C         22.8750   79.9810   83.8980 C.2   261  PHE261      0.2290
    109  O         23.1820   80.9370   84.6110 O.2   261  PHE261     -0.2864
    110  CB        24.9460   78.6750   83.4060 C.3   261  PHE261      0.0560
    111  CG        25.8920   77.6330   83.9340 C.ar  261  PHE261     -0.0200
    112  CD1       26.6730   77.8890   85.0480 C.ar  261  PHE261     -0.0042
    113  CD2       25.9890   76.3920   83.3260 C.ar  261  PHE261     -0.0042
    114  CE1       27.5330   76.9210   85.5500 C.ar  261  PHE261     -0.0003
    115  CE2       26.8450   75.4260   83.8190 C.ar  261  PHE261     -0.0003
    116  CZ        27.6180   75.6940   84.9360 C.ar  261  PHE261     -0.0000
    117  N         24.0390   68.8090   87.8750 N.3   276  ASP276     -0.1225
    118  CA        25.0920   67.9020   87.4520 C.3   276  ASP276      0.1805
    119  C         25.5600   68.3890   86.0940 C.2   276  ASP276      0.2598
    120  O         25.5640   67.6430   85.1180 O.2   276  ASP276     -0.2718
    121  CB        24.5430   66.4790   87.3500 C.3   276  ASP276      0.1424
    122  CG        25.6170   65.4500   87.0650 C.2   276  ASP276      0.3668
    123  OD1       26.7010   65.5320   87.6730 O.co2 276  ASP276     -0.2456
    124  OD2       25.3790   64.5540   86.2300 O.co2 276  ASP276     -0.2456
    125  N         25.9250   69.6660   86.0370 N.am  277  MET277     -0.1965
    126  CA        26.3450   70.3020   84.7960 C.3   277  MET277      0.1736
    127  C         27.8540   70.2180   84.6910 C.2   277  MET277      0.2616
    128  O         28.5590   70.4700   85.6620 O.2   277  MET277     -0.2715
    129  CB        25.8680   71.7620   84.7380 C.3   277  MET277      0.0427
    130  CG        24.3790   71.9300   84.4150 C.3   277  MET277      0.0599
    131  SD        23.8850   73.6160   83.9670 S.3   277  MET277     -0.1393
    132  CE        24.0230   74.4360   85.5520 C.3   277  MET277      0.0692
    133  N         28.3470   69.8400   83.5180 N.am  278  VAL278     -0.1963
    134  CA        29.7870   69.6970   83.3020 C.3   278  VAL278      0.1727
    135  C         30.4310   71.0370   82.9540 C.2   278  VAL278      0.2616
    136  O         30.1990   71.5790   81.8740 O.2   278  VAL278     -0.2715
    137  CB        30.0700   68.7290   82.1620 C.3   278  VAL278      0.0290
    138  CG1       31.5560   68.4100   82.1130 C.3   278  VAL278      0.0023
    139  CG2       29.2440   67.4640   82.3370 C.3   278  VAL278      0.0023
    140  N         31.2530   71.5520   83.8610 N.am  279  GLU279     -0.1977
    141  CA        31.7710   72.9080   83.7480 C.3   279  GLU279      0.1602
    142  C         32.7950   73.1330   84.8610 C.2   279  GLU279      0.2287
    143  O         32.8720   72.3410   85.8060 O.2   279  GLU279     -0.2864
    144  CB        30.6070   73.9070   83.8360 C.3   279  GLU279      0.0415
    145  CG        30.9660   75.3970   83.8170 C.3   279  GLU279      0.1163
    146  CD        31.5270   75.8860   82.4860 C.2   279  GLU279      0.3649
    147  OE1       32.7430   75.7160   82.2540 O.co2 279  GLU279     -0.2457
    148  OE2       30.7540   76.4580   81.6840 O.co2 279  GLU279     -0.2457
    149  N         33.0480   78.0090   88.6190 N.3   283  LYS283     -0.1245
    150  CA        31.8510   78.5810   88.0250 C.3   283  LYS283      0.1561
    151  C         30.5970   77.9010   88.5730 C.2   283  LYS283      0.2260
    152  O         29.6240   78.5750   88.9250 O.2   283  LYS283     -0.2867
    153  CB        31.8940   78.4750   86.4920 C.3   283  LYS283      0.0271
    154  CG        30.8710   79.3380   85.7670 C.3   283  LYS283      0.0035
    155  CD        30.7870   78.9880   84.2760 C.3   283  LYS283      0.0206
    156  CE        29.6210   79.7030   83.5710 C.3   283  LYS283      0.1093
    157  NZ        29.4240   79.2050   82.1690 N.3   283  LYS283     -0.1314
@<TRIPOS>BOND
     1    76    75    2
     2    79    78    2
     3    77    78    1
     4    77    74    1
     5    75    81   am
     6    75    74    1
     7    78    80   am
     8    82    81    1
     9    82    83    1
    10    83    84    2
    11    74    73    1
    12    35    34    1
    13    73    67   am
    14    68    67    2
    15    67    66    1
    16    71    70   ar
    17    85    86    1
    18    34    31    1
    19   101    99   ar
    20    86    87    1
    21    86    89    1
    22    40    41    1
    23    40    37    1
    24    87    88    2
    25    87    94   am
    26    70    69    1
    27    70    72   ar
    28    98    99    1
    29    98    95    1
    30    41    42    1
    31    94    95    1
    32    37    36    1
    33    37    38    1
    34    66    69    1
    35    66    65    1
    36    99   100   ar
    37    42    36    1
    38    90    89    1
    39    90    91    1
    40    31    32    1
    41    31    30    1
    42    36    32   am
    43    95    96    1
    44    32    33    2
    45    39    38    2
    46    91    92   ar
    47    91    93   ar
    48    38    43   am
    49    30    27   am
    50    96    97    2
    51    96   102   am
    52   148   146   ar
    53   136   135    2
    54    43    44    1
    55   102   103    1
    56   138   137    1
    57   137   139    1
    58   137   134    1
    59   157   156    1
    60    27    28    2
    61    27    26    1
    62   147   146   ar
    63   146   145    1
    64     1     2    1
    65     2     5    1
    66     2     3    1
    67     5     6    1
    68    25    23   am
    69    25    26    1
    70   135   134    1
    71   135   140   am
    72    22    23    1
    73    22    21    1
    74    44    45    1
    75    23    24    2
    76    26    29    1
    77   134   133    1
    78   113   115   ar
    79   113   111   ar
    80   110   111    1
    81   110   107    1
    82   133   127   am
    83   103   104    1
    84   156   155    1
    85   106   107    1
    86   106   104   am
    87   141   144    1
    88   141   140    1
    89   141   142    1
    90     3     4    2
    91   145   144    1
    92   115   116   ar
    93   108   107    1
    94   108   109    2
    95   111   112   ar
    96   131   130    1
    97   131   132    1
    98   104   105    2
    99    45    47   am
   100    45    46    2
   101   155   154    1
   102   130   129    1
   103    47    48    1
   104   127   126    1
   105   127   128    2
   106   129   126    1
   107   126   125    1
   108   142   143    2
   109   116   114   ar
   110   112   114   ar
   111   120   119    2
   112    12    11    1
   113    48    49    1
   114     7     8    1
   115    16    15    2
   116   154   153    1
   117    11     8    1
   118   125   119   am
   119   119   118    1
   120   124   122   ar
   121   153   150    1
   122     8     9    1
   123    20    18   ar
   124    15    14    1
   125    49    51   am
   126    49    50    2
   127    19    18   ar
   128    18    17    1
   129   122   121    1
   130   122   123   ar
   131    51    52    1
   132   121   118    1
   133   118   117    1
   134    17    14    1
   135     9    10    2
   136    14    13    1
   137   150   151    1
   138   150   149    1
   139    52    55    1
   140    52    53    1
   141    57    56   ar
   142    57    59   ar
   143    55    56    1
   144    53    54    2
   145   151   152    2
   146    56    58   ar
   147    59    60   ar
   148    58    60   ar
   149    58    61   ar
   150    60    62   ar
   151    61    63   ar
   152    62    64   ar
   153    63    64   ar
