@<TRIPOS>MOLECULE
tmp/4b1cA00.pdb
 162 155 0 0 0
SMALL
GASTEIGER

@<TRIPOS>ATOM
      1  N         -0.9070   -8.2670  -14.5680 N.3    16  SER16      -0.1202
      2  CA        -0.2500   -7.0560  -14.0780 C.3    16  SER16       0.2020
      3  C          1.2180   -7.0620  -14.4080 C.2    16  SER16       0.2619
      4  O          1.8290   -6.0110  -14.5960 O.2    16  SER16      -0.2717
      5  CB        -0.3900   -6.9470  -12.5680 C.3    16  SER16       0.2103
      6  OG         0.3220   -7.9960  -11.9490 O.3    16  SER16      -0.2182
      7  N          1.8060   -8.2560  -14.4340 N.am   17  GLY17      -0.1942
      8  CA         3.2440   -8.3820  -14.5780 C.3    17  GLY17       0.2014
      9  C          3.7710   -8.0230  -15.9630 C.2    17  GLY17       0.2639
     10  O          4.8700   -7.5080  -16.0820 O.2    17  GLY17      -0.2714
     11  N          2.9850   -8.2950  -17.0080 N.am   18  GLN18      -0.1963
     12  CA         3.4480   -8.0940  -18.3810 C.3    18  GLN18       0.1733
     13  C          2.5360   -7.1730  -19.1880 C.2    18  GLN18       0.2617
     14  O          2.8360   -6.8430  -20.3320 O.2    18  GLN18      -0.2715
     15  CB         3.5920   -9.4400  -19.0970 C.3    18  GLN18       0.0408
     16  CG         4.7440  -10.3110  -18.5700 C.3    18  GLN18       0.0908
     17  CD         4.5050  -10.8520  -17.1570 C.2    18  GLN18       0.2608
     18  OE1        3.3830  -11.2150  -16.7900 O.2    18  GLN18      -0.2717
     19  NE2        5.5740  -10.9130  -16.3600 N.am   18  GLN18      -0.0878
     20  N          1.4240   -6.7620  -18.5910 N.am   19  GLY19      -0.1940
     21  CA         0.5250   -5.8330  -19.2400 C.3    19  GLY19       0.2014
     22  C         -0.7930   -6.4490  -19.6620 C.2    19  GLY19       0.2638
     23  O         -0.8780   -7.6380  -19.9580 O.2    19  GLY19      -0.2714
     24  N         -1.8290   -5.6180  -19.6460 N.am   20  TYR20      -0.1973
     25  CA        -3.1360   -5.9860  -20.1010 C.3    20  TYR20       0.1639
     26  C         -3.2840   -5.3990  -21.4660 C.2    20  TYR20       0.2290
     27  O         -2.8610   -4.2570  -21.7150 O.2    20  TYR20      -0.2864
     28  CB        -4.1990   -5.3790  -19.2010 C.3    20  TYR20       0.0560
     29  CG        -4.2740   -6.0300  -17.8440 C.ar   20  TYR20      -0.0198
     30  CD1       -3.5050   -5.5650  -16.7820 C.ar   20  TYR20      -0.0009
     31  CD2       -5.1260   -7.0930  -17.6200 C.ar   20  TYR20      -0.0009
     32  CE1       -3.6000   -6.1520  -15.5270 C.ar   20  TYR20       0.0417
     33  CE2       -5.2150   -7.6930  -16.3830 C.ar   20  TYR20       0.0417
     34  CZ        -4.4510   -7.2200  -15.3390 C.ar   20  TYR20       0.1957
     35  OH        -4.5660   -7.8340  -14.1080 O.3    20  TYR20      -0.2866
     36  N         -1.0420   -2.9980  -25.7840 N.3    36  LEU36      -0.1245
     37  CA        -1.0510   -2.6580  -24.3660 C.3    36  LEU36       0.1561
     38  C         -1.9790   -1.4790  -24.0590 C.2    36  LEU36       0.2260
     39  O         -1.8650   -0.4140  -24.6460 O.2    36  LEU36      -0.2867
     40  CB         0.3790   -2.3210  -23.9200 C.3    36  LEU36       0.0270
     41  CG         0.6000   -1.9130  -22.4670 C.3    36  LEU36       0.0019
     42  CD1        0.6960   -3.1520  -21.5840 C.3    36  LEU36       0.0001
     43  CD2        1.8540   -1.0330  -22.3020 C.3    36  LEU36       0.0001
     44  N         -2.5430    1.4650  -21.9680 N.3    38  ASP38      -0.1239
     45  CA        -1.5830    2.2310  -21.1840 C.3    38  ASP38       0.1674
     46  C         -2.1070    3.6340  -20.8790 C.2    38  ASP38       0.2266
     47  O         -1.9950    4.5370  -21.7160 O.2    38  ASP38      -0.2867
     48  CB        -0.2750    2.3480  -21.9770 C.3    38  ASP38       0.1410
     49  CG         0.8430    2.9950  -21.1700 C.2    38  ASP38       0.3668
     50  OD1        0.6360    3.2750  -19.9500 O.co2  38  ASP38      -0.2456
     51  OD2        1.9140    3.2480  -21.7710 O.co2  38  ASP38      -0.2456
     52  N         -0.6740    5.6030  -18.9270 N.3    40  GLY40      -0.1210
     53  CA         0.4930    6.3880  -18.5090 C.3    40  GLY40       0.1956
     54  C          1.3100    6.9060  -19.6920 C.2    40  GLY40       0.2612
     55  O          2.4690    7.2790  -19.5380 O.2    40  GLY40      -0.2717
     56  N          0.7110    6.9140  -20.8790 N.am   41  SER41      -0.1952
     57  CA         1.3640    7.4830  -22.0590 C.3    41  SER41       0.1924
     58  C          0.2890    7.8860  -23.0610 C.2    41  SER41       0.2314
     59  O         -0.8960    7.6100  -22.8530 O.2    41  SER41      -0.2863
     60  CB         2.3950    6.5160  -22.6790 C.3    41  SER41       0.2116
     61  OG         1.7690    5.3820  -23.2830 O.3    41  SER41      -0.2180
     62  N         13.4530    5.9830  -22.8290 N.3    77  TYR77      -0.1241
     63  CA        12.9750    5.9170  -21.4470 C.3    77  TYR77       0.1605
     64  C         14.1320    5.5960  -20.5170 C.2    77  TYR77       0.2264
     65  O         15.2520    5.3480  -20.9690 O.2    77  TYR77      -0.2867
     66  CB        11.9320    4.8160  -21.2920 C.3    77  TYR77       0.0534
     67  CG        10.7260    4.9920  -22.1600 C.ar   77  TYR77      -0.0201
     68  CD1        9.9160    6.1040  -22.0120 C.ar   77  TYR77      -0.0009
     69  CD2       10.3880    4.0410  -23.1230 C.ar   77  TYR77      -0.0009
     70  CE1        8.8160    6.2830  -22.7940 C.ar   77  TYR77       0.0417
     71  CE2        9.2780    4.2070  -23.9170 C.ar   77  TYR77       0.0417
     72  CZ         8.4960    5.3350  -23.7420 C.ar   77  TYR77       0.1957
     73  OH         7.3910    5.5440  -24.5110 O.3    77  TYR77      -0.2866
     74  N         12.1540   -2.7710  -25.0460 N.3   114  PHE114     -0.1241
     75  CA        10.8580   -2.1010  -25.0180 C.3   114  PHE114      0.1605
     76  C          9.7860   -3.1530  -25.0490 C.2   114  PHE114      0.2264
     77  O          8.8750   -3.1700  -24.2080 O.2   114  PHE114     -0.2867
     78  CB        10.7170   -1.1850  -26.2380 C.3   114  PHE114      0.0534
     79  CG         9.3620   -0.5380  -26.3760 C.ar  114  PHE114     -0.0203
     80  CD1        9.0280    0.5720  -25.6120 C.ar  114  PHE114     -0.0042
     81  CD2        8.4430   -1.0190  -27.2950 C.ar  114  PHE114     -0.0042
     82  CE1        7.7950    1.1840  -25.7500 C.ar  114  PHE114     -0.0003
     83  CE2        7.2030   -0.4200  -27.4440 C.ar  114  PHE114     -0.0003
     84  CZ         6.8780    0.6860  -26.6660 C.ar  114  PHE114     -0.0000
     85  N          8.2980   -6.9160  -24.5940 N.3   116  ILE116     -0.1245
     86  CA         8.4790   -7.8050  -23.4650 C.3   116  ILE116      0.1561
     87  C          8.2550   -9.2400  -23.9180 C.2   116  ILE116      0.2260
     88  O          7.2150   -9.5690  -24.4800 O.2   116  ILE116     -0.2867
     89  CB         7.5120   -7.4190  -22.3290 C.3   116  ILE116      0.0252
     90  CG1        7.8580   -6.0170  -21.8150 C.3   116  ILE116      0.0019
     91  CG2        7.5220   -8.4620  -21.2090 C.3   116  ILE116      0.0019
     92  CD1        9.0010   -5.9940  -20.8110 C.3   116  ILE116      0.0001
     93  N          1.7300   -8.8620  -26.5890 N.3   121  TRP121     -0.1241
     94  CA         1.2460   -7.6670  -27.3170 C.3   121  TRP121      0.1605
     95  C          2.3420   -7.1100  -28.2340 C.2   121  TRP121      0.2264
     96  O          3.5140   -7.4060  -28.0400 O.2   121  TRP121     -0.2867
     97  CB         0.7180   -6.5590  -26.3860 C.3   121  TRP121      0.0550
     98  CG         1.5940   -6.2260  -25.1910 C.ar  121  TRP121      0.0003
     99  CD1        1.4800   -6.7430  -23.9130 C.ar  121  TRP121      0.0946
    100  CD2        2.6800   -5.2870  -25.1410 C.ar  121  TRP121      0.0152
    101  NE1        2.4380   -6.1870  -23.0860 N.ar  121  TRP121     -0.2442
    102  CE2        3.1840   -5.2930  -23.8120 C.ar  121  TRP121      0.0810
    103  CE3        3.2840   -4.4460  -26.0910 C.ar  121  TRP121      0.0012
    104  CZ2        4.2610   -4.4980  -23.4200 C.ar  121  TRP121      0.0191
    105  CZ3        4.3530   -3.6560  -25.7010 C.ar  121  TRP121      0.0001
    106  CH2        4.8310   -3.6850  -24.3720 C.ar  121  TRP121      0.0015
    107  N          1.3910   -0.3890  -28.1480 N.3   124  ILE124     -0.1245
    108  CA         0.8310    0.3140  -26.9820 C.3   124  ILE124      0.1561
    109  C         -0.1590    1.3700  -27.3700 C.2   124  ILE124      0.2260
    110  O          0.0730    2.1650  -28.3030 O.2   124  ILE124     -0.2867
    111  CB         1.9330    1.0350  -26.1710 C.3   124  ILE124      0.0252
    112  CG1        2.9810    0.0310  -25.7160 C.3   124  ILE124      0.0019
    113  CG2        1.3290    1.7550  -24.9520 C.3   124  ILE124      0.0019
    114  CD1        4.0450    0.6570  -24.8300 C.3   124  ILE124      0.0001
    115  N         -1.8690    4.6890  -13.5750 N.3   220  ASP220     -0.1225
    116  CA        -1.1490    4.1810  -14.7510 C.3   220  ASP220      0.1805
    117  C         -1.3400    2.6920  -14.9800 C.2   220  ASP220      0.2598
    118  O         -0.7050    1.8770  -14.3220 O.2   220  ASP220     -0.2718
    119  CB         0.3320    4.4370  -14.5870 C.3   220  ASP220      0.1424
    120  CG         1.1180    4.0660  -15.8360 C.2   220  ASP220      0.3668
    121  OD1        0.4970    3.6330  -16.8360 O.co2 220  ASP220     -0.2456
    122  OD2        2.3400    4.2190  -15.8030 O.co2 220  ASP220     -0.2456
    123  N         -2.1990    2.3290  -15.9340 N.am  221  SER221     -0.1938
    124  CA        -2.4690    0.9300  -16.2080 C.3   221  SER221      0.2055
    125  C         -1.2500    0.2590  -16.8550 C.2   221  SER221      0.2644
    126  O         -1.1710   -0.9760  -16.9380 O.2   221  SER221     -0.2714
    127  CB        -3.7150    0.8060  -17.1170 C.3   221  SER221      0.2130
    128  OG        -3.4300    1.2740  -18.4280 O.3   221  SER221     -0.2179
    129  N         -0.2920    1.0710  -17.2970 N.am  222  GLY222     -0.1939
    130  CA         0.9240    0.5500  -17.9450 C.3   222  GLY222      0.2014
    131  C          2.0960    0.3700  -16.9940 C.2   222  GLY222      0.2640
    132  O          3.2290    0.1360  -17.4260 O.2   222  GLY222     -0.2714
    133  N          1.8210    0.4990  -15.6980 N.am  223  THR223     -0.1936
    134  CA         2.8150    0.2290  -14.6600 C.3   223  THR223      0.2028
    135  C          2.3330   -0.9410  -13.8200 C.2   223  THR223      0.2642
    136  O          1.1760   -0.9860  -13.4240 O.2   223  THR223     -0.2714
    137  CB         3.0500    1.4470  -13.7400 C.3   223  THR223      0.1808
    138  OG1        3.7400    2.4720  -14.4680 O.3   223  THR223     -0.2208
    139  CG2        3.9290    1.0440  -12.5170 C.3   223  THR223      0.0379
    140  N          3.2040   -1.9030  -13.5610 N.am  224  THR224     -0.1950
    141  CA         2.8100   -3.0540  -12.7450 C.3   224  THR224      0.1897
    142  C          2.5900   -2.6840  -11.2730 C.2   224  THR224      0.2313
    143  O          1.5330   -2.9770  -10.7210 O.2   224  THR224     -0.2863
    144  CB         3.8700   -4.1640  -12.8310 C.3   224  THR224      0.1794
    145  OG1        3.9530   -4.6330  -14.1910 O.3   224  THR224     -0.2208
    146  CG2        3.5510   -5.3400  -11.8630 C.3   224  THR224      0.0378
    147  N          4.0980    2.4030   -7.0380 N.3   227  ARG227     -0.1245
    148  CA         5.4110    3.0160   -6.9140 C.3   227  ARG227      0.1563
    149  C          5.2910    4.2490   -6.0210 C.2   227  ARG227      0.2260
    150  O          4.4010    5.0500   -6.2120 O.2   227  ARG227     -0.2867
    151  CB         5.9660    3.3920   -8.2940 C.3   227  ARG227      0.0307
    152  CG         5.9220    2.1970   -9.2810 C.3   227  ARG227      0.0489
    153  CD         6.7560    2.3940  -10.5740 C.3   227  ARG227      0.2205
    154  NE         8.1800    2.6940  -10.3310 N.pl3 227  ARG227     -0.0865
    155  CZ         8.7610    3.8290  -10.7040 C.cat 227  ARG227      0.5346
    156  NH1        8.0510    4.7420  -11.3510 N.pl3 227  ARG227      0.1354
    157  NH2       10.0430    4.0570  -10.4500 N.pl3 227  ARG227      0.1354
    158  N         -1.0130   -1.2530  -11.9980 N.3   327  ALA327     -0.1245
    159  CA        -1.9790   -2.3260  -12.1340 C.3   327  ALA327      0.1562
    160  C         -2.3600   -3.0400  -10.8360 C.2   327  ALA327      0.2260
    161  O         -3.5150   -3.3880  -10.6570 O.2   327  ALA327     -0.2867
    162  CB        -1.4730   -3.3320  -13.1360 C.3   327  ALA327      0.0290
@<TRIPOS>BOND
     1   110   109    2
     2    95    96    2
     3    95    94    1
     4   107   108    1
     5    83    81   ar
     6    83    84   ar
     7   109   108    1
     8    94    93    1
     9    94    97    1
    10    81    79   ar
    11   108   111    1
    12    84    82   ar
    13    97    98    1
    14    79    78    1
    15    79    80   ar
    16    78    75    1
    17   111   112    1
    18   111   113    1
    19   103   105   ar
    20   103   100   ar
    21    36    37    1
    22    82    80   ar
    23   112   114    1
    24   105   106   ar
    25    98   100   ar
    26    98    99   ar
    27   100   102   ar
    28    76    75    1
    29    76    77    2
    30    74    75    1
    31    39    38    2
    32    85    86    1
    33    73    72    1
    34    88    87    2
    35   106   104   ar
    36    37    38    1
    37    37    40    1
    38    40    41    1
    39    87    86    1
    40    71    72   ar
    41    71    69   ar
    42    99   101   ar
    43   102   104   ar
    44   102   101   ar
    45    72    70   ar
    46    86    89    1
    47    61    60    1
    48    69    67   ar
    49    58    59    2
    50    58    57    1
    51    62    63    1
    52    70    68   ar
    53    60    57    1
    54    41    43    1
    55    41    42    1
    56    89    90    1
    57    89    91    1
    58    67    68   ar
    59    67    66    1
    60    57    56    1
    61    48    45    1
    62    48    49    1
    63    44    45    1
    64    90    92    1
    65    51    49   ar
    66    47    46    2
    67    27    26    2
    68    26    25    1
    69    63    66    1
    70    63    64    1
    71    45    46    1
    72    49    50   ar
    73    65    64    2
    74    56    54   am
    75    14    13    2
    76    25    24    1
    77    25    28    1
    78    23    22    2
    79    54    55    2
    80    54    53    1
    81    22    24   am
    82    22    21    1
    83    21    20    1
    84    28    29    1
    85    13    20   am
    86    13    12    1
    87    15    16    1
    88    15    12    1
    89    52    53    1
    90    16    17    1
    91   128   127    1
    92    12    11    1
    93   130   129    1
    94   130   131    1
    95    29    31   ar
    96    29    30   ar
    97    31    33   ar
    98   132   131    2
    99   129   125   am
   100    17    18    2
   101    17    19   am
   102   127   124    1
   103    11     9   am
   104   131   133   am
   105   126   125    2
   106   125   124    1
   107   121   120   ar
   108    30    32   ar
   109    33    34   ar
   110   124   123    1
   111    10     9    2
   112     9     8    1
   113   123   117   am
   114   120   122   ar
   115   120   119    1
   116   133   134    1
   117    32    34   ar
   118    34    35    1
   119   117   116    1
   120   117   118    2
   121   116   119    1
   122   116   115    1
   123   134   135    1
   124   134   137    1
   125     4     3    2
   126     8     7    1
   127     1     2    1
   128   138   137    1
   129     7     3   am
   130     3     2    1
   131   145   144    1
   132     2     5    1
   133   135   140   am
   134   135   136    2
   135   137   139    1
   136   140   141    1
   137   162   159    1
   138   144   141    1
   139   144   146    1
   140   141   142    1
   141     5     6    1
   142   159   158    1
   143   159   160    1
   144   156   155    1
   145   142   143    2
   146   160   161    2
   147   155   157    1
   148   155   154    2
   149   153   154    1
   150   153   152    1
   151   152   151    1
   152   151   148    1
   153   147   148    1
   154   148   149    1
   155   150   149    2
