@<TRIPOS>MOLECULE
tmp/4b1dA00.pdb
 196 187 0 0 0
SMALL
GASTEIGER

@<TRIPOS>ATOM
      1  N          1.9840   -8.9350  -14.5180 N.3    15  GLY15      -0.1210
      2  CA         3.1620   -8.0840  -14.6060 C.3    15  GLY15       0.1956
      3  C          3.5040   -7.6450  -16.0130 C.2    15  GLY15       0.2612
      4  O          4.5100   -6.9630  -16.2020 O.2    15  GLY15      -0.2717
      5  N          2.7020   -8.0510  -17.0180 N.am   16  GLN16      -0.1965
      6  CA         2.9790   -7.7400  -18.4190 C.3    16  GLN16       0.1733
      7  C          1.9250   -6.9010  -19.1430 C.2    16  GLN16       0.2616
      8  O          1.9790   -6.7330  -20.3630 O.2    16  GLN16      -0.2715
      9  CB         3.3950   -8.9960  -19.1910 C.3    16  GLN16       0.0408
     10  CG         4.7000   -9.5860  -18.6170 C.3    16  GLN16       0.0908
     11  CD         5.2240  -10.7660  -19.3780 C.2    16  GLN16       0.2608
     12  OE1        4.5200  -11.3880  -20.1660 O.2    16  GLN16      -0.2717
     13  NE2        6.4760  -11.1130  -19.1290 N.am   16  GLN16      -0.0878
     14  N          1.0350   -6.3130  -18.3640 N.am   17  GLY17      -0.1955
     15  CA         0.0110   -5.4180  -18.8810 C.3    17  GLY17       0.1869
     16  C         -1.2350   -6.0860  -19.4200 C.2    17  GLY17       0.2309
     17  O         -1.3020   -7.3100  -19.6020 O.2    17  GLY17      -0.2863
     18  N         -1.4290   -2.9910  -25.8360 N.3    34  LEU34      -0.1245
     19  CA        -1.3980   -2.6460  -24.4100 C.3    34  LEU34       0.1561
     20  C         -2.2570   -1.3840  -24.1560 C.2    34  LEU34       0.2260
     21  O         -2.0630   -0.3740  -24.8160 O.2    34  LEU34      -0.2867
     22  CB         0.0570   -2.3630  -23.9900 C.3    34  LEU34       0.0270
     23  CG         0.2650   -2.0260  -22.4950 C.3    34  LEU34       0.0019
     24  CD1        0.6010   -3.2640  -21.7190 C.3    34  LEU34       0.0001
     25  CD2        1.3990   -1.0140  -22.3130 C.3    34  LEU34       0.0001
     26  N         -2.7230    1.6210  -22.1000 N.3    36  ASP36      -0.1239
     27  CA        -1.8120    2.4160  -21.2820 C.3    36  ASP36       0.1674
     28  C         -2.3450    3.8250  -20.9520 C.2    36  ASP36       0.2266
     29  O         -2.2450    4.7140  -21.7800 O.2    36  ASP36      -0.2867
     30  CB        -0.4690    2.4910  -22.0310 C.3    36  ASP36       0.1410
     31  CG         0.6890    3.0880  -21.2480 C.2    36  ASP36       0.3668
     32  OD1        0.5060    3.3970  -20.0390 O.co2  36  ASP36      -0.2456
     33  OD2        1.7770    3.2220  -21.8280 O.co2  36  ASP36      -0.2456
     34  N         -0.8920    5.7120  -18.8760 N.3    38  GLY38      -0.1210
     35  CA         0.3300    6.4430  -18.5430 C.3    38  GLY38       0.1956
     36  C          1.1370    7.0070  -19.6970 C.2    38  GLY38       0.2613
     37  O          2.2460    7.4920  -19.4720 O.2    38  GLY38      -0.2717
     38  N          0.6220    6.9260  -20.9370 N.am   39  SER39      -0.1938
     39  CA         1.2850    7.4820  -22.1340 C.3    39  SER39       0.2055
     40  C          0.2320    7.9730  -23.1170 C.2    39  SER39       0.2644
     41  O         -0.9410    7.7270  -22.8920 O.2    39  SER39      -0.2714
     42  CB         2.2500    6.4750  -22.7760 C.3    39  SER39       0.2130
     43  OG         1.5770    5.3870  -23.3900 O.3    39  SER39      -0.2179
     44  N          0.6250    8.6760  -24.1910 N.am   40  SER40      -0.1935
     45  CA        -0.3470    9.2660  -25.1030 C.3    40  SER40       0.2055
     46  C         -0.1010    9.0010  -26.5640 C.2    40  SER40       0.2643
     47  O         -0.7260    9.6490  -27.4070 O.2    40  SER40      -0.2714
     48  CB        -0.4540   10.7650  -24.8410 C.3    40  SER40       0.2130
     49  OG        -0.5700   10.9400  -23.4390 O.3    40  SER40      -0.2179
     50  N          0.7690    8.0410  -26.8790 N.am   41  ASN41      -0.1971
     51  CA         0.9760    7.6880  -28.2710 C.3    41  ASN41       0.1688
     52  C          0.3100    6.3510  -28.5710 C.2    41  ASN41       0.2292
     53  O          0.2380    5.4810  -27.7040 O.2    41  ASN41      -0.2864
     54  CB         2.4750    7.5570  -28.5900 C.3    41  ASN41       0.1181
     55  CG         3.2010    8.8610  -28.6570 C.2    41  ASN41       0.2629
     56  OD1        3.5860    9.4150  -27.6410 O.2    41  ASN41      -0.2716
     57  ND2        3.4310    9.3590  -29.8680 N.am   41  ASN41      -0.0877
     58  N          1.5740    3.6890  -30.4700 N.3    43  ALA43      -0.1245
     59  CA         2.8850    3.2500  -30.9380 C.3    43  ALA43       0.1562
     60  C          2.8350    1.7500  -31.1830 C.2    43  ALA43       0.2260
     61  O          2.6110    0.9700  -30.2470 O.2    43  ALA43      -0.2867
     62  CB         3.9540    3.5950  -29.8990 C.3    43  ALA43       0.0290
     63  N         12.2890    8.0890  -28.9410 N.3    73  VAL73      -0.1245
     64  CA        11.9170    8.0550  -27.5240 C.3    73  VAL73       0.1561
     65  C         12.9160    7.3280  -26.6020 C.2    73  VAL73       0.2260
     66  O         12.7220    6.1610  -26.2720 O.2    73  VAL73      -0.2867
     67  CB        10.4110    7.7060  -27.2360 C.3    73  VAL73       0.0252
     68  CG1       10.0570    7.9080  -25.7550 C.3    73  VAL73       0.0019
     69  CG2        9.4680    8.5320  -28.1040 C.3    73  VAL73       0.0019
     70  N         14.6360    6.5580  -22.8970 N.3    75  TYR75      -0.1241
     71  CA        14.2730    6.4930  -21.4770 C.3    75  TYR75       0.1605
     72  C         15.3510    5.6960  -20.7160 C.2    75  TYR75       0.2264
     73  O         16.2310    5.1210  -21.3610 O.2    75  TYR75      -0.2867
     74  CB        12.8250    6.0140  -21.2270 C.3    75  TYR75       0.0534
     75  CG        12.4550    4.6890  -21.8610 C.ar   75  TYR75      -0.0201
     76  CD1       12.7380    3.4850  -21.2200 C.ar   75  TYR75      -0.0009
     77  CD2       11.7480    4.6400  -23.0590 C.ar   75  TYR75      -0.0009
     78  CE1       12.3850    2.2620  -21.7900 C.ar   75  TYR75       0.0417
     79  CE2       11.3710    3.4240  -23.6280 C.ar   75  TYR75       0.0417
     80  CZ        11.6920    2.2360  -22.9890 C.ar   75  TYR75       0.1957
     81  OH        11.3320    1.0300  -23.5420 O.3    75  TYR75      -0.2866
     82  N         12.6970    3.5290  -27.9280 N.3    80  TRP80      -0.1241
     83  CA        11.9810    3.1540  -29.1470 C.3    80  TRP80       0.1605
     84  C         12.0570    4.3090  -30.1290 C.2    80  TRP80       0.2264
     85  O         12.2070    5.4680  -29.7300 O.2    80  TRP80      -0.2867
     86  CB        10.5390    2.6300  -28.9090 C.3    80  TRP80       0.0550
     87  CG         9.5500    3.6620  -28.4350 C.ar   80  TRP80       0.0003
     88  CD1        9.2770    3.9990  -27.1390 C.ar   80  TRP80       0.0946
     89  CD2        8.6840    4.4690  -29.2500 C.ar   80  TRP80       0.0152
     90  NE1        8.2750    4.9420  -27.0950 N.ar   80  TRP80      -0.2442
     91  CE2        7.8940    5.2510  -28.3760 C.ar   80  TRP80       0.0810
     92  CE3        8.5100    4.6240  -30.6350 C.ar   80  TRP80       0.0012
     93  CZ2        6.9300    6.1560  -28.8440 C.ar   80  TRP80       0.0191
     94  CZ3        7.5610    5.5260  -31.0950 C.ar   80  TRP80       0.0001
     95  CH2        6.7980    6.2920  -30.2070 C.ar   80  TRP80       0.0015
     96  N         14.7010   -2.9310  -25.1850 N.3   111  LYS111     -0.1231
     97  CA        14.0180   -3.3120  -23.9410 C.3   111  LYS111      0.1693
     98  C         12.6420   -2.6460  -23.8130 C.2   111  LYS111      0.2592
     99  O         12.3090   -2.0880  -22.7660 O.2   111  LYS111     -0.2718
    100  CB        14.8960   -3.0130  -22.7020 C.3   111  LYS111      0.0285
    101  CG        16.2730   -3.6750  -22.7060 C.3   111  LYS111      0.0035
    102  CD        17.1020   -3.1430  -21.5450 C.3   111  LYS111      0.0206
    103  CE        18.5900   -3.2560  -21.7720 C.3   111  LYS111      0.1093
    104  NZ        19.3600   -2.6290  -20.6600 N.3   111  LYS111     -0.1314
    105  N         11.8610   -2.6760  -24.8990 N.am  112  PHE112     -0.1976
    106  CA        10.5450   -2.0570  -24.9320 C.3   112  PHE112      0.1639
    107  C          9.5040   -3.1710  -24.9960 C.2   112  PHE112      0.2290
    108  O          8.6540   -3.2720  -24.1050 O.2   112  PHE112     -0.2864
    109  CB        10.4750   -1.1040  -26.1300 C.3   112  PHE112      0.0560
    110  CG         9.1450   -0.4420  -26.3550 C.ar  112  PHE112     -0.0200
    111  CD1        8.8120    0.7300  -25.6890 C.ar  112  PHE112     -0.0042
    112  CD2        8.2400   -0.9620  -27.2760 C.ar  112  PHE112     -0.0042
    113  CE1        7.5770    1.3480  -25.9110 C.ar  112  PHE112     -0.0003
    114  CE2        7.0080   -0.3450  -27.4970 C.ar  112  PHE112     -0.0003
    115  CZ         6.6970    0.8190  -26.8340 C.ar  112  PHE112     -0.0000
    116  N          8.1840   -7.0740  -24.6740 N.3   114  ILE114     -0.1245
    117  CA         8.4110   -8.0970  -23.6440 C.3   114  ILE114      0.1561
    118  C          8.1870   -9.4810  -24.2380 C.2   114  ILE114      0.2260
    119  O          7.2160   -9.6880  -24.9690 O.2   114  ILE114     -0.2867
    120  CB         7.4760   -7.8870  -22.4110 C.3   114  ILE114      0.0252
    121  CG1        7.4180   -6.4250  -21.9450 C.3   114  ILE114      0.0019
    122  CG2        7.8140   -8.8460  -21.2470 C.3   114  ILE114      0.0019
    123  CD1        6.1680   -6.1660  -21.1460 C.3   114  ILE114      0.0001
    124  N          1.3940   -8.8610  -26.7350 N.3   119  TRP119     -0.1241
    125  CA         1.0030   -7.5750  -27.3380 C.3   119  TRP119      0.1605
    126  C          2.0970   -7.0380  -28.2570 C.2   119  TRP119      0.2264
    127  O          3.2820   -7.3510  -28.0580 O.2   119  TRP119     -0.2867
    128  CB         0.4930   -6.5210  -26.3460 C.3   119  TRP119      0.0550
    129  CG         1.3650   -6.2410  -25.1680 C.ar  119  TRP119      0.0003
    130  CD1        1.1970   -6.7280  -23.8970 C.ar  119  TRP119      0.0946
    131  CD2        2.4760   -5.3310  -25.1090 C.ar  119  TRP119      0.0152
    132  NE1        2.1310   -6.1700  -23.0500 N.ar  119  TRP119     -0.2442
    133  CE2        2.9270   -5.3080  -23.7670 C.ar  119  TRP119      0.0810
    134  CE3        3.1170   -4.5060  -26.0520 C.ar  119  TRP119      0.0012
    135  CZ2        4.0070   -4.5180  -23.3540 C.ar  119  TRP119      0.0191
    136  CZ3        4.1780   -3.7140  -25.6380 C.ar  119  TRP119      0.0001
    137  CH2        4.6260   -3.7410  -24.3100 C.ar  119  TRP119      0.0015
    138  N          1.2360   -0.2210  -28.1510 N.3   122  ILE122     -0.1245
    139  CA         0.7100    0.4630  -26.9640 C.3   122  ILE122      0.1561
    140  C         -0.3270    1.5110  -27.3610 C.2   122  ILE122      0.2260
    141  O         -0.0820    2.3110  -28.2570 O.2   122  ILE122     -0.2867
    142  CB         1.8920    1.0780  -26.1310 C.3   122  ILE122      0.0252
    143  CG1        2.8960   -0.0230  -25.6320 C.3   122  ILE122      0.0019
    144  CG2        1.3890    1.9680  -24.9570 C.3   122  ILE122      0.0019
    145  CD1        3.9550    0.4580  -24.7820 C.3   122  ILE122      0.0001
    146  N          1.6810   15.0350  -23.0420 N.3   130  ILE130     -0.1245
    147  CA         2.7960   14.0920  -22.9180 C.3   130  ILE130      0.1561
    148  C          3.0350   13.2490  -24.1960 C.2   130  ILE130      0.2260
    149  O          3.8500   12.3510  -24.1550 O.2   130  ILE130     -0.2867
    150  CB         2.7280   13.2380  -21.6020 C.3   130  ILE130      0.0252
    151  CG1        1.4600   12.3430  -21.5680 C.3   130  ILE130      0.0019
    152  CG2        2.8410   14.1290  -20.3470 C.3   130  ILE130      0.0019
    153  CD1        1.4610   11.1890  -20.5920 C.3   130  ILE130      0.0001
    154  N          4.6010   12.1010  -27.7690 N.3   132  ARG132     -0.1245
    155  CA         5.9050   12.2680  -28.4040 C.3   132  ARG132      0.1563
    156  C          5.7530   12.3410  -29.9430 C.2   132  ARG132      0.2260
    157  O          4.9080   11.6290  -30.4860 O.2   132  ARG132     -0.2867
    158  CB         6.8970   11.1700  -27.9920 C.3   132  ARG132      0.0307
    159  CG         7.0500   10.9590  -26.4900 C.3   132  ARG132      0.0489
    160  CD         7.6270   12.1700  -25.7660 C.3   132  ARG132      0.2205
    161  NE         8.2160   11.7700  -24.4930 N.pl3 132  ARG132     -0.0865
    162  CZ         9.4880   11.4260  -24.3360 C.cat 132  ARG132      0.5346
    163  NH1       10.3280   11.4640  -25.3680 N.pl3 132  ARG132      0.1354
    164  NH2        9.9340   11.0490  -23.1450 N.pl3 132  ARG132      0.1354
    165  N         -1.8910    4.8320  -13.6110 N.3   220  ASP220     -0.1225
    166  CA        -1.2110    4.2730  -14.7730 C.3   220  ASP220      0.1805
    167  C         -1.3680    2.7600  -14.9810 C.2   220  ASP220      0.2598
    168  O         -0.6860    1.9640  -14.3230 O.2   220  ASP220     -0.2718
    169  CB         0.2660    4.6750  -14.7160 C.3   220  ASP220      0.1424
    170  CG         1.1220    4.2380  -15.8970 C.2   220  ASP220      0.3668
    171  OD1        0.5480    3.7620  -16.9120 O.co2 220  ASP220     -0.2456
    172  OD2        2.3420    4.4800  -15.8580 O.co2 220  ASP220     -0.2456
    173  N         -2.2350    2.3660  -15.9470 N.am  221  SER221     -0.1938
    174  CA        -2.4690    0.9520  -16.2770 C.3   221  SER221      0.2055
    175  C         -1.2230    0.3130  -16.9430 C.2   221  SER221      0.2644
    176  O         -1.1070   -0.9200  -16.9670 O.2   221  SER221     -0.2714
    177  CB        -3.6870    0.8100  -17.1750 C.3   221  SER221      0.2130
    178  OG        -3.4420    1.3780  -18.4500 O.3   221  SER221     -0.2179
    179  N         -0.2970    1.1640  -17.4320 N.am  222  GLY222     -0.1939
    180  CA         0.9520    0.7540  -18.0770 C.3   222  GLY222      0.2014
    181  C          2.1230    0.5820  -17.1180 C.2   222  GLY222      0.2640
    182  O          3.2600    0.3450  -17.5490 O.2   222  GLY222     -0.2714
    183  N          1.8610    0.7120  -15.8030 N.am  223  THR223     -0.1936
    184  CA         2.8580    0.4540  -14.7540 C.3   223  THR223      0.2028
    185  C          2.3080   -0.6940  -13.9220 C.2   223  THR223      0.2642
    186  O          1.1600   -0.6260  -13.5180 O.2   223  THR223     -0.2714
    187  CB         3.0970    1.6770  -13.8470 C.3   223  THR223      0.1808
    188  OG1        3.8550    2.6410  -14.5640 O.3   223  THR223     -0.2208
    189  CG2        3.8650    1.3060  -12.5630 C.3   223  THR223      0.0379
    190  N          3.0950   -1.7280  -13.6640 N.am  224  THR224     -0.1950
    191  CA         2.6070   -2.8540  -12.8560 C.3   224  THR224      0.1897
    192  C          2.3840   -2.4860  -11.3900 C.2   224  THR224      0.2313
    193  O          1.3230   -2.7610  -10.8320 O.2   224  THR224     -0.2863
    194  CB         3.5740   -4.0640  -12.9480 C.3   224  THR224      0.1794
    195  OG1        3.6520   -4.5070  -14.2960 O.3   224  THR224     -0.2208
    196  CG2        3.1420   -5.2290  -12.0570 C.3   224  THR224      0.0378
@<TRIPOS>BOND
     1    60    59    1
     2    60    61    2
     3    94    92   ar
     4    94    95   ar
     5    59    58    1
     6    59    62    1
     7    92    89   ar
     8   157   156    2
     9    95    93   ar
    10    84    85    2
    11    84    83    1
    12   156   155    1
    13    57    55   am
    14    89    87   ar
    15    89    91   ar
    16    83    86    1
    17    83    82    1
    18    63    64    1
    19    86    87    1
    20    93    91   ar
    21    55    54    1
    22    55    56    2
    23    54    51    1
    24    52    51    1
    25    52    53    2
    26    87    88   ar
    27   155   158    1
    28   155   154    1
    29    91    90   ar
    30    51    50    1
    31   141   140    2
    32   126   127    2
    33   126   125    1
    34   138   139    1
    35    69    67    1
    36   158   159    1
    37    64    67    1
    38    64    65    1
    39   114   112   ar
    40   114   115   ar
    41    47    46    2
    42   140   139    1
    43   125   124    1
    44   125   128    1
    45   112   110   ar
    46    67    68    1
    47    88    90   ar
    48   139   142    1
    49    50    46   am
    50   115   113   ar
    51    65    66    2
    52    46    45    1
    53   159   160    1
    54   110   109    1
    55   110   111   ar
    56   128   129    1
    57   142   143    1
    58   142   144    1
    59   109   106    1
    60   134   136   ar
    61   134   131   ar
    62   113   111   ar
    63    18    19    1
    64   160   161    1
    65   136   137   ar
    66   143   145    1
    67   163   162    1
    68    96    97    1
    69   129   131   ar
    70   129   130   ar
    71   131   133   ar
    72    45    48    1
    73    45    44    1
    74   107   106    1
    75   107   108    2
    76   119   118    2
    77   106   105    1
    78   105    98   am
    79    48    49    1
    80    21    20    2
    81   116   117    1
    82   161   162    2
    83    19    20    1
    84    19    22    1
    85   162   164    1
    86   137   135   ar
    87   118   117    1
    88   148   149    2
    89   148   147    1
    90    44    40   am
    91    22    23    1
    92    97    98    1
    93    97   100    1
    94   130   132   ar
    95    98    99    2
    96   133   135   ar
    97   133   132   ar
    98   117   120    1
    99    79    77   ar
   100    79    80   ar
   101    81    80    1
   102    43    42    1
   103    40    41    2
   104    40    39    1
   105    77    75   ar
   106   146   147    1
   107    80    78   ar
   108   147   150    1
   109    70    71    1
   110    42    39    1
   111   101   100    1
   112   101   102    1
   113    23    25    1
   114    23    24    1
   115   120   121    1
   116   120   122    1
   117    39    38    1
   118    26    27    1
   119    30    27    1
   120    30    31    1
   121   121   123    1
   122    75    74    1
   123    75    76   ar
   124    33    31   ar
   125    78    76   ar
   126    29    28    2
   127   103   102    1
   128   103   104    1
   129   150   151    1
   130   150   152    1
   131   151   153    1
   132    71    74    1
   133    71    72    1
   134    73    72    2
   135    27    28    1
   136    31    32   ar
   137    38    36   am
   138     8     7    2
   139    12    11    2
   140    36    37    2
   141    36    35    1
   142    17    16    2
   143    16    15    1
   144    11    13   am
   145    11    10    1
   146     9    10    1
   147     9     6    1
   148     7     6    1
   149     7    14   am
   150    15    14    1
   151    34    35    1
   152   178   177    1
   153     6     5    1
   154   180   179    1
   155   180   181    1
   156   182   181    2
   157   179   175   am
   158   177   174    1
   159   181   183   am
   160     5     3   am
   161   176   175    2
   162   175   174    1
   163   171   170   ar
   164   174   173    1
   165     4     3    2
   166     3     2    1
   167   173   167   am
   168   170   172   ar
   169   170   169    1
   170   183   184    1
   171   167   166    1
   172   167   168    2
   173   166   169    1
   174   166   165    1
   175   184   185    1
   176   184   187    1
   177     2     1    1
   178   188   187    1
   179   195   194    1
   180   185   190   am
   181   185   186    2
   182   187   189    1
   183   190   191    1
   184   194   191    1
   185   194   196    1
   186   191   192    1
   187   192   193    2
