@<TRIPOS>MOLECULE
tmp/4b1eA00.pdb
 182 171 0 0 0
SMALL
GASTEIGER

@<TRIPOS>ATOM
      1  N          2.2910   -9.2900  -14.2200 N.3    15  GLY15      -0.1210
      2  CA         3.4530   -8.4210  -14.3750 C.3    15  GLY15       0.1956
      3  C          3.7730   -7.9370  -15.7840 C.2    15  GLY15       0.2612
      4  O          4.6270   -7.0670  -15.9280 O.2    15  GLY15      -0.2717
      5  N          3.0920   -8.4600  -16.8340 N.am   16  GLN16      -0.1965
      6  CA         3.3710   -8.0890  -18.2420 C.3    16  GLN16       0.1733
      7  C          2.3320   -7.1500  -18.9010 C.2    16  GLN16       0.2616
      8  O          2.3940   -6.8850  -20.1120 O.2    16  GLN16      -0.2715
      9  CB         3.6080   -9.3500  -19.0980 C.3    16  GLN16       0.0408
     10  CG         4.8820  -10.1090  -18.7300 C.3    16  GLN16       0.0908
     11  CD         4.8850  -11.5220  -19.2590 C.2    16  GLN16       0.2608
     12  OE1        5.5080  -11.8240  -20.2790 O.2    16  GLN16      -0.2717
     13  NE2        4.2060  -12.4280  -18.5600 N.am   16  GLN16      -0.0878
     14  N          1.4030   -6.6580  -18.0940 N.am   17  GLY17      -0.1955
     15  CA         0.3500   -5.7560  -18.5390 C.3    17  GLY17       0.1869
     16  C         -0.8370   -6.4180  -19.2050 C.2    17  GLY17       0.2309
     17  O         -0.7870   -7.5970  -19.5640 O.2    17  GLY17      -0.2863
     18  N         -1.0580   -3.3390  -25.5990 N.3    34  LEU34      -0.1245
     19  CA        -1.0390   -3.0150  -24.1760 C.3    34  LEU34       0.1561
     20  C         -1.9300   -1.7920  -23.9080 C.2    34  LEU34       0.2260
     21  O         -1.7590   -0.7540  -24.5450 O.2    34  LEU34      -0.2867
     22  CB         0.4130   -2.7130  -23.7160 C.3    34  LEU34       0.0270
     23  CG         0.5590   -2.3010  -22.2530 C.3    34  LEU34       0.0019
     24  CD1        0.4960   -3.5140  -21.3240 C.3    34  LEU34       0.0001
     25  CD2        1.8170   -1.4760  -22.0280 C.3    34  LEU34       0.0001
     26  N         -2.5280    1.2090  -21.9330 N.3    36  ASP36      -0.1239
     27  CA        -1.6480    2.0370  -21.1150 C.3    36  ASP36       0.1674
     28  C         -2.1690    3.4510  -20.7700 C.2    36  ASP36       0.2266
     29  O         -2.0730    4.3730  -21.5730 O.2    36  ASP36      -0.2867
     30  CB        -0.2470    2.0740  -21.7730 C.3    36  ASP36       0.1410
     31  CG         0.8570    2.7760  -20.9810 C.2    36  ASP36       0.3668
     32  OD1        0.6540    3.0500  -19.7780 O.co2  36  ASP36      -0.2456
     33  OD2        1.9160    3.0190  -21.5550 O.co2  36  ASP36      -0.2456
     34  N         -0.7130    5.3340  -18.7180 N.3    38  GLY38      -0.1210
     35  CA         0.4700    6.0970  -18.3440 C.3    38  GLY38       0.1956
     36  C          1.2400    6.7050  -19.4840 C.2    38  GLY38       0.2612
     37  O          2.2930    7.2910  -19.2480 O.2    38  GLY38      -0.2717
     38  N          0.7400    6.5820  -20.7200 N.am   39  SER39      -0.1952
     39  CA         1.4090    7.1450  -21.8970 C.3    39  SER39       0.1924
     40  C          0.3720    7.6230  -22.9080 C.2    39  SER39       0.2314
     41  O         -0.8120    7.3880  -22.6810 O.2    39  SER39      -0.2863
     42  CB         2.4290    6.1680  -22.4810 C.3    39  SER39       0.2116
     43  OG         1.7940    5.0500  -23.0770 O.3    39  SER39      -0.2180
     44  N         13.3750    5.4060  -22.4650 N.3    75  TYR75      -0.1241
     45  CA        12.8910    5.2220  -21.0850 C.3    75  TYR75       0.1605
     46  C         14.1050    4.9930  -20.1720 C.2    75  TYR75       0.2264
     47  O         15.2330    4.9760  -20.6730 O.2    75  TYR75      -0.2867
     48  CB        11.9300    4.0190  -20.9820 C.3    75  TYR75       0.0534
     49  CG        10.7770    4.0240  -21.9600 C.ar   75  TYR75      -0.0201
     50  CD1        9.7210    4.9230  -21.8190 C.ar   75  TYR75      -0.0009
     51  CD2       10.6950    3.0760  -22.9750 C.ar   75  TYR75      -0.0009
     52  CE1        8.6450    4.9190  -22.7050 C.ar   75  TYR75       0.0417
     53  CE2        9.6160    3.0500  -23.8570 C.ar   75  TYR75       0.0417
     54  CZ         8.5910    3.9730  -23.7180 C.ar   75  TYR75       0.1957
     55  OH         7.5190    3.9490  -24.5820 O.3    75  TYR75      -0.2866
     56  N         12.2520   -3.1230  -24.8240 N.3   112  PHE112     -0.1241
     57  CA        10.8850   -2.6170  -24.8590 C.3   112  PHE112      0.1605
     58  C          9.8720   -3.7610  -24.9530 C.2   112  PHE112      0.2264
     59  O          8.9820   -3.8640  -24.1050 O.2   112  PHE112     -0.2867
     60  CB        10.7280   -1.6010  -25.9930 C.3   112  PHE112      0.0534
     61  CG         9.3180   -1.1250  -26.2120 C.ar  112  PHE112     -0.0203
     62  CD1        8.7380   -0.2010  -25.3540 C.ar  112  PHE112     -0.0042
     63  CD2        8.5700   -1.5920  -27.2890 C.ar  112  PHE112     -0.0042
     64  CE1        7.4360    0.2420  -25.5700 C.ar  112  PHE112     -0.0003
     65  CE2        7.2700   -1.1420  -27.5000 C.ar  112  PHE112     -0.0003
     66  CZ         6.7180   -0.2220  -26.6520 C.ar  112  PHE112     -0.0000
     67  N          8.6450   -7.4430  -24.4030 N.3   114  ILE114     -0.1245
     68  CA         8.8980   -8.4780  -23.3950 C.3   114  ILE114      0.1561
     69  C          8.6300   -9.8740  -23.9580 C.2   114  ILE114      0.2260
     70  O          7.5740  -10.1050  -24.5420 O.2   114  ILE114     -0.2867
     71  CB         8.0880   -8.1870  -22.0900 C.3   114  ILE114      0.0252
     72  CG1        8.3330   -6.7420  -21.5890 C.3   114  ILE114      0.0019
     73  CG2        8.3890   -9.2190  -20.9850 C.3   114  ILE114      0.0019
     74  CD1        7.1650   -6.1040  -20.7920 C.3   114  ILE114      0.0001
     75  N          1.8180   -9.0820  -26.4150 N.3   119  TRP119     -0.1241
     76  CA         1.4410   -7.8080  -27.0470 C.3   119  TRP119      0.1605
     77  C          2.5090   -7.2920  -28.0420 C.2   119  TRP119      0.2264
     78  O          3.7030   -7.5140  -27.8570 O.2   119  TRP119     -0.2867
     79  CB         0.9420   -6.7400  -26.0720 C.3   119  TRP119      0.0550
     80  CG         1.8490   -6.4150  -24.9260 C.ar  119  TRP119      0.0003
     81  CD1        1.7240   -6.8470  -23.6380 C.ar  119  TRP119      0.0946
     82  CD2        2.9590   -5.5050  -24.9390 C.ar  119  TRP119      0.0152
     83  NE1        2.7030   -6.2850  -22.8520 N.ar  119  TRP119     -0.2442
     84  CE2        3.4730   -5.4550  -23.6220 C.ar  119  TRP119      0.0810
     85  CE3        3.5560   -4.7070  -25.9340 C.ar  119  TRP119      0.0012
     86  CZ2        4.5690   -4.6580  -23.2790 C.ar  119  TRP119      0.0191
     87  CZ3        4.6680   -3.9560  -25.6080 C.ar  119  TRP119      0.0001
     88  CH2        5.1760   -3.9470  -24.2960 C.ar  119  TRP119      0.0015
     89  N          1.4320   -0.6340  -27.9930 N.3   122  ILE122     -0.1245
     90  CA         0.9410    0.0770  -26.7970 C.3   122  ILE122      0.1561
     91  C         -0.0900    1.1120  -27.2070 C.2   122  ILE122      0.2260
     92  O          0.1270    1.8460  -28.1710 O.2   122  ILE122     -0.2867
     93  CB         2.1280    0.7480  -26.0340 C.3   122  ILE122      0.0252
     94  CG1        3.0930   -0.3050  -25.4440 C.3   122  ILE122      0.0019
     95  CG2        1.6390    1.7400  -24.9450 C.3   122  ILE122      0.0019
     96  CD1        4.1080    0.2700  -24.4240 C.3   122  ILE122      0.0001
     97  N         -0.7890   13.1090  -17.5620 N.3   189  TYR189     -0.1241
     98  CA        -0.9350   11.7350  -17.1210 C.3   189  TYR189      0.1605
     99  C         -2.3510   11.7740  -16.4810 C.2   189  TYR189      0.2264
    100  O         -2.9460   12.8520  -16.3680 O.2   189  TYR189     -0.2867
    101  CB         0.0360   11.4690  -15.9650 C.3   189  TYR189      0.0534
    102  CG         1.4870   11.3930  -16.3480 C.ar  189  TYR189     -0.0201
    103  CD1        2.0580   10.1930  -16.7540 C.ar  189  TYR189     -0.0009
    104  CD2        2.3080   12.5140  -16.2670 C.ar  189  TYR189     -0.0009
    105  CE1        3.4010   10.1210  -17.1200 C.ar  189  TYR189      0.0417
    106  CE2        3.6470   12.4590  -16.6500 C.ar  189  TYR189      0.0417
    107  CZ         4.1920   11.2570  -17.0640 C.ar  189  TYR189      0.1957
    108  OH         5.5180   11.1870  -17.4310 O.3   189  TYR189     -0.2866
    109  N          4.1400   14.1560   -8.2760 N.3   215  LYS215     -0.1245
    110  CA         2.8180   13.8820   -8.8330 C.3   215  LYS215      0.1561
    111  C          2.3940   12.4820   -8.3820 C.2   215  LYS215      0.2260
    112  O          3.2380   11.6890   -7.9540 O.2   215  LYS215     -0.2867
    113  CB         2.8150   13.9900  -10.3930 C.3   215  LYS215      0.0271
    114  CG         3.6350   12.9000  -11.0790 C.3   215  LYS215      0.0035
    115  CD         3.8220   13.1190  -12.5590 C.3   215  LYS215      0.0206
    116  CE         4.6190   11.9820  -13.1740 C.3   215  LYS215      0.1093
    117  NZ         6.0790   12.1160  -12.9410 N.3   215  LYS215     -0.1314
    118  N         -0.1070    9.3330  -10.0640 N.3   217  ILE217     -0.1245
    119  CA        -0.8190    8.9470  -11.2970 C.3   217  ILE217      0.1561
    120  C         -1.5380    7.5950  -11.2230 C.2   217  ILE217      0.2260
    121  O         -1.1630    6.7420  -10.4280 O.2   217  ILE217     -0.2867
    122  CB         0.1000    9.0440  -12.5630 C.3   217  ILE217      0.0252
    123  CG1        1.1720    7.9110  -12.5960 C.3   217  ILE217      0.0019
    124  CG2        0.6910   10.4750  -12.7490 C.3   217  ILE217      0.0019
    125  CD1        1.9880    7.7890  -13.9360 C.3   217  ILE217      0.0001
    126  N         -1.8750    4.4800  -13.4160 N.3   219  ASP219     -0.1225
    127  CA        -1.1700    3.9010  -14.5630 C.3   219  ASP219      0.1805
    128  C         -1.3510    2.4040  -14.7720 C.2   219  ASP219      0.2598
    129  O         -0.6230    1.6040  -14.1790 O.2   219  ASP219     -0.2718
    130  CB         0.3140    4.2630  -14.4590 C.3   219  ASP219      0.1424
    131  CG         1.1660    3.9030  -15.6720 C.2   219  ASP219      0.3668
    132  OD1        0.6110    3.3720  -16.6500 O.co2 219  ASP219     -0.2456
    133  OD2        2.3800    4.1990  -15.6510 O.co2 219  ASP219     -0.2456
    134  N         -2.2060    2.0270  -15.7390 N.am  220  SER220     -0.1938
    135  CA        -2.4070    0.6160  -16.1090 C.3   220  SER220      0.2055
    136  C         -1.1540   -0.0330  -16.7610 C.2   220  SER220      0.2644
    137  O         -1.0620   -1.2560  -16.7850 O.2   220  SER220     -0.2714
    138  CB        -3.5940    0.4950  -17.0530 C.3   220  SER220      0.2130
    139  OG        -3.3000    1.0790  -18.3110 O.3   220  SER220     -0.2179
    140  N         -0.2200    0.7830  -17.2690 N.am  221  GLY221     -0.1939
    141  CA         1.0190    0.3190  -17.9140 C.3   221  GLY221      0.2014
    142  C          2.1910    0.1110  -16.9650 C.2   221  GLY221      0.2640
    143  O          3.3050   -0.1670  -17.4080 O.2   221  GLY221     -0.2714
    144  N          1.9650    0.2940  -15.6620 N.am  222  THR222     -0.1936
    145  CA         2.9680    0.0740  -14.6150 C.3   222  THR222      0.2028
    146  C          2.4100   -1.0460  -13.7650 C.2   222  THR222      0.2642
    147  O          1.2380   -1.0140  -13.4600 O.2   222  THR222     -0.2714
    148  CB         3.1610    1.3460  -13.7760 C.3   222  THR222      0.1808
    149  OG1        3.8590    2.3100  -14.5540 O.3   222  THR222     -0.2208
    150  CG2        3.9180    1.0920  -12.4630 C.3   222  THR222      0.0379
    151  N          3.2190   -2.0470  -13.4070 N.am  223  THR223     -0.1950
    152  CA         2.7090   -3.1210  -12.5580 C.3   223  THR223      0.1897
    153  C          2.4510   -2.6810  -11.1010 C.2   223  THR223      0.2313
    154  O          1.3590   -2.8990  -10.5640 O.2   223  THR223     -0.2863
    155  CB         3.7010   -4.3190  -12.6030 C.3   223  THR223      0.1794
    156  OG1        3.6390   -4.8690  -13.9080 O.3   223  THR223     -0.2208
    157  CG2        3.3680   -5.4280  -11.5690 C.3   223  THR223      0.0378
    158  N          4.0540    2.3200   -6.9690 N.3   226  ARG226     -0.1245
    159  CA         5.3660    2.9530   -6.8470 C.3   226  ARG226      0.1563
    160  C          5.1920    4.1390   -5.8990 C.2   226  ARG226      0.2260
    161  O          4.1980    4.8450   -5.9910 O.2   226  ARG226     -0.2867
    162  CB         5.9140    3.3730   -8.2240 C.3   226  ARG226      0.0307
    163  CG         6.1110    2.2280   -9.2200 C.3   226  ARG226      0.0489
    164  CD         6.7380    2.7400  -10.5240 C.3   226  ARG226      0.2205
    165  NE         8.1830    2.9910  -10.3860 N.pl3 226  ARG226     -0.0865
    166  CZ         8.7880    4.1580  -10.6280 C.cat 226  ARG226      0.5346
    167  NH1        8.0860    5.2110  -11.0390 N.pl3 226  ARG226      0.1354
    168  NH2       10.1020    4.2760  -10.4730 N.pl3 226  ARG226      0.1354
    169  N          9.9030    9.5510   -9.4080 N.3   320  THR320     -0.1218
    170  CA         9.0320   10.3010  -10.3090 C.3   320  THR320      0.1862
    171  C          7.5890   10.4260   -9.7880 C.2   320  THR320      0.2287
    172  O          6.6780   10.7230  -10.5600 O.2   320  THR320     -0.2866
    173  CB         9.1230    9.7020  -11.7420 C.3   320  THR320      0.1770
    174  OG1        8.7100    8.3360  -11.6990 O.3   320  THR320     -0.2211
    175  CG2       10.5340    9.7850  -12.3340 C.3   320  THR320      0.0375
    176  N          2.8810    6.0590   -8.2150 N.3   323  VAL323     -0.1245
    177  CA         2.2810    5.3840   -9.3610 C.3   323  VAL323      0.1561
    178  C          1.2870    4.3170   -8.8520 C.2   323  VAL323      0.2260
    179  O          1.6920    3.3160   -8.2590 O.2   323  VAL323     -0.2867
    180  CB         3.2680    4.8070  -10.4160 C.3   323  VAL323      0.0252
    181  CG1        2.5020    4.3250  -11.6470 C.3   323  VAL323      0.0019
    182  CG2        4.3500    5.8140  -10.8180 C.3   323  VAL323      0.0019
@<TRIPOS>BOND
     1    92    91    2
     2    77    78    2
     3    77    76    1
     4    89    90    1
     5    65    63   ar
     6    65    66   ar
     7    63    61   ar
     8    91    90    1
     9    76    75    1
    10    76    79    1
    11    90    93    1
    12    66    64   ar
    13    61    60    1
    14    61    62   ar
    15    79    80    1
    16    93    94    1
    17    93    95    1
    18    60    57    1
    19    85    87   ar
    20    85    82   ar
    21    87    88   ar
    22    18    19    1
    23    64    62   ar
    24    94    96    1
    25    58    57    1
    26    58    59    2
    27    82    80   ar
    28    82    84   ar
    29    80    81   ar
    30    57    56    1
    31    55    54    1
    32    21    20    2
    33    70    69    2
    34    67    68    1
    35    88    86   ar
    36    19    20    1
    37    19    22    1
    38    69    68    1
    39    53    54   ar
    40    53    51   ar
    41    54    52   ar
    42    22    23    1
    43    81    83   ar
    44    84    86   ar
    45    84    83   ar
    46    68    71    1
    47    43    42    1
    48    51    49   ar
    49    40    41    2
    50    40    39    1
    51    52    50   ar
    52    42    39    1
    53    44    45    1
    54    23    25    1
    55    23    24    1
    56    71    72    1
    57    71    73    1
    58    49    50   ar
    59    49    48    1
    60    26    27    1
    61    39    38    1
    62    30    27    1
    63    30    31    1
    64    72    74    1
    65    29    28    2
    66    33    31   ar
    67    27    28    1
    68    45    48    1
    69    45    46    1
    70    31    32   ar
    71    38    36   am
    72    47    46    2
    73    12    11    2
    74     8     7    2
    75    17    16    2
    76    36    37    2
    77    36    35    1
    78    11    10    1
    79    11    13   am
    80    16    15    1
    81     9    10    1
    82     9     6    1
    83     7     6    1
    84     7    14   am
    85    34    35    1
    86    15    14    1
    87   139   138    1
    88     6     5    1
    89   141   140    1
    90   141   142    1
    91    97    98    1
    92   108   107    1
    93   143   142    2
    94   140   136   am
    95    98    99    1
    96    98   101    1
    97   105   107   ar
    98   105   103   ar
    99   107   106   ar
   100   138   135    1
   101   142   144   am
   102     5     3   am
   103   137   136    2
   104   136   135    1
   105   103   102   ar
   106   106   104   ar
   107   132   131   ar
   108    99   100    2
   109   102   104   ar
   110   102   101    1
   111   135   134    1
   112     4     3    2
   113     3     2    1
   114   134   128   am
   115   131   133   ar
   116   131   130    1
   117   144   145    1
   118   128   127    1
   119   128   129    2
   120   145   148    1
   121   145   146    1
   122   127   130    1
   123   127   126    1
   124   149   148    1
   125     2     1    1
   126   125   123    1
   127   156   155    1
   128   148   150    1
   129   146   147    2
   130   146   151   am
   131   151   152    1
   132   116   117    1
   133   116   115    1
   134   124   122    1
   135   155   152    1
   136   155   157    1
   137   123   122    1
   138   122   119    1
   139   115   114    1
   140   152   153    1
   141   175   173    1
   142   173   174    1
   143   173   170    1
   144   181   180    1
   145   119   120    1
   146   119   118    1
   147   120   121    2
   148   153   154    2
   149   114   113    1
   150   167   166    1
   151   182   180    1
   152   166   168    1
   153   166   165    2
   154   172   171    2
   155   164   165    1
   156   164   163    1
   157   180   177    1
   158   113   110    1
   159   170   171    1
   160   170   169    1
   161   177   178    1
   162   177   176    1
   163   163   162    1
   164   178   179    2
   165   110   111    1
   166   110   109    1
   167   111   112    2
   168   162   159    1
   169   158   159    1
   170   159   160    1
   171   161   160    2
