@<TRIPOS>MOLECULE
tmp/4b1fA00.pdb
 145 141 0 0 0
SMALL
GASTEIGER

@<TRIPOS>ATOM
      1  N         16.8000  -11.6500   -8.9460 N.3    10  VAL10      -0.1231
      2  CA        16.6680  -13.0010   -9.5080 C.3    10  VAL10       0.1692
      3  C         17.7190  -13.3630  -10.5160 C.2    10  VAL10       0.2592
      4  O         17.9120  -14.5340  -10.8380 O.2    10  VAL10      -0.2718
      5  CB        15.2600  -13.2150  -10.1270 C.3    10  VAL10       0.0266
      6  CG1       15.1270  -12.3820  -11.3620 C.3    10  VAL10       0.0020
      7  CG2       14.9640  -14.6960  -10.4090 C.3    10  VAL10       0.0020
      8  N         18.4290  -12.3890  -11.0410 N.am   11  GLY11      -0.1957
      9  CA        19.3090  -12.6500  -12.1560 C.3    11  GLY11       0.1869
     10  C         20.4170  -13.6360  -11.7640 C.2    11  GLY11       0.2309
     11  O         20.9140  -14.3910  -12.5950 O.2    11  GLY11      -0.2863
     12  N         20.1890  -16.3250  -10.5650 N.3    13  PHE13      -0.1227
     13  CA        19.8010  -17.6270  -11.0110 C.3    13  PHE13       0.1736
     14  C         20.6860  -18.2060  -12.0970 C.2    13  PHE13       0.2596
     15  O         20.8580  -19.4410  -12.1370 O.2    13  PHE13      -0.2718
     16  CB        18.3950  -17.5970  -11.5540 C.3    13  PHE13       0.0547
     17  CG        17.3120  -17.7620  -10.5320 C.ar   13  PHE13      -0.0202
     18  CD1       17.4470  -17.3160   -9.2440 C.ar   13  PHE13      -0.0042
     19  CD2       16.1100  -18.2890  -10.9210 C.ar   13  PHE13      -0.0042
     20  CE1       16.4210  -17.4690   -8.3160 C.ar   13  PHE13      -0.0003
     21  CE2       15.0690  -18.4240  -10.0190 C.ar   13  PHE13      -0.0003
     22  CZ        15.2120  -17.9810   -8.7040 C.ar   13  PHE13      -0.0000
     23  N         21.2070  -17.3460  -12.9900 N.am   14  SER14      -0.1952
     24  CA        22.0880  -17.7840  -14.0520 C.3    14  SER14       0.1924
     25  C         23.3830  -18.3920  -13.5180 C.2    14  SER14       0.2314
     26  O         23.9430  -19.3100  -14.1260 O.2    14  SER14      -0.2863
     27  CB        22.4350  -16.6140  -15.0240 C.3    14  SER14       0.2116
     28  OG        23.2630  -15.6460  -14.3570 O.3    14  SER14      -0.2180
     29  N         22.2510  -21.7610  -11.4090 N.3    17  LYS17      -0.1245
     30  CA        22.0270  -22.9220  -12.3000 C.3    17  LYS17       0.1561
     31  C         23.3220  -23.6980  -12.5350 C.2    17  LYS17       0.2260
     32  O         23.3400  -24.9300  -12.4060 O.2    17  LYS17      -0.2867
     33  CB        21.4720  -22.4790  -13.6550 C.3    17  LYS17       0.0271
     34  CG        21.0610  -23.6290  -14.5930 C.3    17  LYS17       0.0035
     35  CD        20.6140  -23.0390  -15.9220 C.3    17  LYS17       0.0206
     36  CE        20.6980  -24.0480  -17.0670 C.3    17  LYS17       0.1093
     37  NZ        19.6240  -23.7400  -18.0440 N.3    17  LYS17      -0.1314
     38  N         15.3340   -8.2100  -20.8550 N.3   149  ILE149     -0.1231
     39  CA        15.3840   -9.5920  -20.3500 C.3   149  ILE149      0.1692
     40  C         14.4300   -9.8360  -19.1770 C.2   149  ILE149      0.2591
     41  O         13.7470  -10.8270  -19.1510 O.2   149  ILE149     -0.2718
     42  CB        16.7970   -9.9820  -19.9620 C.3   149  ILE149      0.0266
     43  CG1       17.6500  -10.0630  -21.2330 C.3   149  ILE149      0.0019
     44  CG2       16.7940  -11.3270  -19.2750 C.3   149  ILE149      0.0020
     45  CD1       19.1360  -10.2120  -20.9920 C.3   149  ILE149      0.0001
     46  N         14.3380   -8.9020  -18.2550 N.am  150  GLU150     -0.1979
     47  CA        13.3490   -8.9800  -17.2570 C.3   150  GLU150      0.1602
     48  C         11.9550   -9.0630  -17.7760 C.2   150  GLU150      0.2287
     49  O         11.1720   -9.7630  -17.1590 O.2   150  GLU150     -0.2864
     50  CB        13.4550   -7.8490  -16.2740 C.3   150  GLU150      0.0415
     51  CG        14.7350   -8.0740  -15.4950 C.3   150  GLU150      0.1163
     52  CD        14.9570   -7.1460  -14.3880 C.2   150  GLU150      0.3649
     53  OE1       14.4230   -6.0110  -14.5210 O.co2 150  GLU150     -0.2457
     54  OE2       15.6710   -7.6290  -13.4310 O.co2 150  GLU150     -0.2457
     55  N         11.2190  -10.4490  -20.5450 N.3   152  SER152     -0.1217
     56  CA        11.1350  -11.6430  -21.3570 C.3   152  SER152      0.1889
     57  C         11.2200  -11.2840  -22.8240 C.2   152  SER152      0.2288
     58  O         10.7220  -12.0190  -23.6690 O.2   152  SER152     -0.2866
     59  CB         9.8690  -12.4800  -21.0500 C.3   152  SER152      0.2089
     60  OG         9.8740  -12.9860  -19.7030 O.3   152  SER152     -0.2183
     61  N         13.1550  -11.8550  -25.2440 N.3   154  LEU154     -0.1245
     62  CA        14.2830  -12.7750  -25.4790 C.3   154  LEU154      0.1561
     63  C         14.5430  -13.0620  -26.9660 C.2   154  LEU154      0.2260
     64  O         15.4930  -13.7030  -27.3230 O.2   154  LEU154     -0.2867
     65  CB        14.1230  -14.0370  -24.6310 C.3   154  LEU154      0.0270
     66  CG        13.9370  -13.7530  -23.1340 C.3   154  LEU154      0.0019
     67  CD1       14.0160  -15.1060  -22.4350 C.3   154  LEU154      0.0001
     68  CD2       15.0140  -12.7980  -22.6150 C.3   154  LEU154      0.0001
     69  N         24.5870  -10.9150  -14.9220 N.3   182  THR182     -0.1203
     70  CA        23.7410  -12.0980  -14.6430 C.3   182  THR182      0.1994
     71  C         22.6980  -12.4010  -15.7030 C.2   182  THR182      0.2617
     72  O         22.3290  -13.5560  -15.9220 O.2   182  THR182     -0.2717
     73  CB        22.9530  -11.9620  -13.3320 C.3   182  THR182      0.1784
     74  OG1       22.2780  -10.6850  -13.2970 O.3   182  THR182     -0.2211
     75  CG2       23.8600  -12.1580  -12.1140 C.3   182  THR182      0.0376
     76  N         22.2320  -11.3730  -16.3630 N.am  183  HIS183     -0.1975
     77  CA        21.0690  -11.4790  -17.2130 C.3   183  HIS183      0.1656
     78  C         21.4680  -11.9060  -18.5780 C.2   183  HIS183      0.2291
     79  O         20.6360  -12.4660  -19.2680 O.2   183  HIS183     -0.2864
     80  CB        20.2890  -10.1140  -17.3390 C.3   183  HIS183      0.0771
     81  CG        19.5460   -9.7110  -16.0980 C.ar  183  HIS183      0.0820
     82  ND1       20.1190   -9.7640  -14.8470 N.ar  183  HIS183     -0.2267
     83  CD2       18.2790   -9.2460  -15.9170 C.ar  183  HIS183      0.1154
     84  CE1       19.2280   -9.3640  -13.9360 C.ar  183  HIS183      0.1986
     85  NE2       18.1060   -9.0540  -14.5710 N.ar  183  HIS183     -0.2212
     86  N         23.4120  -14.2760  -20.1040 N.3   185  PRO185     -0.2102
     87  CA        23.2550  -15.6370  -20.6890 C.3   185  PRO185      0.1504
     88  C         21.9240  -15.9050  -21.3200 C.2   185  PRO185      0.2575
     89  O         21.8400  -16.7330  -22.2330 O.2   185  PRO185     -0.2718
     90  CB        23.5170  -16.5690  -19.4970 C.3   185  PRO185      0.0282
     91  CG        24.4180  -15.7440  -18.5790 C.3   185  PRO185      0.0208
     92  CD        23.9880  -14.3260  -18.7370 C.3   185  PRO185      0.0893
     93  N         20.8520  -15.2640  -20.8590 N.am  186  LEU186     -0.1980
     94  CA        19.5060  -15.5620  -21.4430 C.3   186  LEU186      0.1596
     95  C         19.3380  -15.1280  -22.9360 C.2   186  LEU186      0.2287
     96  O         18.3320  -15.4600  -23.5930 O.2   186  LEU186     -0.2864
     97  CB        18.3770  -14.9770  -20.5650 C.3   186  LEU186      0.0297
     98  CG        17.9920  -15.8290  -19.3200 C.3   186  LEU186      0.0022
     99  CD1       19.1210  -15.9310  -18.3260 C.3   186  LEU186      0.0001
    100  CD2       16.8190  -15.2250  -18.6200 C.3   186  LEU186      0.0001
    101  N          7.4130  -14.3920   -5.0610 N.3   244  TRP244     -0.1241
    102  CA         7.6690  -14.4450   -6.4720 C.3   244  TRP244      0.1605
    103  C          8.9950  -15.1050   -6.6780 C.2   244  TRP244      0.2264
    104  O          9.1670  -15.8770   -7.6150 O.2   244  TRP244     -0.2867
    105  CB         7.6570  -13.0400   -7.0890 C.3   244  TRP244      0.0550
    106  CG         7.9200  -13.0460   -8.5540 C.ar  244  TRP244      0.0003
    107  CD1        6.9820  -13.2140   -9.5600 C.ar  244  TRP244      0.0946
    108  CD2        9.1750  -12.8450   -9.2190 C.ar  244  TRP244      0.0152
    109  NE1        7.6020  -13.1730  -10.7730 N.ar  244  TRP244     -0.2442
    110  CE2        8.9390  -12.9260  -10.5900 C.ar  244  TRP244      0.0810
    111  CE3       10.4580  -12.6150   -8.7840 C.ar  244  TRP244      0.0012
    112  CZ2        9.9530  -12.7680  -11.5500 C.ar  244  TRP244      0.0191
    113  CZ3       11.4640  -12.4410   -9.7260 C.ar  244  TRP244      0.0001
    114  CH2       11.2010  -12.5430  -11.1080 C.ar  244  TRP244      0.0015
    115  N          9.7740  -18.5130   -8.9200 N.3   248  GLN248     -0.1245
    116  CA        10.6850  -18.5750  -10.0280 C.3   248  GLN248      0.1566
    117  C         11.6440  -19.7350   -9.8360 C.2   248  GLN248      0.2260
    118  O         11.9370  -20.4150  -10.7880 O.2   248  GLN248     -0.2867
    119  CB        11.4730  -17.3020  -10.2770 C.3   248  GLN248      0.0367
    120  CG        10.6470  -16.0720  -10.6100 C.3   248  GLN248      0.0905
    121  CD         9.7600  -16.2220  -11.8450 C.2   248  GLN248      0.2608
    122  OE1        8.6000  -15.8720  -11.7980 O.2   248  GLN248     -0.2717
    123  NE2       10.3100  -16.6850  -12.9350 N.am  248  GLN248     -0.0878
    124  N         11.7570  -22.6550  -12.7110 N.3   252  TRP252     -0.1227
    125  CA        12.8870  -22.5680  -13.6220 C.3   252  TRP252      0.1737
    126  C         14.0550  -23.4360  -13.1910 C.2   252  TRP252      0.2595
    127  O         14.7280  -23.9220  -14.0400 O.2   252  TRP252     -0.2718
    128  CB        13.3640  -21.1040  -13.7800 C.3   252  TRP252      0.0564
    129  CG        12.4410  -20.2800  -14.6400 C.ar  252  TRP252      0.0003
    130  CD1       11.6080  -19.2930  -14.2350 C.ar  252  TRP252      0.0946
    131  CD2       12.2260  -20.4450  -16.0300 C.ar  252  TRP252      0.0152
    132  NE1       10.9130  -18.7870  -15.2950 N.ar  252  TRP252     -0.2442
    133  CE2       11.2640  -19.4930  -16.4160 C.ar  252  TRP252      0.0810
    134  CE3       12.7700  -21.2900  -16.9910 C.ar  252  TRP252      0.0012
    135  CZ2       10.8040  -19.3890  -17.7140 C.ar  252  TRP252      0.0191
    136  CZ3       12.3410  -21.1730  -18.2850 C.ar  252  TRP252      0.0001
    137  CH2       11.3500  -20.2360  -18.6400 C.ar  252  TRP252      0.0015
    138  N         14.2870  -23.6280  -11.8880 N.am  253  LEU253     -0.1980
    139  CA        15.5020  -24.3450  -11.4140 C.3   253  LEU253      0.1596
    140  C         15.1720  -25.7910  -10.9950 C.2   253  LEU253      0.2287
    141  O         16.0880  -26.5710  -10.7730 O.2   253  LEU253     -0.2864
    142  CB        16.2170  -23.5890  -10.2700 C.3   253  LEU253      0.0297
    143  CG        16.7160  -22.1340  -10.5080 C.3   253  LEU253      0.0022
    144  CD1       17.4460  -21.4700   -9.3260 C.3   253  LEU253      0.0001
    145  CD2       17.6500  -22.1160  -11.6920 C.3   253  LEU253      0.0001
@<TRIPOS>BOND
     1    64    63    2
     2    63    62    1
     3    62    61    1
     4    62    65    1
     5    65    66    1
     6    58    57    2
     7    96    95    2
     8    66    68    1
     9    66    67    1
    10    95    94    1
    11    57    56    1
    12    89    88    2
    13    94    93    1
    14    94    97    1
    15    56    59    1
    16    56    55    1
    17    88    93   am
    18    88    87    1
    19    43    45    1
    20    43    42    1
    21    59    60    1
    22    38    39    1
    23    87    86    1
    24    87    90    1
    25    97    98    1
    26    39    42    1
    27    39    40    1
    28    86    92    1
    29    42    44    1
    30    90    91    1
    31    98   100    1
    32    98    99    1
    33    79    78    2
    34    40    41    2
    35    40    46   am
    36    92    91    1
    37   137   136   ar
    38   137   135   ar
    39    78    77    1
    40   136   134   ar
    41    46    47    1
    42    37    36    1
    43    48    47    1
    44    48    49    2
    45   135   133   ar
    46    80    77    1
    47    80    81    1
    48    47    50    1
    49    77    76    1
    50    36    35    1
    51   134   131   ar
    52   133   131   ar
    53   133   132   ar
    54    76    71   am
    55    50    51    1
    56    81    83   ar
    57    81    82   ar
    58   131   129   ar
    59    72    71    2
    60    35    34    1
    61    83    85   ar
    62    71    70    1
    63    51    52    1
    64   132   130   ar
    65    27    28    1
    66    27    24    1
    67    69    70    1
    68    82    84   ar
    69    70    73    1
    70   129   130   ar
    71   129   128    1
    72    34    33    1
    73    85    84   ar
    74    53    52   ar
    75    52    54   ar
    76    26    25    2
    77    24    25    1
    78    24    23    1
    79   127   126    2
    80   128   125    1
    81    33    30    1
    82   125   126    1
    83   125   124    1
    84    73    74    1
    85    73    75    1
    86   126   138   am
    87    23    14   am
    88   123   121   am
    89    11    10    2
    90    31    32    2
    91    31    30    1
    92    30    29    1
    93     9    10    1
    94     9     8    1
    95    15    14    2
    96    14    13    1
    97   138   139    1
    98   121   122    2
    99   121   120    1
   100   145   143    1
   101    16    13    1
   102    16    17    1
   103   112   114   ar
   104   112   110   ar
   105   139   140    1
   106   139   142    1
   107     6     5    1
   108   114   113   ar
   109     8     3   am
   110    13    12    1
   111   140   141    2
   112    19    17   ar
   113    19    21   ar
   114     4     3    2
   115   118   117    2
   116   109   110   ar
   117   109   107   ar
   118   120   119    1
   119   110   108   ar
   120    17    18   ar
   121     3     2    1
   122   143   142    1
   123   143   144    1
   124     7     5    1
   125   119   116    1
   126     5     2    1
   127   116   117    1
   128   116   115    1
   129    21    22   ar
   130   113   111   ar
   131   107   106   ar
   132     2     1    1
   133    18    20   ar
   134   108   111   ar
   135   108   106   ar
   136    22    20   ar
   137   106   105    1
   138   104   103    2
   139   105   102    1
   140   103   102    1
   141   102   101    1
