@<TRIPOS>MOLECULE
tmp/4b1iA01.pdb
 204 203 0 0 0
SMALL
GASTEIGER

@<TRIPOS>ATOM
      1  N         20.9410   -6.6000   -5.4500 N.3   269  THR269     -0.1203
      2  CA        21.0800   -5.8330   -4.2160 C.3   269  THR269      0.1994
      3  C         19.9490   -6.1630   -3.2160 C.2   269  THR269      0.2618
      4  O         18.9050   -6.7230   -3.5910 O.2   269  THR269     -0.2717
      5  CB        21.0650   -4.3470   -4.4970 C.3   269  THR269      0.1784
      6  OG1       19.7610   -3.9680   -4.9820 O.3   269  THR269     -0.2211
      7  CG2       22.1590   -3.9850   -5.5030 C.3   269  THR269      0.0376
      8  N         20.1650   -5.8110   -1.9440 N.am  270  ILE270     -0.1965
      9  CA        19.1640   -6.0290   -0.8970 C.3   270  ILE270      0.1727
     10  C         17.8590   -5.3350   -1.2250 C.2   270  ILE270      0.2616
     11  O         16.8130   -5.9600   -1.1640 O.2   270  ILE270     -0.2715
     12  CB        19.6860   -5.5650    0.5000 C.3   270  ILE270      0.0290
     13  CG1       20.7960   -6.5190    0.9960 C.3   270  ILE270      0.0022
     14  CG2       18.5330   -5.4450    1.5440 C.3   270  ILE270      0.0023
     15  CD1       21.7310   -5.8530    2.0720 C.3   270  ILE270      0.0001
     16  N         17.9320   -4.0740   -1.6320 N.am  271  GLU271     -0.1977
     17  CA        16.7310   -3.2790   -1.8910 C.3   271  GLU271      0.1602
     18  C         15.9290   -3.6540   -3.1440 C.2   271  GLU271      0.2287
     19  O         14.7320   -3.4480   -3.1770 O.2   271  GLU271     -0.2864
     20  CB        17.0660   -1.7900   -1.8770 C.3   271  GLU271      0.0415
     21  CG        17.8090   -1.2170   -3.0310 C.3   271  GLU271      0.1163
     22  CD        19.2990   -1.3860   -2.9290 C.2   271  GLU271      0.3649
     23  OE1       19.7840   -2.1130   -2.0050 O.co2 271  GLU271     -0.2457
     24  OE2       19.9670   -0.8270   -3.8370 O.co2 271  GLU271     -0.2457
     25  N         22.9610   -1.8400    7.0750 N.3   282  PHE282     -0.1227
     26  CA        24.2530   -1.9450    7.7440 C.3   282  PHE282      0.1736
     27  C         24.5010   -0.6080    8.4340 C.2   282  PHE282      0.2595
     28  O         25.1850    0.2860    7.9130 O.2   282  PHE282     -0.2718
     29  CB        25.3770   -2.2380    6.7410 C.3   282  PHE282      0.0547
     30  CG        25.1310   -3.4190    5.8430 C.ar  282  PHE282     -0.0202
     31  CD1       24.3230   -4.4850    6.2490 C.ar  282  PHE282     -0.0042
     32  CD2       25.7670   -3.4890    4.5900 C.ar  282  PHE282     -0.0042
     33  CE1       24.1250   -5.5740    5.4230 C.ar  282  PHE282     -0.0003
     34  CE2       25.5680   -4.5630    3.7820 C.ar  282  PHE282     -0.0003
     35  CZ        24.7390   -5.6190    4.2010 C.ar  282  PHE282     -0.0000
     36  N         23.9600   -0.5140    9.6400 N.am  283  ALA283     -0.1966
     37  CA        23.7540    0.7280   10.3640 C.3   283  ALA283      0.1728
     38  C         24.9310    1.2160   11.1840 C.2   283  ALA283      0.2616
     39  O         25.8620    0.4990   11.4230 O.2   283  ALA283     -0.2715
     40  CB        22.5710    0.5530   11.2940 C.3   283  ALA283      0.0334
     41  N         24.8270    2.4690   11.6000 N.am  284  ASN284     -0.1972
     42  CA        25.5650    3.0370   12.6930 C.3   284  ASN284      0.1688
     43  C         24.6850    2.9550   13.9500 C.2   284  ASN284      0.2292
     44  O         23.4390    2.9230   13.8680 O.2   284  ASN284     -0.2864
     45  CB        25.9110    4.4980   12.3740 C.3   284  ASN284      0.1181
     46  CG        26.9510    5.0910   13.3610 C.2   284  ASN284      0.2629
     47  OD1       26.6390    5.4540   14.5200 O.2   284  ASN284     -0.2716
     48  ND2       28.1810    5.1920   12.8900 N.am  284  ASN284     -0.0877
     49  N         23.3910    7.0640   10.0590 N.3   289  GLY289     -0.1225
     50  CA        24.7780    7.4130    9.8140 C.3   289  GLY289      0.1811
     51  C         24.9310    8.8730    9.5070 C.2   289  GLY289      0.2280
     52  O         24.3480    9.7170   10.1710 O.2   289  GLY289     -0.2866
     53  N         27.2420    5.7090    1.9930 N.3   297  VAL297     -0.1231
     54  CA        27.3980    4.2680    1.7240 C.3   297  VAL297      0.1692
     55  C         26.0710    3.5400    2.0110 C.2   297  VAL297      0.2592
     56  O         25.0020    4.1520    1.8860 O.2   297  VAL297     -0.2718
     57  CB        28.6640    3.6730    2.3820 C.3   297  VAL297      0.0266
     58  CG1       29.9020    4.2650    1.7250 C.3   297  VAL297      0.0020
     59  CG2       28.7150    3.9350    3.9300 C.3   297  VAL297      0.0020
     60  N         26.1010    2.2470    2.3260 N.am  298  GLN298     -0.1966
     61  CA        24.8840    1.4200    2.2380 C.3   298  GLN298      0.1733
     62  C         23.7150    1.9690    3.0540 C.2   298  GLN298      0.2616
     63  O         22.6210    2.1160    2.5080 O.2   298  GLN298     -0.2715
     64  CB        25.1780   -0.0320    2.5840 C.3   298  GLN298      0.0408
     65  CG        24.0310   -1.0380    2.2790 C.3   298  GLN298      0.0908
     66  CD        23.1470   -1.4000    3.4740 C.2   298  GLN298      0.2608
     67  OE1       23.2410   -0.7860    4.5200 O.2   298  GLN298     -0.2717
     68  NE2       22.2520   -2.3820    3.2980 N.am  298  GLN298     -0.0878
     69  N         23.9360    2.2860    4.3390 N.am  299  GLU299     -0.1963
     70  CA        22.8840    2.8890    5.1460 C.3   299  GLU299      0.1733
     71  C         22.3650    4.1990    4.5670 C.2   299  GLU299      0.2616
     72  O         21.1620    4.3480    4.4160 O.2   299  GLU299     -0.2715
     73  CB        23.2930    3.1030    6.6180 C.3   299  GLU299      0.0429
     74  CG        22.1580    3.7190    7.3970 C.3   299  GLU299      0.1163
     75  CD        22.3050    3.6670    8.9360 C.2   299  GLU299      0.3649
     76  OE1       23.3520    4.0840    9.4760 O.co2 299  GLU299     -0.2457
     77  OE2       21.3140    3.2720    9.6060 O.co2 299  GLU299     -0.2457
     78  N         23.2660    5.1420    4.2780 N.am  300  GLU300     -0.1963
     79  CA        22.8580    6.4590    3.8350 C.3   300  GLU300      0.1733
     80  C         22.1730    6.4220    2.4820 C.2   300  GLU300      0.2616
     81  O         21.2470    7.1980    2.2320 O.2   300  GLU300     -0.2715
     82  CB        24.0380    7.4590    3.7900 C.3   300  GLU300      0.0429
     83  CG        24.6790    7.7190    5.1290 C.3   300  GLU300      0.1163
     84  CD        25.9340    6.9000    5.4010 C.2   300  GLU300      0.3649
     85  OE1       26.2060    5.9050    4.6990 O.co2 300  GLU300     -0.2457
     86  OE2       26.6390    7.2550    6.3530 O.co2 300  GLU300     -0.2457
     87  N         22.6210    5.5560    1.5920 N.am  301  ILE301     -0.1977
     88  CA        21.9300    5.4140    0.3110 C.3   301  ILE301      0.1596
     89  C         20.4810    4.9160    0.5410 C.2   301  ILE301      0.2287
     90  O         19.5270    5.4640   -0.0420 O.2   301  ILE301     -0.2864
     91  CB        22.6760    4.5000   -0.6810 C.3   301  ILE301      0.0276
     92  CG1       23.9990    5.1420   -1.1180 C.3   301  ILE301      0.0022
     93  CG2       21.8310    4.3020   -1.9120 C.3   301  ILE301      0.0022
     94  CD1       25.0470    4.1550   -1.6250 C.3   301  ILE301      0.0001
     95  N         19.1320    4.9160   -7.9990 N.3   336  TYR336     -0.1241
     96  CA        20.4870    5.4320   -7.8980 C.3   336  TYR336      0.1605
     97  C         21.4780    4.4760   -8.5830 C.2   336  TYR336      0.2264
     98  O         21.1790    3.2990   -8.8630 O.2   336  TYR336     -0.2867
     99  CB        20.9170    5.6020   -6.4070 C.3   336  TYR336      0.0534
    100  CG        21.2580    4.2870   -5.7470 C.ar  336  TYR336     -0.0201
    101  CD1       20.2480    3.4450   -5.2950 C.ar  336  TYR336     -0.0009
    102  CD2       22.5680    3.8500   -5.6420 C.ar  336  TYR336     -0.0009
    103  CE1       20.5290    2.2170   -4.7620 C.ar  336  TYR336      0.0417
    104  CE2       22.8700    2.6060   -5.0740 C.ar  336  TYR336      0.0417
    105  CZ        21.8350    1.7970   -4.6590 C.ar  336  TYR336      0.1957
    106  OH        22.0850    0.5830   -4.1000 O.3   336  TYR336     -0.2866
    107  N         27.9850    4.5720   -5.3830 N.3   339  TYR339     -0.1241
    108  CA        28.0960    4.7650   -3.9640 C.3   339  TYR339      0.1605
    109  C         29.1700    5.8180   -3.7000 C.2   339  TYR339      0.2264
    110  O         30.0040    6.0870   -4.5600 O.2   339  TYR339     -0.2867
    111  CB        28.4980    3.4640   -3.2920 C.3   339  TYR339      0.0534
    112  CG        29.8360    2.9150   -3.7680 C.ar  339  TYR339     -0.0201
    113  CD1       31.0370    3.3450   -3.1860 C.ar  339  TYR339     -0.0009
    114  CD2       29.8970    1.9620   -4.7780 C.ar  339  TYR339     -0.0009
    115  CE1       32.2730    2.8240   -3.6050 C.ar  339  TYR339      0.0417
    116  CE2       31.1170    1.4380   -5.1980 C.ar  339  TYR339      0.0417
    117  CZ        32.2960    1.8760   -4.6120 C.ar  339  TYR339      0.1957
    118  OH        33.5130    1.3840   -5.0430 O.3   339  TYR339     -0.2866
    119  N         26.9150   -3.1960   13.0570 N.3   370  ALA370     -0.1245
    120  CA        28.0970   -4.0530   13.3490 C.3   370  ALA370      0.1562
    121  C         29.0840   -3.2110   14.0940 C.2   370  ALA370      0.2260
    122  O         28.9270   -1.9900   14.1750 O.2   370  ALA370     -0.2867
    123  CB        28.7540   -4.5540   12.0440 C.3   370  ALA370      0.0290
    124  N         27.2690   -8.0660    2.9930 N.3   413  ASN413     -0.1225
    125  CA        28.5650   -7.8680    3.6290 C.3   413  ASN413      0.1785
    126  C         28.5080   -6.8920    4.7910 C.2   413  ASN413      0.2597
    127  O         29.2470   -5.9100    4.8300 O.2   413  ASN413     -0.2718
    128  CB        29.6090   -7.4670    2.5820 C.3   413  ASN413      0.1169
    129  CG        29.7440   -8.5200    1.4490 C.2   413  ASN413      0.2627
    130  OD1       29.5840   -9.7180    1.6770 O.2   413  ASN413     -0.2716
    131  ND2       30.0570   -8.0630    0.2420 N.am  413  ASN413     -0.0877
    132  N         27.6240   -7.2090    5.7420 N.am  414  TRP414     -0.1962
    133  CA        27.3590   -6.3940    6.9700 C.3   414  TRP414      0.1771
    134  C         28.6360   -6.1130    7.7610 C.2   414  TRP414      0.2620
    135  O         29.3380   -7.0140    8.1890 O.2   414  TRP414     -0.2715
    136  CB        26.3230   -7.1230    7.8300 C.3   414  TRP414      0.0590
    137  CG        26.0100   -6.5150    9.1800 C.ar  414  TRP414      0.0006
    138  CD1       25.6840   -5.2320    9.4330 C.ar  414  TRP414      0.0946
    139  CD2       25.9890   -7.1930   10.4400 C.ar  414  TRP414      0.0152
    140  NE1       25.4360   -5.0630   10.7660 N.ar  414  TRP414     -0.2442
    141  CE2       25.6260   -6.2570   11.4050 C.ar  414  TRP414      0.0810
    142  CE3       26.2330   -8.5190   10.8440 C.ar  414  TRP414      0.0012
    143  CZ2       25.5200   -6.5900   12.7660 C.ar  414  TRP414      0.0191
    144  CZ3       26.1070   -8.8530   12.1780 C.ar  414  TRP414      0.0001
    145  CH2       25.7600   -7.8990   13.1230 C.ar  414  TRP414      0.0015
    146  N         28.9310   -4.8340    7.9610 N.am  415  GLY415     -0.1940
    147  CA        30.0780   -4.4470    8.7030 C.3   415  GLY415      0.2014
    148  C         31.4160   -4.6180    8.0340 C.2   415  GLY415      0.2639
    149  O         32.4340   -4.3370    8.6840 O.2   415  GLY415     -0.2714
    150  N         31.4330   -5.0130    6.7520 N.am  416  CYS416     -0.1953
    151  CA        32.6710   -5.3740    6.0590 C.3   416  CYS416      0.1843
    152  C         33.1600   -4.3520    5.0020 C.2   416  CYS416      0.2626
    153  O         33.9170   -4.6990    4.1400 O.2   416  CYS416     -0.2714
    154  CB        32.5060   -6.7440    5.4300 C.3   416  CYS416      0.0997
    155  SG        32.0620   -8.0210    6.6480 S.3   416  CYS416     -0.0797
    156  N         32.7050   -3.1020    5.0920 N.am  417  GLY417     -0.1940
    157  CA        33.1890   -2.0050    4.2540 C.3   417  GLY417      0.2014
    158  C         33.8020   -0.9490    5.1540 C.2   417  GLY417      0.2639
    159  O         34.8960   -1.1160    5.6370 O.2   417  GLY417     -0.2714
    160  N         33.0810    0.1290    5.4180 N.am  418  ALA418     -0.1963
    161  CA        33.5640    1.1560    6.3310 C.3   418  ALA418      0.1728
    162  C         33.9470    0.5740    7.6970 C.2   418  ALA418      0.2616
    163  O         34.8530    1.0840    8.3600 O.2   418  ALA418     -0.2715
    164  CB        32.5060    2.2530    6.4940 C.3   418  ALA418      0.0334
    165  N         33.2910   -0.5060    8.1280 N.am  419  PHE419     -0.1974
    166  CA        33.5400   -1.0160    9.4760 C.3   419  PHE419      0.1639
    167  C         34.6150   -2.0950    9.5560 C.2   419  PHE419      0.2290
    168  O         34.8810   -2.6080   10.6320 O.2   419  PHE419     -0.2864
    169  CB        32.2290   -1.4050   10.1700 C.3   419  PHE419      0.0560
    170  CG        31.4850   -0.2280   10.7710 C.ar  419  PHE419     -0.0200
    171  CD1       31.8690    1.0760   10.5220 C.ar  419  PHE419     -0.0042
    172  CD2       30.3870   -0.4320   11.5740 C.ar  419  PHE419     -0.0042
    173  CE1       31.1680    2.1390   11.0790 C.ar  419  PHE419     -0.0003
    174  CE2       29.7030    0.6160   12.0990 C.ar  419  PHE419     -0.0003
    175  CZ        30.1010    1.9030   11.8490 C.ar  419  PHE419     -0.0000
    176  N         23.5920  -11.3210   -0.4980 N.3   444  PHE444     -0.1227
    177  CA        24.0990  -10.6220   -1.6820 C.3   444  PHE444      0.1736
    178  C         25.5570  -10.2230   -1.4810 C.2   444  PHE444      0.2596
    179  O         25.8480   -9.4710   -0.5570 O.2   444  PHE444     -0.2718
    180  CB        23.2610   -9.3630   -1.9070 C.3   444  PHE444      0.0547
    181  CG        21.8540   -9.6750   -2.2370 C.ar  444  PHE444     -0.0202
    182  CD1       21.5120  -10.1090   -3.5300 C.ar  444  PHE444     -0.0042
    183  CD2       20.8810   -9.6800   -1.2590 C.ar  444  PHE444     -0.0042
    184  CE1       20.2100  -10.5100   -3.8270 C.ar  444  PHE444     -0.0003
    185  CE2       19.5760  -10.0710   -1.5670 C.ar  444  PHE444     -0.0003
    186  CZ        19.2390  -10.4640   -2.8420 C.ar  444  PHE444     -0.0000
    187  N         26.4820  -10.7640   -2.2720 N.am  445  THR445     -0.1939
    188  CA        27.8790  -10.4860   -2.0420 C.3   445  THR445      0.2028
    189  C         28.3560   -9.2320   -2.7640 C.2   445  THR445      0.2642
    190  O         29.5250   -8.8800   -2.6550 O.2   445  THR445     -0.2714
    191  CB        28.8210  -11.6490   -2.4210 C.3   445  THR445      0.1808
    192  OG1       28.8990  -11.7730   -3.8470 O.3   445  THR445     -0.2208
    193  CG2       28.4000  -12.9380   -1.8170 C.3   445  THR445      0.0379
    194  N         27.4800   -8.5930   -3.5490 N.am  446  PHE446     -0.1973
    195  CA        27.7570   -7.2880   -4.1410 C.3   446  PHE446      0.1639
    196  C         29.0090   -7.3110   -5.0750 C.2   446  PHE446      0.2290
    197  O         29.9290   -6.4910   -4.9320 O.2   446  PHE446     -0.2864
    198  CB        27.8540   -6.2350   -3.0280 C.3   446  PHE446      0.0560
    199  CG        27.6140   -4.8020   -3.4810 C.ar  446  PHE446     -0.0200
    200  CD1       26.3520   -4.3360   -3.7650 C.ar  446  PHE446     -0.0042
    201  CD2       28.6740   -3.8990   -3.5620 C.ar  446  PHE446     -0.0042
    202  CE1       26.1430   -2.9860   -4.1540 C.ar  446  PHE446     -0.0003
    203  CE2       28.4580   -2.5910   -3.9440 C.ar  446  PHE446     -0.0003
    204  CZ        27.1830   -2.1330   -4.2240 C.ar  446  PHE446     -0.0000
@<TRIPOS>BOND
     1    98    97    2
     2    97    96    1
     3    95    96    1
     4    96    99    1
     5    99   100    1
     6   100   102   ar
     7   100   101   ar
     8   102   104   ar
     9     7     5    1
    10     1     2    1
    11   107   108    1
    12   101   103   ar
    13   116   114   ar
    14   116   117   ar
    15   196   197    2
    16   196   195    1
    17   104   105   ar
    18   118   117    1
    19     6     5    1
    20   114   112   ar
    21   103   105   ar
    22   105   106    1
    23   117   115   ar
    24   110   109    2
    25     5     2    1
    26   204   202   ar
    27   204   203   ar
    28     2     3    1
    29   202   200   ar
    30   195   194    1
    31   195   198    1
    32   108   109    1
    33   108   111    1
    34   203   201   ar
    35   192   191    1
    36    24    22   ar
    37   184   182   ar
    38   184   186   ar
    39   112   111    1
    40   112   113   ar
    41   200   199   ar
    42   115   113   ar
    43     4     3    2
    44   201   199   ar
    45   194   189   am
    46   182   181   ar
    47   199   198    1
    48     3     8   am
    49    19    18    2
    50    18    17    1
    51    21    22    1
    52    21    20    1
    53    22    23   ar
    54   186   185   ar
    55   189   190    2
    56   189   188    1
    57   191   188    1
    58   191   193    1
    59   187   188    1
    60   187   178   am
    61   181   180    1
    62   181   183   ar
    63     8     9    1
    64    93    91    1
    65   180   177    1
    66    17    20    1
    67    17    16    1
    68   177   178    1
    69   177   176    1
    70    16    10   am
    71    94    92    1
    72   185   183   ar
    73   178   179    2
    74    10    11    2
    75    10     9    1
    76    92    91    1
    77     9    12    1
    78    91    88    1
    79    90    89    2
    80   131   129   am
    81    88    89    1
    82    88    87    1
    83    12    13    1
    84    12    14    1
    85    13    15    1
    86   129   130    2
    87   129   128    1
    88    87    80   am
    89    54    53    1
    90    54    55    1
    91    54    57    1
    92    58    57    1
    93    56    55    2
    94    55    60   am
    95    81    80    2
    96    61    60    1
    97    61    64    1
    98    61    62    1
    99    65    64    1
   100    65    66    1
   101    57    59    1
   102    80    79    1
   103    63    62    2
   104   128   125    1
   105   124   125    1
   106    62    69   am
   107    68    66   am
   108    66    67    2
   109   125   126    1
   110    34    35   ar
   111    34    32   ar
   112    82    79    1
   113    82    83    1
   114    79    78    1
   115   153   152    2
   116    35    33   ar
   117   157   156    1
   118   157   158    1
   119    78    71   am
   120    69    70    1
   121    72    71    2
   122    71    70    1
   123    32    30   ar
   124    85    84   ar
   125   126   127    2
   126   126   132   am
   127   152   156   am
   128   152   151    1
   129    83    84    1
   130    70    73    1
   131   158   160   am
   132   158   159    2
   133    84    86   ar
   134   160   161    1
   135    33    31   ar
   136   154   151    1
   137   154   155    1
   138   132   133    1
   139    30    31   ar
   140    30    29    1
   141   151   150    1
   142   161   164    1
   143   161   162    1
   144    73    74    1
   145    29    26    1
   146   150   148   am
   147   133   134    1
   148   133   136    1
   149    25    26    1
   150    74    75    1
   151   162   165   am
   152   162   163    2
   153    26    27    1
   154   134   146   am
   155   134   135    2
   156   136   137    1
   157    28    27    2
   158   146   147    1
   159   148   149    2
   160   148   147    1
   161   165   166    1
   162    27    36   am
   163    75    76   ar
   164    75    77   ar
   165   137   138   ar
   166   137   139   ar
   167   138   140   ar
   168   166   167    1
   169   166   169    1
   170    51    50    1
   171    51    52    2
   172   167   168    2
   173    36    37    1
   174    50    49    1
   175   169   170    1
   176    37    38    1
   177    37    40    1
   178   139   142   ar
   179   139   141   ar
   180   171   170   ar
   181   171   173   ar
   182   140   141   ar
   183   170   172   ar
   184   142   144   ar
   185   173   175   ar
   186    38    39    2
   187    38    41   am
   188   141   143   ar
   189   172   174   ar
   190    41    42    1
   191   175   174   ar
   192   123   120    1
   193   144   145   ar
   194    45    42    1
   195    45    46    1
   196    42    43    1
   197   143   145   ar
   198    48    46   am
   199   119   120    1
   200   120   121    1
   201    46    47    2
   202    44    43    2
   203   121   122    2
