@<TRIPOS>MOLECULE
tmp/4b1lA00.pdb
 104 97 0 0 0
SMALL
GASTEIGER

@<TRIPOS>ATOM
      1  N         17.4850   -0.6050    8.5230 N.3    31  ASP31      -0.1239
      2  CA        17.7970   -1.8780    9.1260 C.3    31  ASP31       0.1674
      3  C         18.8560   -1.8050   10.2200 C.2    31  ASP31       0.2266
      4  O         19.9240   -1.2020   10.0450 O.2    31  ASP31      -0.2867
      5  CB        18.2910   -2.8590    8.0720 C.3    31  ASP31       0.1410
      6  CG        17.1780   -3.4150    7.2140 C.2    31  ASP31       0.3668
      7  OD1       16.2010   -3.9320    7.7600 O.co2  31  ASP31      -0.2456
      8  OD2       17.2920   -3.3600    5.9730 O.co2  31  ASP31      -0.2456
      9  N          9.0830   -2.8740   10.6050 N.3    59  ALA59      -0.1245
     10  CA         9.2070   -4.3300   10.7640 C.3    59  ALA59       0.1562
     11  C         10.1210   -4.7670   11.9160 C.2    59  ALA59       0.2260
     12  O         11.0390   -4.0330   12.3330 O.2    59  ALA59      -0.2867
     13  CB         9.7370   -4.9370    9.4610 C.3    59  ALA59       0.0290
     14  N         10.3190  -11.8620    8.8510 N.3    77  ASN77      -0.1240
     15  CA         9.8000  -10.6950    9.5900 C.3    77  ASN77       0.1653
     16  C          8.2960  -10.5720    9.6340 C.2    77  ASN77       0.2266
     17  O          7.5970  -11.3470    8.9620 O.2    77  ASN77      -0.2867
     18  CB        10.4840   -9.3780    9.1210 C.3    77  ASN77       0.1155
     19  CG         9.9330   -8.8360    7.8110 C.2    77  ASN77       0.2627
     20  OD1        8.9630   -9.3640    7.2230 O.2    77  ASN77      -0.2716
     21  ND2       10.5440   -7.7690    7.3490 N.am   77  ASN77      -0.0877
     22  N          5.9450   -7.1450    9.0530 N.3    79  ASP79      -0.1239
     23  CA         6.0660   -5.7720    8.5590 C.3    79  ASP79       0.1674
     24  C          4.7020   -5.1470    8.6540 C.2    79  ASP79       0.2266
     25  O          3.8160   -5.4770    7.8450 O.2    79  ASP79      -0.2867
     26  CB         6.5650   -5.8050    7.1040 C.3    79  ASP79       0.1410
     27  CG         6.8340   -4.4080    6.5380 C.2    79  ASP79       0.3668
     28  OD1        6.1580   -3.4270    6.9730 O.co2  79  ASP79      -0.2456
     29  OD2        7.7200   -4.2920    5.6460 O.co2  79  ASP79      -0.2456
     30  N          3.7910   -2.5610    5.5810 N.3    82  HIS82      -0.1241
     31  CA         3.4850   -3.2200    4.3110 C.3    82  HIS82       0.1621
     32  C          2.5360   -4.3730    4.4090 C.2    82  HIS82       0.2264
     33  O          2.1420   -4.9250    3.3800 O.2    82  HIS82      -0.2867
     34  CB         4.7900   -3.6280    3.6050 C.3    82  HIS82       0.0745
     35  CG         5.7050   -2.4710    3.3940 C.ar   82  HIS82       0.0817
     36  ND1        6.8980   -2.3740    3.9950 N.ar   82  HIS82      -0.2268
     37  CD2        5.5270   -1.2850    2.6700 C.ar   82  HIS82       0.1154
     38  CE1        7.4740   -1.2120    3.6650 C.ar   82  HIS82       0.1986
     39  NE2        6.6360   -0.5410    2.8550 N.ar   82  HIS82      -0.2212
     40  N          7.7650  -11.5130    5.5410 N.3    86  LYS86      -0.1245
     41  CA         8.7840  -11.7380    4.4810 C.3    86  LYS86       0.1561
     42  C          9.7710  -12.7690    4.9430 C.2    86  LYS86       0.2260
     43  O         10.1060  -12.8070    6.1120 O.2    86  LYS86      -0.2867
     44  CB         9.5770  -10.4570    4.1160 C.3    86  LYS86       0.0271
     45  CG         8.7870   -9.3560    3.4580 C.3    86  LYS86       0.0035
     46  CD         9.7560   -8.2280    3.0770 C.3    86  LYS86       0.0206
     47  CE         9.0640   -7.0630    2.4010 C.3    86  LYS86       0.1093
     48  NZ        10.0650   -5.9990    2.2170 N.3    86  LYS86      -0.1314
     49  N         13.5370  -13.4340    3.6980 N.3    88  PHE88      -0.1241
     50  CA        14.5190  -12.7450    2.8740 C.3    88  PHE88       0.1605
     51  C         15.9580  -13.0160    3.3250 C.2    88  PHE88       0.2264
     52  O         16.1970  -13.7080    4.3300 O.2    88  PHE88      -0.2867
     53  CB        14.1540  -11.2310    2.7510 C.3    88  PHE88       0.0534
     54  CG        14.2120  -10.4250    4.0400 C.ar   88  PHE88      -0.0203
     55  CD1       13.1940  -10.5320    5.0100 C.ar   88  PHE88      -0.0042
     56  CD2       15.2540   -9.5380    4.2690 C.ar   88  PHE88      -0.0042
     57  CE1       13.1890   -9.7440    6.1340 C.ar   88  PHE88      -0.0003
     58  CE2       15.2640   -8.7530    5.4330 C.ar   88  PHE88      -0.0003
     59  CZ        14.2280   -8.8490    6.3530 C.ar   88  PHE88      -0.0000
     60  N         20.1540  -11.2570    3.3670 N.3    90  PHE90      -0.1241
     61  CA        21.2150  -10.3210    3.0230 C.3    90  PHE90       0.1605
     62  C         22.3270  -11.1130    2.3760 C.2    90  PHE90       0.2264
     63  O         22.6740  -12.1820    2.8370 O.2    90  PHE90      -0.2867
     64  CB        21.7260   -9.6270    4.2740 C.3    90  PHE90       0.0534
     65  CG        20.9120   -8.4440    4.6560 C.ar   90  PHE90      -0.0203
     66  CD1       19.8080   -8.5900    5.4810 C.ar   90  PHE90      -0.0042
     67  CD2       21.2350   -7.1700    4.1700 C.ar   90  PHE90      -0.0042
     68  CE1       19.0330   -7.4820    5.8290 C.ar   90  PHE90      -0.0003
     69  CE2       20.4660   -6.0610    4.5210 C.ar   90  PHE90      -0.0003
     70  CZ        19.3520   -6.2250    5.3450 C.ar   90  PHE90      -0.0000
     71  N         19.7130   -6.6180    0.8800 N.3    95  ALA95      -0.1245
     72  CA        18.5570   -7.5150    1.0730 C.3    95  ALA95       0.1562
     73  C         17.9320   -7.8740   -0.2560 C.2    95  ALA95       0.2260
     74  O         17.8890   -7.0490   -1.1850 O.2    95  ALA95      -0.2867
     75  CB        17.5150   -6.8390    1.9450 C.3    95  ALA95       0.0290
     76  N         14.3870  -10.5550   -1.4700 N.3    97  VAL97      -0.1245
     77  CA        13.3100  -11.3170   -0.8400 C.3    97  VAL97       0.1561
     78  C         13.1010  -12.6510   -1.5400 C.2    97  VAL97       0.2260
     79  O         13.1720  -12.7170   -2.7750 O.2    97  VAL97      -0.2867
     80  CB        12.0150  -10.4830   -0.7990 C.3    97  VAL97       0.0252
     81  CG1       10.8920  -11.2630   -0.1160 C.3    97  VAL97       0.0019
     82  CG2       12.3140   -9.1590   -0.0780 C.3    97  VAL97       0.0019
     83  N         16.4080   -8.2740   14.2260 N.3   147  ASN147     -0.1240
     84  CA        16.4760   -7.0600   13.4020 C.3   147  ASN147      0.1653
     85  C         15.2160   -6.1910   13.5440 C.2   147  ASN147      0.2266
     86  O         14.1400   -6.6890   13.8100 O.2   147  ASN147     -0.2867
     87  CB        16.8390   -7.4240   11.9270 C.3   147  ASN147      0.1155
     88  CG        16.1910   -6.4950   10.9030 C.2   147  ASN147      0.2627
     89  OD1       14.9610   -6.4410   10.8230 O.2   147  ASN147     -0.2716
     90  ND2       17.0130   -5.7720   10.1010 N.am  147  ASN147     -0.0877
     91  N         13.4150   -2.7630   11.2140 N.3   149  TRP149     -0.1241
     92  CA        13.5040   -1.9260   10.0300 C.3   149  TRP149      0.1605
     93  C         12.5210   -0.7790   10.1640 C.2   149  TRP149      0.2264
     94  O         11.3080   -0.9930   10.2650 O.2   149  TRP149     -0.2867
     95  CB        13.2790   -2.7570    8.7470 C.3   149  TRP149      0.0550
     96  CG        13.2080   -1.8020    7.6010 C.ar  149  TRP149      0.0003
     97  CD1       14.2760   -1.1360    6.9760 C.ar  149  TRP149      0.0946
     98  CD2       11.9960   -1.2040    7.0410 C.ar  149  TRP149      0.0152
     99  NE1       13.8110   -0.2570    6.0350 N.ar  149  TRP149     -0.2442
    100  CE2       12.4460   -0.2650    6.0060 C.ar  149  TRP149      0.0810
    101  CE3       10.6110   -1.4270    7.2100 C.ar  149  TRP149      0.0012
    102  CZ2       11.5370    0.4800    5.2270 C.ar  149  TRP149      0.0191
    103  CZ3        9.7110   -0.6730    6.4200 C.ar  149  TRP149      0.0001
    104  CH2       10.1690    0.2530    5.4480 C.ar  149  TRP149      0.0015
@<TRIPOS>BOND
     1    79    78    2
     2    78    77    1
     3    76    77    1
     4    74    73    2
     5    77    80    1
     6    80    81    1
     7    80    82    1
     8    73    72    1
     9    71    72    1
    10    72    75    1
    11    48    47    1
    12    62    63    2
    13    62    61    1
    14    47    46    1
    15    37    39   ar
    16    37    35   ar
    17    53    50    1
    18    53    54    1
    19    39    38   ar
    20    50    51    1
    21    50    49    1
    22    61    60    1
    23    61    64    1
    24    46    45    1
    25    51    52    2
    26    33    32    2
    27    35    34    1
    28    35    36   ar
    29    45    44    1
    30    34    31    1
    31    38    36   ar
    32    54    56   ar
    33    54    55   ar
    34    44    41    1
    35    67    69   ar
    36    67    65   ar
    37    56    58   ar
    38    64    65    1
    39    31    32    1
    40    31    30    1
    41    41    42    1
    42    41    40    1
    43    69    70   ar
    44    65    66   ar
    45    42    43    2
    46    55    57   ar
    47   102   104   ar
    48   102   100   ar
    49    70    68   ar
    50    58    59   ar
    51   104   103   ar
    52    66    68   ar
    53    29    27   ar
    54     8     6   ar
    55   100    99   ar
    56   100    98   ar
    57    99    97   ar
    58    57    59   ar
    59   103   101   ar
    60    27    28   ar
    61    27    26    1
    62    97    96   ar
    63    98   101   ar
    64    98    96   ar
    65    26    23    1
    66     6     7   ar
    67     6     5    1
    68    20    19    2
    69    21    19   am
    70    96    95    1
    71    19    18    1
    72    25    24    2
    73     5     2    1
    74     1     2    1
    75    23    24    1
    76    23    22    1
    77    95    92    1
    78    14    15    1
    79    17    16    2
    80    18    15    1
    81     2     3    1
    82    13    10    1
    83    15    16    1
    84    92    93    1
    85    92    91    1
    86     4     3    2
    87    90    88   am
    88    93    94    2
    89     9    10    1
    90    10    11    1
    91    89    88    2
    92    88    87    1
    93    11    12    2
    94    87    84    1
    95    84    85    1
    96    84    83    1
    97    85    86    2
