@<TRIPOS>MOLECULE
tmp/4b1mA00.pdb
 110 104 0 0 0
SMALL
GASTEIGER

@<TRIPOS>ATOM
      1  N         22.8830   -0.8170   11.8620 N.3    34  ASP34      -0.1239
      2  CA        21.4800   -0.9680   11.5410 C.3    34  ASP34       0.1674
      3  C         20.6210   -0.6170   12.7590 C.2    34  ASP34       0.2266
      4  O         20.8780   -1.0730   13.8830 O.2    34  ASP34      -0.2867
      5  CB        21.1470   -2.4140   11.1250 C.3    34  ASP34       0.1410
      6  CG        21.4700   -2.7110    9.6700 C.2    34  ASP34       0.3668
      7  OD1       20.9450   -2.0160    8.8120 O.co2  34  ASP34      -0.2456
      8  OD2       22.2330   -3.6570    9.4200 O.co2  34  ASP34      -0.2456
      9  N         22.0760    4.3170    4.4060 N.3    62  ALA62      -0.1245
     10  CA        20.8480    3.8620    3.7760 C.3    62  ALA62       0.1562
     11  C         19.6430    4.0910    4.6530 C.2    62  ALA62       0.2260
     12  O         19.7150    4.1240    5.9160 O.2    62  ALA62      -0.2867
     13  CB        20.9200    2.3830    3.4730 C.3    62  ALA62       0.0290
     14  N         15.6420   -0.8680    0.3260 N.3    80  ASN80      -0.1240
     15  CA        16.2770    0.3740    0.7170 C.3    80  ASN80       0.1653
     16  C         16.7470    1.2460   -0.4260 C.2    80  ASN80       0.2266
     17  O         16.7600    0.8300   -1.6250 O.2    80  ASN80      -0.2867
     18  CB        17.4050    0.1460    1.7370 C.3    80  ASN80       0.1155
     19  CG        18.7210   -0.3740    1.1560 C.2    80  ASN80       0.2627
     20  OD1       18.9590   -0.4350   -0.0470 O.2    80  ASN80      -0.2716
     21  ND2       19.5940   -0.7270    2.0730 N.am   80  ASN80      -0.0877
     22  N         20.3720    3.2580   -0.7930 N.3    82  ASP82      -0.1239
     23  CA        21.6760    3.2550   -0.1270 C.3    82  ASP82       0.1674
     24  C         22.5770    4.2350   -0.8410 C.2    82  ASP82       0.2266
     25  O         23.0310    3.9440   -1.9850 O.2    82  ASP82      -0.2867
     26  CB        22.2010    1.8340   -0.0910 C.3    82  ASP82       0.1410
     27  CG        23.5550    1.7050    0.5890 C.2    82  ASP82       0.3668
     28  OD1       24.2980    2.6930    0.6570 O.co2  82  ASP82      -0.2456
     29  OD2       23.8700    0.5760    0.9990 O.co2  82  ASP82      -0.2456
     30  N         26.5370    3.0880   -1.1080 N.3    85  HIS85      -0.1241
     31  CA        26.8410    2.0410   -2.1000 C.3    85  HIS85       0.1621
     32  C         26.1630    2.2140   -3.4400 C.2    85  HIS85       0.2264
     33  O         26.4030    1.4310   -4.3560 O.2    85  HIS85      -0.2867
     34  CB        26.4500    0.6980   -1.4770 C.3    85  HIS85       0.0745
     35  CG        27.1510    0.4030   -0.1760 C.ar   85  HIS85       0.0817
     36  ND1       26.5230    0.2490    0.9880 N.ar   85  HIS85      -0.2268
     37  CD2       28.5060    0.2700    0.0960 C.ar   85  HIS85       0.1154
     38  CE1       27.4280    0.0230    1.9650 C.ar   85  HIS85       0.1986
     39  NE2       28.6410    0.0380    1.4210 N.ar   85  HIS85      -0.2212
     40  N         18.5050   -1.8960   -2.6420 N.3    89  LYS89      -0.1245
     41  CA        18.7090   -3.2590   -2.2390 C.3    89  LYS89       0.1561
     42  C         17.4130   -3.8930   -1.7250 C.2    89  LYS89       0.2260
     43  O         16.6580   -3.2770   -0.9310 O.2    89  LYS89      -0.2867
     44  CB        19.7430   -3.2960   -1.1270 C.3    89  LYS89       0.0271
     45  CG        20.3830   -4.6300   -0.7960 C.3    89  LYS89       0.0035
     46  CD        21.4410   -4.5600    0.3100 C.3    89  LYS89       0.0206
     47  CE        22.7810   -4.0300   -0.1400 C.3    89  LYS89       0.1093
     48  NZ        23.7180   -3.8980    1.0090 N.3    89  LYS89      -0.1314
     49  N         16.6870   -7.1850    0.4920 N.3    91  PHE91      -0.1241
     50  CA        17.4410   -8.1410    1.2410 C.3    91  PHE91       0.1605
     51  C         16.6100   -8.6770    2.4050 C.2    91  PHE91       0.2264
     52  O         15.4990   -8.2280    2.6450 O.2    91  PHE91      -0.2867
     53  CB        18.8100   -7.5590    1.6850 C.3    91  PHE91       0.0534
     54  CG        18.7500   -6.4310    2.6740 C.ar   91  PHE91      -0.0203
     55  CD1       18.4810   -5.1380    2.2700 C.ar   91  PHE91      -0.0042
     56  CD2       19.0770   -6.6640    3.9900 C.ar   91  PHE91      -0.0042
     57  CE1       18.5240   -4.0980    3.1720 C.ar   91  PHE91      -0.0003
     58  CE2       19.1260   -5.6320    4.8940 C.ar   91  PHE91      -0.0003
     59  CZ        18.8450   -4.3600    4.4860 C.ar   91  PHE91      -0.0000
     60  N         16.9210  -10.2400    6.6160 N.3    93  PHE93      -0.1241
     61  CA        17.5840  -10.6800    7.8370 C.3    93  PHE93       0.1605
     62  C         17.0260  -12.0340    8.2370 C.2    93  PHE93       0.2264
     63  O         15.8220  -12.2190    8.1900 O.2    93  PHE93      -0.2867
     64  CB        17.3360   -9.7000    9.0070 C.3    93  PHE93       0.0534
     65  CG        18.2210   -8.5000    8.9710 C.ar   93  PHE93      -0.0203
     66  CD1       19.5620   -8.6060    9.2940 C.ar   93  PHE93      -0.0042
     67  CD2       17.7270   -7.2680    8.6020 C.ar   93  PHE93      -0.0042
     68  CE1       20.3880   -7.4930    9.2600 C.ar   93  PHE93      -0.0003
     69  CE2       18.5450   -6.1510    8.5750 C.ar   93  PHE93      -0.0003
     70  CZ        19.8780   -6.2690    8.8850 C.ar   93  PHE93      -0.0000
     71  N         22.2090  -10.5550    7.6010 N.3    98  ALA98      -0.1231
     72  CA        21.7020  -10.0680    6.3270 C.3    98  ALA98       0.1694
     73  C         22.1930  -10.8630    5.1410 C.2    98  ALA98       0.2593
     74  O         23.3480  -11.2550    5.1060 O.2    98  ALA98      -0.2718
     75  CB        22.1130   -8.6150    6.1500 C.3    98  ALA98       0.0304
     76  N         21.3270  -11.0390    4.1590 N.am   99  SER99      -0.1938
     77  CA        21.7430  -11.5320    2.8620 C.3    99  SER99       0.2055
     78  C         20.9210  -10.8460    1.8050 C.2    99  SER99       0.2642
     79  O         19.7410  -10.6290    1.8990 O.2    99  SER99      -0.2714
     80  CB        21.5970  -13.0430    2.7430 C.3    99  SER99       0.2130
     81  OG        20.2630  -13.3970    3.0370 O.3    99  SER99      -0.2179
     82  N         21.5960  -10.4970    0.7250 N.am  100  VAL100     -0.1977
     83  CA        20.9980   -9.7820   -0.3880 C.3   100  VAL100      0.1596
     84  C         20.1930  -10.7580   -1.2430 C.2   100  VAL100      0.2287
     85  O         20.5800  -11.9040   -1.4540 O.2   100  VAL100     -0.2864
     86  CB        22.0550   -9.0530   -1.2170 C.3   100  VAL100      0.0276
     87  CG1       21.4600   -8.4300   -2.4690 C.3   100  VAL100      0.0022
     88  CG2       22.7050   -7.9720   -0.3700 C.3   100  VAL100      0.0022
     89  N         13.9680    1.1980    8.8020 N.3   150  ASN150     -0.1240
     90  CA        15.3300    0.9830    9.2100 C.3   150  ASN150      0.1653
     91  C         16.2110    2.0850    8.6800 C.2   150  ASN150      0.2266
     92  O         15.9290    2.6970    7.6200 O.2   150  ASN150     -0.2867
     93  CB        15.7820   -0.4270    8.7360 C.3   150  ASN150      0.1155
     94  CG        17.2900   -0.5110    8.4190 C.2   150  ASN150      0.2627
     95  OD1       17.7220   -0.0020    7.3700 O.2   150  ASN150     -0.2716
     96  ND2       18.0540   -1.2150    9.2220 N.am  150  ASN150     -0.0877
     97  N         20.6580    2.4560    8.1280 N.3   152  TRP152     -0.1241
     98  CA        21.9840    1.8840    8.3040 C.3   152  TRP152      0.1605
     99  C         23.0130    2.9650    8.1230 C.2   152  TRP152      0.2264
    100  O         23.0870    3.5670    7.0630 O.2   152  TRP152     -0.2867
    101  CB        22.2320    0.7410    7.2970 C.3   152  TRP152      0.0550
    102  CG        23.6300    0.2660    7.3960 C.ar  152  TRP152      0.0003
    103  CD1       24.1520   -0.5820    8.3420 C.ar  152  TRP152      0.0946
    104  CD2       24.7450    0.6670    6.5570 C.ar  152  TRP152      0.0152
    105  NE1       25.4920   -0.7160    8.1820 N.ar  152  TRP152     -0.2442
    106  CE2       25.9030    0.0110    7.1070 C.ar  152  TRP152      0.0810
    107  CE3       24.8820    1.5060    5.4630 C.ar  152  TRP152      0.0012
    108  CZ2       27.1610    0.1730    6.5540 C.ar  152  TRP152      0.0191
    109  CZ3       26.1640    1.6630    4.9020 C.ar  152  TRP152      0.0001
    110  CH2       27.2680    1.0280    5.4650 C.ar  152  TRP152      0.0015
@<TRIPOS>BOND
     1    33    32    2
     2    32    31    1
     3    40    41    1
     4    87    86    1
     5    41    42    1
     6    41    44    1
     7    31    34    1
     8    31    30    1
     9    25    24    2
    10    42    43    2
    11    17    16    2
    12    34    35    1
    13    85    84    2
    14    84    83    1
    15    86    83    1
    16    86    88    1
    17    44    45    1
    18    24    23    1
    19    45    46    1
    20    22    23    1
    21    16    15    1
    22    83    82    1
    23    35    37   ar
    24    35    36   ar
    25    47    46    1
    26    47    48    1
    27    23    26    1
    28    26    27    1
    29    20    19    2
    30    37    39   ar
    31    14    15    1
    32    49    50    1
    33    27    28   ar
    34    27    29   ar
    35    15    18    1
    36    82    78   am
    37    36    38   ar
    38    19    18    1
    39    19    21   am
    40    50    53    1
    41    50    51    1
    42    39    38   ar
    43    53    54    1
    44    78    79    2
    45    78    77    1
    46    55    54   ar
    47    55    57   ar
    48    51    52    2
    49    54    56   ar
    50    80    77    1
    51    80    81    1
    52    77    76    1
    53    57    59   ar
    54    13    10    1
    55    10     9    1
    56    10    11    1
    57    56    58   ar
    58    76    73   am
    59    59    58   ar
    60    11    12    2
    61   109   107   ar
    62   109   110   ar
    63    74    73    2
    64    73    72    1
    65   107   104   ar
    66   110   108   ar
    67    75    72    1
    68    72    71    1
    69   108   106   ar
    70   104   106   ar
    71   104   102   ar
    72    60    61    1
    73   100    99    2
    74   106   105   ar
    75   101   102    1
    76   101    98    1
    77    95    94    2
    78   102   103   ar
    79    92    91    2
    80    61    62    1
    81    61    64    1
    82    99    98    1
    83    97    98    1
    84   105   103   ar
    85    63    62    2
    86    94    93    1
    87    94    96   am
    88    69    67   ar
    89    69    70   ar
    90    67    65   ar
    91    91    90    1
    92    93    90    1
    93    89    90    1
    94     7     6   ar
    95    70    68   ar
    96    65    64    1
    97    65    66   ar
    98    68    66   ar
    99     8     6   ar
   100     6     5    1
   101     5     2    1
   102     2     1    1
   103     2     3    1
   104     3     4    2
