@<TRIPOS>MOLECULE
tmp/4b1yA02.pdb
 122 118 0 0 0
SMALL
GASTEIGER

@<TRIPOS>ATOM
      1  N          2.7450    8.5640    0.4470 N.3   122  TYR122     -0.1241
      2  CA         4.1830    8.7040    0.3150 C.3   122  TYR122      0.1605
      3  C          4.8280    8.0150    1.5080 C.2   122  TYR122      0.2264
      4  O          4.2120    7.9200    2.5740 O.2   122  TYR122     -0.2867
      5  CB         4.5430   10.1920    0.3090 C.3   122  TYR122      0.0534
      6  CG         5.9740   10.5000   -0.0820 C.ar  122  TYR122     -0.0201
      7  CD1        6.9710   10.5620    0.8800 C.ar  122  TYR122     -0.0009
      8  CD2        6.3260   10.7430   -1.4060 C.ar  122  TYR122     -0.0009
      9  CE1        8.2800   10.8470    0.5370 C.ar  122  TYR122      0.0417
     10  CE2        7.6440   11.0350   -1.7520 C.ar  122  TYR122      0.0417
     11  CZ         8.6110   11.0820   -0.7680 C.ar  122  TYR122      0.1957
     12  OH         9.9140   11.3590   -1.1350 O.3   122  TYR122     -0.2866
     13  N         14.2230   17.9390    8.0500 N.3   132  TYR132     -0.1241
     14  CA        13.3100   18.9080    7.4430 C.3   132  TYR132      0.1605
     15  C         12.6260   19.7560    8.5140 C.2   132  TYR132      0.2264
     16  O         12.3810   20.9470    8.3000 O.2   132  TYR132     -0.2867
     17  CB        12.2480   18.1960    6.6110 C.3   132  TYR132      0.0534
     18  CG        12.7370   17.6020    5.3090 C.ar  132  TYR132     -0.0201
     19  CD1       14.0420   17.7720    4.8740 C.ar  132  TYR132     -0.0009
     20  CD2       11.8770   16.8720    4.5090 C.ar  132  TYR132     -0.0009
     21  CE1       14.4790   17.2250    3.6720 C.ar  132  TYR132      0.0417
     22  CE2       12.2970   16.3310    3.3090 C.ar  132  TYR132      0.0417
     23  CZ        13.5990   16.5120    2.8870 C.ar  132  TYR132      0.1957
     24  OH        14.0370   15.9740    1.6940 O.3   132  TYR132     -0.2866
     25  N         18.5050   16.6810    0.7200 N.3   157  GLY157     -0.1210
     26  CA        17.2660   15.9410    0.8650 C.3   157  GLY157      0.1956
     27  C         17.3720   14.4410    0.6940 C.2   157  GLY157      0.2611
     28  O         16.4080   13.7190    0.9490 O.2   157  GLY157     -0.2717
     29  N         18.5300   13.9700    0.2360 N.am  158  TYR158     -0.1976
     30  CA        18.7260   12.5540   -0.0120 C.3   158  TYR158      0.1639
     31  C         19.5270   11.9230    1.1040 C.2   158  TYR158      0.2290
     32  O         20.6520   12.3510    1.3910 O.2   158  TYR158     -0.2864
     33  CB        19.4740   12.3540   -1.3250 C.3   158  TYR158      0.0560
     34  CG        18.7020   12.8940   -2.5050 C.ar  158  TYR158     -0.0198
     35  CD1       17.5320   12.2670   -2.9330 C.ar  158  TYR158     -0.0009
     36  CD2       19.1150   14.0370   -3.1720 C.ar  158  TYR158     -0.0009
     37  CE1       16.8030   12.7530   -4.0020 C.ar  158  TYR158      0.0417
     38  CE2       18.3880   14.5350   -4.2660 C.ar  158  TYR158      0.0417
     39  CZ        17.2340   13.8800   -4.6650 C.ar  158  TYR158      0.1957
     40  OH        16.4770   14.3480   -5.7230 O.3   158  TYR158     -0.2866
     41  N          6.4010   18.7030    5.5720 N.3   335  LEU335     -0.1245
     42  CA         6.6100   18.2730    4.1930 C.3   335  LEU335      0.1561
     43  C          5.2870   18.0540    3.4630 C.2   335  LEU335      0.2260
     44  O          5.0810   18.5300    2.3390 O.2   335  LEU335     -0.2867
     45  CB         7.4330   16.9830    4.1540 C.3   335  LEU335      0.0270
     46  CG         7.7620   16.4350    2.7570 C.3   335  LEU335      0.0019
     47  CD1        8.6200   17.3910    1.9620 C.3   335  LEU335      0.0001
     48  CD2        8.4520   15.0860    2.8850 C.3   335  LEU335      0.0001
     49  N          3.4640   21.2440    2.2380 N.3   338  LEU338     -0.1245
     50  CA         4.0800   22.1790    1.2830 C.3   338  LEU338      0.1561
     51  C          3.4100   22.0950   -0.0790 C.2   338  LEU338      0.2260
     52  O          3.1330   21.0030   -0.5710 O.2   338  LEU338     -0.2867
     53  CB         5.5560   21.8630    1.0760 C.3   338  LEU338      0.0270
     54  CG         6.4870   21.9950    2.2740 C.3   338  LEU338      0.0019
     55  CD1        7.9040   21.7170    1.8180 C.3   338  LEU338      0.0001
     56  CD2        6.3760   23.3850    2.8780 C.3   338  LEU338      0.0001
     57  N          4.6720   22.5760   -2.9520 N.3   340  THR340     -0.1203
     58  CA         5.5520   21.9650   -3.9480 C.3   340  THR340      0.1994
     59  C          5.7390   20.4640   -3.7320 C.2   340  THR340      0.2617
     60  O          6.2940   19.7660   -4.5930 O.2   340  THR340     -0.2717
     61  CB         6.9170   22.6730   -4.0140 C.3   340  THR340      0.1784
     62  OG1        7.5310   22.6190   -2.7240 O.3   340  THR340     -0.2211
     63  CG2        6.7420   24.1280   -4.4260 C.3   340  THR340      0.0376
     64  N          5.2610   19.9550   -2.6010 N.am  341  PHE341     -0.1975
     65  CA         5.2840   18.5100   -2.3740 C.3   341  PHE341      0.1639
     66  C          4.1050   17.7770   -3.0180 C.2   341  PHE341      0.2290
     67  O          4.1430   16.5540   -3.1620 O.2   341  PHE341     -0.2864
     68  CB         5.3470   18.1950   -0.8710 C.3   341  PHE341      0.0560
     69  CG         5.4930   16.7230   -0.5550 C.ar  341  PHE341     -0.0200
     70  CD1        6.7010   16.0760   -0.7660 C.ar  341  PHE341     -0.0042
     71  CD2        4.4340   16.0040   -0.0320 C.ar  341  PHE341     -0.0042
     72  CE1        6.8400   14.7280   -0.4770 C.ar  341  PHE341     -0.0003
     73  CE2        4.5610   14.6450    0.2560 C.ar  341  PHE341     -0.0003
     74  CZ         5.7820   14.0140    0.0490 C.ar  341  PHE341     -0.0000
     75  N          2.9450   17.4130   -5.9330 N.3   343  GLN343     -0.1231
     76  CA         3.2880   16.6620   -7.1360 C.3   343  GLN343      0.1698
     77  C          4.0600   15.3810   -6.8300 C.2   343  GLN343      0.2592
     78  O          4.2460   14.5420   -7.7190 O.2   343  GLN343     -0.2718
     79  CB         4.1290   17.5400   -8.0730 C.3   343  GLN343      0.0381
     80  CG         5.4770   17.9110   -7.4580 C.3   343  GLN343      0.0905
     81  CD         6.2390   18.9600   -8.2530 C.2   343  GLN343      0.2608
     82  OE1        6.4460   18.8200   -9.4580 O.2   343  GLN343     -0.2717
     83  NE2        6.6660   20.0180   -7.5750 N.am  343  GLN343     -0.0878
     84  N          4.5100   15.2280   -5.5840 N.am  344  MET344     -0.1979
     85  CA         5.3840   14.1160   -5.2210 C.3   344  MET344      0.1605
     86  C          4.6660   12.8900   -4.6970 C.2   344  MET344      0.2287
     87  O          5.2510   11.7990   -4.6660 O.2   344  MET344     -0.2864
     88  CB         6.4390   14.5670   -4.2070 C.3   344  MET344      0.0413
     89  CG         7.2330   15.7950   -4.6710 C.3   344  MET344      0.0598
     90  SD         8.0220   15.5730   -6.2920 S.3   344  MET344     -0.1393
     91  CE         9.2690   14.3600   -5.8910 C.3   344  MET344      0.0692
     92  N         10.4900    4.4460   -7.2680 N.3   361  ARG361     -0.1231
     93  CA        10.7970    5.5640   -8.1560 C.3   361  ARG361      0.1694
     94  C         10.1960    6.8910   -7.6880 C.2   361  ARG361      0.2591
     95  O         10.5680    7.9530   -8.1870 O.2   361  ARG361     -0.2718
     96  CB        10.4570    5.2550   -9.6170 C.3   361  ARG361      0.0321
     97  CG         8.9920    5.1740   -9.9480 C.3   361  ARG361      0.0489
     98  CD         8.8230    4.9780  -11.4540 C.3   361  ARG361      0.2205
     99  NE         7.7550    4.0340  -11.7650 N.pl3 361  ARG361     -0.0865
    100  CZ         7.8890    2.7130  -11.6960 C.cat 361  ARG361      0.5346
    101  NH1        9.0450    2.1790  -11.3240 N.pl3 361  ARG361      0.1354
    102  NH2        6.8650    1.9250  -11.9950 N.pl3 361  ARG361      0.1354
    103  N          9.3040    6.8410   -6.7020 N.am  362  LYS362     -0.1980
    104  CA         8.6630    8.0600   -6.2080 C.3   362  LYS362      0.1596
    105  C          9.1600    8.5050   -4.8360 C.2   362  LYS362      0.2287
    106  O          9.1710    9.6970   -4.5300 O.2   362  LYS362     -0.2864
    107  CB         7.1480    7.8700   -6.1360 C.3   362  LYS362      0.0298
    108  CG         6.4800    7.6210   -7.4900 C.3   362  LYS362      0.0038
    109  CD         6.2060    8.9010   -8.2600 C.3   362  LYS362      0.0206
    110  CE         5.0410    9.6660   -7.6570 C.3   362  LYS362      0.1093
    111  NZ         4.5220   10.7600   -8.5320 N.3   362  LYS362     -0.1314
    112  N         12.1570    8.5910   -2.1770 N.3   364  PHE364     -0.1241
    113  CA        13.5420    8.4490   -1.7320 C.3   364  PHE364      0.1605
    114  C         14.1180    9.8080   -1.3640 C.2   364  PHE364      0.2264
    115  O         15.2600    9.9140   -0.9140 O.2   364  PHE364     -0.2867
    116  CB        14.4230    7.7600   -2.7830 C.3   364  PHE364      0.0534
    117  CG        14.3550    8.3880   -4.1510 C.ar  364  PHE364     -0.0203
    118  CD1       15.0970    9.5180   -4.4580 C.ar  364  PHE364     -0.0042
    119  CD2       13.5620    7.8290   -5.1370 C.ar  364  PHE364     -0.0042
    120  CE1       15.0360   10.0820   -5.7290 C.ar  364  PHE364     -0.0003
    121  CE2       13.4950    8.3910   -6.4010 C.ar  364  PHE364     -0.0003
    122  CZ        14.2330    9.5180   -6.6950 C.ar  364  PHE364     -0.0000
@<TRIPOS>BOND
     1   102   100    1
     2    99   100    2
     3    99    98    1
     4   100   101    1
     5    98    97    1
     6    97    96    1
     7    96    93    1
     8    82    81    2
     9   111   110    1
    10   109   110    1
    11   109   108    1
    12    81    83   am
    13    81    80    1
    14    95    94    2
    15    93    94    1
    16    93    92    1
    17    79    80    1
    18    79    76    1
    19    78    77    2
    20    94   103   am
    21   108   107    1
    22    76    77    1
    23    76    75    1
    24    77    84   am
    25   103   104    1
    26   122   121   ar
    27   122   120   ar
    28   121   119   ar
    29    90    91    1
    30    90    89    1
    31   104   107    1
    32   104   105    1
    33   120   118   ar
    34    40    39    1
    35    84    85    1
    36    85    86    1
    37    85    88    1
    38   119   117   ar
    39   105   106    2
    40    86    87    2
    41    89    88    1
    42    39    38   ar
    43    39    37   ar
    44    60    59    2
    45   118   117   ar
    46    63    61    1
    47    38    36   ar
    48   117   116    1
    49    61    58    1
    50    61    62    1
    51    37    35   ar
    52    58    59    1
    53    58    57    1
    54    59    64   am
    55    36    34   ar
    56    67    66    2
    57    66    65    1
    58    35    34   ar
    59   116   113    1
    60    64    65    1
    61    34    33    1
    62    65    68    1
    63   112   113    1
    64    10     8   ar
    65    10    11   ar
    66   113   114    1
    67     8     6   ar
    68   114   115    2
    69    33    30    1
    70    12    11    1
    71    68    69    1
    72    11     9   ar
    73    70    69   ar
    74    70    72   ar
    75    52    51    2
    76    69    71   ar
    77    72    74   ar
    78     6     5    1
    79     6     7   ar
    80    51    50    1
    81    71    73   ar
    82    30    29    1
    83    30    31    1
    84    74    73   ar
    85    29    27   am
    86     5     2    1
    87     2     1    1
    88     2     3    1
    89     9     7   ar
    90    27    26    1
    91    27    28    2
    92    25    26    1
    93    53    50    1
    94    53    54    1
    95    31    32    2
    96    50    49    1
    97     3     4    2
    98    24    23    1
    99    55    54    1
   100    47    46    1
   101    54    56    1
   102    44    43    2
   103    46    48    1
   104    46    45    1
   105    23    22   ar
   106    23    21   ar
   107    22    20   ar
   108    43    42    1
   109    21    19   ar
   110    45    42    1
   111    42    41    1
   112    20    18   ar
   113    19    18   ar
   114    18    17    1
   115    17    14    1
   116    14    13    1
   117    14    15    1
   118    16    15    2
