@<TRIPOS>MOLECULE
tmp/4b1yA05.pdb
 99 95 0 0 0
SMALL
GASTEIGER

@<TRIPOS>ATOM
      1  N          9.1630    5.5320    7.5170 N.3    96  GLU96      -0.1245
      2  CA         9.8760    4.2610    7.5270 C.3    96  GLU96       0.1567
      3  C         11.2460    4.4500    8.1540 C.2    96  GLU96       0.2260
      4  O         11.7970    5.5550    8.1800 O.2    96  GLU96      -0.2867
      5  CB        10.0420    3.6830    6.0990 C.3    96  GLU96       0.0388
      6  CG        10.9590    4.5280    5.2050 C.3    96  GLU96       0.1160
      7  CD        11.1480    4.0240    3.7720 C.2    96  GLU96       0.3649
      8  OE1       10.7570    2.8800    3.4680 O.co2  96  GLU96      -0.2457
      9  OE2       11.6940    4.8000    2.9490 O.co2  96  GLU96      -0.2457
     10  N         13.1190   -3.1430    0.4680 N.3   102  LYS102     -0.1245
     11  CA        12.2500   -2.9420   -0.6830 C.3   102  LYS102      0.1561
     12  C         10.8830   -3.5870   -0.5070 C.2   102  LYS102      0.2260
     13  O          9.8690   -2.9520   -0.7590 O.2   102  LYS102     -0.2867
     14  CB        12.9190   -3.4840   -1.9510 C.3   102  LYS102      0.0271
     15  CG        14.2610   -2.8960   -2.3760 C.3   102  LYS102      0.0035
     16  CD        13.9840   -1.4740   -2.7060 C.3   102  LYS102      0.0206
     17  CE        15.4320   -0.9610   -2.9030 C.3   102  LYS102      0.1093
     18  NZ        15.4670    0.4340   -2.4390 N.3   102  LYS102     -0.1314
     19  N          8.5780   -1.6020    2.0700 N.3   105  ARG105     -0.1245
     20  CA         7.9690   -0.3660    1.6050 C.3   105  ARG105      0.1563
     21  C          6.9350   -0.6280    0.5130 C.2   105  ARG105      0.2260
     22  O          5.9640    0.1040    0.4110 O.2   105  ARG105     -0.2867
     23  CB         9.0180    0.6840    1.2060 C.3   105  ARG105      0.0307
     24  CG         9.9800    0.2720    0.1150 C.3   105  ARG105      0.0489
     25  CD        11.3590    0.9570    0.2900 C.3   105  ARG105      0.2205
     26  NE        11.2440    2.3760    0.6300 N.pl3 105  ARG105     -0.0865
     27  CZ        11.1610    3.3700   -0.2500 C.cat 105  ARG105      0.5346
     28  NH1       11.1740    3.1270   -1.5550 N.pl3 105  ARG105      0.1354
     29  NH2       11.0500    4.6210    0.1700 N.pl3 105  ARG105      0.1354
     30  N         11.6780    8.5720    4.9500 N.3   125  ILE125     -0.1245
     31  CA        12.6030    8.1280    5.9910 C.3   125  ILE125      0.1561
     32  C         12.4750    9.0180    7.2180 C.2   125  ILE125      0.2260
     33  O         12.5450   10.2430    7.1310 O.2   125  ILE125     -0.2867
     34  CB        14.0510    8.1350    5.4760 C.3   125  ILE125      0.0252
     35  CG1       14.1920    7.1260    4.3300 C.3   125  ILE125      0.0019
     36  CG2       15.0110    7.7920    6.5950 C.3   125  ILE125      0.0019
     37  CD1       15.4510    7.3280    3.4980 C.3   125  ILE125      0.0001
     38  N         18.5300   13.9700    0.2360 N.3   158  TYR158     -0.1227
     39  CA        18.7260   12.5540   -0.0120 C.3   158  TYR158      0.1736
     40  C         19.5270   11.9230    1.1040 C.2   158  TYR158      0.2595
     41  O         20.6520   12.3510    1.3910 O.2   158  TYR158     -0.2718
     42  CB        19.4740   12.3540   -1.3250 C.3   158  TYR158      0.0548
     43  CG        18.7020   12.8940   -2.5050 C.ar  158  TYR158     -0.0200
     44  CD1       17.5320   12.2670   -2.9330 C.ar  158  TYR158     -0.0009
     45  CD2       19.1150   14.0370   -3.1720 C.ar  158  TYR158     -0.0009
     46  CE1       16.8030   12.7530   -4.0020 C.ar  158  TYR158      0.0417
     47  CE2       18.3880   14.5350   -4.2660 C.ar  158  TYR158      0.0417
     48  CZ        17.2340   13.8800   -4.6650 C.ar  158  TYR158      0.1957
     49  OH        16.4770   14.3480   -5.7230 O.3   158  TYR158     -0.2866
     50  N         18.9530   10.9210    1.7630 N.am  159  ALA159     -0.1980
     51  CA        19.7350   10.0930    2.6700 C.3   159  ALA159      0.1597
     52  C         20.7990    9.3850    1.8430 C.2   159  ALA159      0.2287
     53  O         20.5920    9.1000    0.6640 O.2   159  ALA159     -0.2864
     54  CB        18.8430    9.0880    3.3800 C.3   159  ALA159      0.0319
     55  N         22.5970    6.0940    1.6910 N.3   161  PRO161     -0.2116
     56  CA        22.4520    4.8040    2.3760 C.3   161  PRO161      0.1372
     57  C         23.7580    4.1010    2.7260 C.2   161  PRO161      0.2244
     58  O         23.7920    3.4130    3.7390 O.2   161  PRO161     -0.2868
     59  CB        21.6540    3.9640    1.3790 C.3   161  PRO161      0.0268
     60  CG        20.9090    4.9510    0.5640 C.3   161  PRO161      0.0207
     61  CD        21.7700    6.1740    0.4730 C.3   161  PRO161      0.0892
     62  N          9.5600    2.8080   -5.2270 N.3   360  HIS360     -0.1226
     63  CA        10.9990    2.9950   -5.3690 C.3   360  HIS360      0.1752
     64  C         11.3620    4.1330   -6.3180 C.2   360  HIS360      0.2595
     65  O         12.4220    4.7320   -6.1820 O.2   360  HIS360     -0.2718
     66  CB        11.6820    1.6910   -5.7630 C.3   360  HIS360      0.0759
     67  CG        11.2580    0.5300   -4.9210 C.ar  360  HIS360      0.0818
     68  ND1       11.3850    0.5170   -3.5440 N.ar  360  HIS360     -0.2268
     69  CD2       10.6850   -0.6490   -5.2580 C.ar  360  HIS360      0.1154
     70  CE1       10.9100   -0.6230   -3.0760 C.ar  360  HIS360      0.1986
     71  NE2       10.4880   -1.3520   -4.0950 N.ar  360  HIS360     -0.2212
     72  N         10.4900    4.4460   -7.2680 N.am  361  ARG361     -0.1980
     73  CA        10.7970    5.5640   -8.1560 C.3   361  ARG361      0.1597
     74  C         10.1960    6.8910   -7.6880 C.2   361  ARG361      0.2287
     75  O         10.5680    7.9530   -8.1870 O.2   361  ARG361     -0.2864
     76  CB        10.4570    5.2550   -9.6170 C.3   361  ARG361      0.0334
     77  CG         8.9920    5.1740   -9.9480 C.3   361  ARG361      0.0492
     78  CD         8.8230    4.9780  -11.4540 C.3   361  ARG361      0.2205
     79  NE         7.7550    4.0340  -11.7650 N.pl3 361  ARG361     -0.0865
     80  CZ         7.8890    2.7130  -11.6960 C.cat 361  ARG361      0.5346
     81  NH1        9.0450    2.1790  -11.3240 N.pl3 361  ARG361      0.1354
     82  NH2        6.8650    1.9250  -11.9950 N.pl3 361  ARG361      0.1354
     83  N          9.5680    7.5540   -4.0000 N.3   363  CYS363     -0.1221
     84  CA         9.8880    7.8790   -2.6090 C.3   363  CYS363      0.1808
     85  C         11.3250    7.5550   -2.2630 C.2   363  CYS363      0.2601
     86  O         11.6690    6.3920   -2.0910 O.2   363  CYS363     -0.2717
     87  CB         8.9690    7.1230   -1.6440 C.3   363  CYS363      0.0970
     88  SG         7.2170    7.3370   -1.9590 S.3   363  CYS363     -0.0800
     89  N         12.1570    8.5910   -2.1770 N.am  364  PHE364     -0.1976
     90  CA        13.5420    8.4490   -1.7320 C.3   364  PHE364      0.1639
     91  C         14.1180    9.8080   -1.3640 C.2   364  PHE364      0.2290
     92  O         15.2600    9.9140   -0.9140 O.2   364  PHE364     -0.2864
     93  CB        14.4230    7.7600   -2.7830 C.3   364  PHE364      0.0560
     94  CG        14.3550    8.3880   -4.1510 C.ar  364  PHE364     -0.0200
     95  CD1       15.0970    9.5180   -4.4580 C.ar  364  PHE364     -0.0042
     96  CD2       13.5620    7.8290   -5.1370 C.ar  364  PHE364     -0.0042
     97  CE1       15.0360   10.0820   -5.7290 C.ar  364  PHE364     -0.0003
     98  CE2       13.4950    8.3910   -6.4010 C.ar  364  PHE364     -0.0003
     99  CZ        14.2330    9.5180   -6.6950 C.ar  364  PHE364     -0.0000
@<TRIPOS>BOND
     1    82    80    1
     2    79    80    2
     3    79    78    1
     4    80    81    1
     5    78    77    1
     6    77    76    1
     7    76    73    1
     8    75    74    2
     9    73    74    1
    10    73    72    1
    11    72    64   am
    12    99    98   ar
    13    99    97   ar
    14    98    96   ar
    15    64    65    2
    16    64    63    1
    17    66    63    1
    18    66    67    1
    19    97    95   ar
    20    49    48    1
    21    63    62    1
    22    69    67   ar
    23    69    71   ar
    24    96    94   ar
    25    67    68   ar
    26    48    47   ar
    27    48    46   ar
    28    95    94   ar
    29    47    45   ar
    30    94    93    1
    31    71    70   ar
    32    46    44   ar
    33    83    84    1
    34    68    70   ar
    35    45    43   ar
    36    44    43   ar
    37    17    16    1
    38    17    18    1
    39    93    90    1
    40    16    15    1
    41    84    85    1
    42    84    87    1
    43    43    42    1
    44    15    14    1
    45    85    89   am
    46    85    86    2
    47    89    90    1
    48    88    87    1
    49    14    11    1
    50    90    91    1
    51    28    27    1
    52    91    92    2
    53    42    39    1
    54    13    12    2
    55    11    12    1
    56    11    10    1
    57    27    29    1
    58    27    26    2
    59    39    38    1
    60    39    40    1
    61    24    25    1
    62    24    23    1
    63    25    26    1
    64    22    21    2
    65    61    60    1
    66    61    55    1
    67    21    20    1
    68    60    59    1
    69    53    52    2
    70    40    41    2
    71    40    50   am
    72    23    20    1
    73    59    56    1
    74    20    19    1
    75    55    56    1
    76    50    51    1
    77    52    51    1
    78    56    57    1
    79    51    54    1
    80    57    58    2
    81     9     7   ar
    82     8     7   ar
    83    37    35    1
    84     7     6    1
    85    35    34    1
    86    30    31    1
    87     6     5    1
    88    34    31    1
    89    34    36    1
    90    31    32    1
    91     5     2    1
    92    33    32    2
    93     1     2    1
    94     2     3    1
    95     3     4    2
