@<TRIPOS>MOLECULE
tmp/4b21A00.pdb
 90 87 0 0 0
SMALL
GASTEIGER

@<TRIPOS>ATOM
      1  N         12.4520   11.7000   18.5740 N.3    50  SER50      -0.1217
      2  CA        11.9760   11.5240   19.9420 C.3    50  SER50       0.1889
      3  C         11.2120   10.2310   20.2210 C.2    50  SER50       0.2288
      4  O         10.9390    9.9230   21.3800 O.2    50  SER50      -0.2866
      5  CB        11.1050   12.7110   20.3610 C.3    50  SER50       0.2089
      6  OG         9.8380   12.6850   19.7210 O.3    50  SER50      -0.2183
      7  N         12.2700    7.7160   22.9920 N.3    53  LEU53      -0.1231
      8  CA        13.3930    8.2870   23.7360 C.3    53  LEU53       0.1693
      9  C         13.0360    9.4630   24.6350 C.2    53  LEU53       0.2593
     10  O         12.1010   10.2150   24.3680 O.2    53  LEU53      -0.2718
     11  CB        14.4820    8.7410   22.7640 C.3    53  LEU53       0.0284
     12  CG        15.0720    7.7150   21.7970 C.3    53  LEU53       0.0019
     13  CD1       16.0990    8.4110   20.9220 C.3    53  LEU53       0.0001
     14  CD2       15.7040    6.5530   22.5590 C.3    53  LEU53       0.0001
     15  N         13.8120    9.6220   25.7020 N.am   54  SER54      -0.1938
     16  CA        13.6140   10.7210   26.6310 C.3    54  SER54       0.2055
     17  C         14.0940   12.0020   25.9530 C.2    54  SER54       0.2643
     18  O         14.7850   11.9540   24.9300 O.2    54  SER54      -0.2714
     19  CB        14.4340   10.4780   27.8970 C.3    54  SER54       0.2130
     20  OG        15.8080   10.3470   27.5710 O.3    54  SER54      -0.2179
     21  N         13.7280   13.1460   26.5200 N.am   55  ASP55      -0.1971
     22  CA        14.1390   14.4280   25.9640 C.3    55  ASP55       0.1709
     23  C         15.6610   14.5420   25.9190 C.2    55  ASP55       0.2293
     24  O         16.2270   14.9860   24.9200 O.2    55  ASP55      -0.2864
     25  CB        13.5650   15.5740   26.8000 C.3    55  ASP55       0.1436
     26  CG        12.0730   15.7650   26.5890 C.2    55  ASP55       0.3671
     27  OD1       11.4860   15.0550   25.7460 O.co2  55  ASP55      -0.2456
     28  OD2       11.4890   16.6360   27.2670 O.co2  55  ASP55      -0.2456
     29  N          1.2420    9.0730   17.2780 N.3   141  TRP141     -0.1241
     30  CA         2.0260    9.7100   18.3290 C.3   141  TRP141      0.1605
     31  C          2.9310   10.8000   17.7820 C.2   141  TRP141      0.2264
     32  O          2.9940   11.9100   18.3240 O.2   141  TRP141     -0.2867
     33  CB         2.8500    8.6510   19.0620 C.3   141  TRP141      0.0550
     34  CG         3.5970    9.1620   20.2520 C.ar  141  TRP141      0.0003
     35  CD1        3.1810    9.1470   21.5530 C.ar  141  TRP141      0.0946
     36  CD2        4.9140    9.7230   20.2560 C.ar  141  TRP141      0.0152
     37  NE1        4.1660    9.6600   22.3730 N.ar  141  TRP141     -0.2442
     38  CE2        5.2390   10.0200   21.5990 C.ar  141  TRP141      0.0810
     39  CE3        5.8510   10.0040   19.2550 C.ar  141  TRP141      0.0012
     40  CZ2        6.4650   10.5830   21.9670 C.ar  141  TRP141      0.0191
     41  CZ3        7.0710   10.5640   19.6210 C.ar  141  TRP141      0.0001
     42  CH2        7.3660   10.8470   20.9670 C.ar  141  TRP141      0.0015
     43  N          2.9440   14.8580   18.6240 N.3   145  MET145     -0.1245
     44  CA         4.1070   15.5890   19.1230 C.3   145  MET145      0.1570
     45  C          4.4900   16.7480   18.2080 C.2   145  MET145      0.2261
     46  O          4.8650   17.8260   18.6830 O.2   145  MET145     -0.2867
     47  CB         5.2850   14.6370   19.3260 C.3   145  MET145      0.0387
     48  CG         5.0140   13.5570   20.3750 C.3   145  MET145      0.0595
     49  SD         4.4060   14.2210   21.9610 S.3   145  MET145     -0.1393
     50  CE         3.0670   13.1120   22.2890 C.3   145  MET145      0.0692
     51  N          4.7280   20.3760   19.9210 N.3   149  PHE149     -0.1241
     52  CA         6.0380   21.0040   19.9870 C.3   149  PHE149      0.1605
     53  C          6.4920   21.8600   18.8260 C.2   149  PHE149      0.2264
     54  O          7.3670   22.7100   19.0040 O.2   149  PHE149     -0.2867
     55  CB         7.0810   19.9430   20.3300 C.3   149  PHE149      0.0534
     56  CG         6.8500   19.3100   21.6700 C.ar  149  PHE149     -0.0203
     57  CD1        7.1610   20.0020   22.8380 C.ar  149  PHE149     -0.0042
     58  CD2        6.2520   18.0560   21.7730 C.ar  149  PHE149     -0.0042
     59  CE1        6.8750   19.4560   24.0880 C.ar  149  PHE149     -0.0003
     60  CE2        5.9620   17.5020   23.0190 C.ar  149  PHE149     -0.0003
     61  CZ         6.2750   18.2040   24.1800 C.ar  149  PHE149     -0.0000
     62  N          0.0290    8.3070   24.7090 N.3   161  ASP161     -0.1239
     63  CA         1.3650    8.4170   25.2950 C.3   161  ASP161      0.1674
     64  C          1.4980    7.5790   26.5720 C.2   161  ASP161      0.2266
     65  O          0.7420    7.7620   27.5240 O.2   161  ASP161     -0.2867
     66  CB         1.6640    9.8950   25.5810 C.3   161  ASP161      0.1410
     67  CG         3.0870   10.1320   26.0490 C.2   161  ASP161      0.3668
     68  OD1        4.0020   10.1450   25.2010 O.co2 161  ASP161     -0.2456
     69  OD2        3.2980   10.3040   27.2660 O.co2 161  ASP161     -0.2456
     70  N          3.8180    7.5510   28.9560 N.3   163  THR163     -0.1218
     71  CA         4.1320    8.3530   30.1300 C.3   163  THR163      0.1862
     72  C          2.8850    9.0560   30.6650 C.2   163  THR163      0.2287
     73  O          2.6050    9.0210   31.8660 O.2   163  THR163     -0.2866
     74  CB         5.1940    9.4180   29.8050 C.3   163  THR163      0.1770
     75  OG1        6.3160    8.8000   29.1570 O.3   163  THR163     -0.2211
     76  CG2        5.6670   10.0920   31.0850 C.3   163  THR163      0.0375
     77  N          2.5320   15.7780   32.5220 N.3   202  TRP202     -0.1241
     78  CA         3.9190   15.4050   32.2640 C.3   202  TRP202      0.1605
     79  C          4.8860   15.9630   33.3070 C.2   202  TRP202      0.2264
     80  O          6.0370   15.5410   33.3670 O.2   202  TRP202     -0.2867
     81  CB         4.3710   15.8760   30.8770 C.3   202  TRP202      0.0550
     82  CG         3.9690   14.9780   29.7420 C.ar  202  TRP202      0.0003
     83  CD1        3.8110   13.6170   29.7780 C.ar  202  TRP202      0.0946
     84  CD2        3.7550   15.3690   28.3820 C.ar  202  TRP202      0.0152
     85  NE1        3.5150   13.1420   28.5220 N.ar  202  TRP202     -0.2442
     86  CE2        3.4750   14.1950   27.6470 C.ar  202  TRP202      0.0810
     87  CE3        3.7750   16.5990   27.7120 C.ar  202  TRP202      0.0012
     88  CZ2        3.2160   14.2170   26.2700 C.ar  202  TRP202      0.0191
     89  CZ3        3.5180   16.6220   26.3430 C.ar  202  TRP202      0.0001
     90  CH2        3.2410   15.4360   25.6380 C.ar  202  TRP202      0.0015
@<TRIPOS>BOND
     1    29    30    1
     2    31    32    2
     3    31    30    1
     4    45    46    2
     5    45    44    1
     6    30    33    1
     7     1     2    1
     8    43    44    1
     9    53    54    2
    10    53    52    1
    11    33    34    1
    12    44    47    1
    13    39    41   ar
    14    39    36   ar
    15    47    48    1
    16    41    42   ar
    17     6     5    1
    18    51    52    1
    19     2     3    1
    20     2     5    1
    21    52    55    1
    22     3     4    2
    23    34    36   ar
    24    34    35   ar
    25    36    38   ar
    26    55    56    1
    27    48    49    1
    28    13    12    1
    29    42    40   ar
    30    35    37   ar
    31    38    40   ar
    32    38    37   ar
    33    56    58   ar
    34    56    57   ar
    35    58    60   ar
    36    12    14    1
    37    12    11    1
    38    49    50    1
    39    11     8    1
    40    57    59   ar
    41     7     8    1
    42    60    61   ar
    43     8     9    1
    44    59    61   ar
    45    10     9    2
    46     9    15   am
    47    62    63    1
    48    24    23    2
    49    18    17    2
    50    68    67   ar
    51    63    66    1
    52    63    64    1
    53    66    67    1
    54    90    88   ar
    55    90    89   ar
    56    15    16    1
    57    27    26   ar
    58    23    22    1
    59    17    21   am
    60    17    16    1
    61    22    21    1
    62    22    25    1
    63    67    69   ar
    64    88    86   ar
    65    89    87   ar
    66    64    65    2
    67    26    25    1
    68    26    28   ar
    69    16    19    1
    70    20    19    1
    71    86    84   ar
    72    86    85   ar
    73    87    84   ar
    74    84    82   ar
    75    85    83   ar
    76    70    71    1
    77    75    74    1
    78    82    83   ar
    79    82    81    1
    80    74    71    1
    81    74    76    1
    82    71    72    1
    83    72    73    2
    84    81    78    1
    85    78    77    1
    86    78    79    1
    87    79    80    2
