@<TRIPOS>MOLECULE
tmp/4b2gB02.pdb
 240 231 0 0 0
SMALL
GASTEIGER

@<TRIPOS>ATOM
      1  N        -22.6820   35.5020    6.7110 N.3    91  THR91      -0.1203
      2  CA       -23.8010   35.1910    7.5720 C.3    91  THR91       0.1994
      3  C        -24.4800   33.8880    7.1710 C.2    91  THR91       0.2619
      4  O        -25.1010   33.7880    6.1160 O.2    91  THR91      -0.2717
      5  CB       -24.8350   36.3250    7.5960 C.3    91  THR91       0.1784
      6  OG1      -25.3170   36.5490    6.2690 O.3    91  THR91      -0.2211
      7  CG2      -24.2240   37.6130    8.1520 C.3    91  THR91       0.0376
      8  N        -24.3710   32.8970    8.0430 N.am   92  SER92      -0.1937
      9  CA       -24.9720   31.6020    7.8160 C.3    92  SER92       0.2055
     10  C        -26.4870   31.7350    7.8490 C.2    92  SER92       0.2643
     11  O        -27.0250   32.6470    8.4720 O.2    92  SER92      -0.2714
     12  CB       -24.4720   30.6100    8.8820 C.3    92  SER92       0.2130
     13  OG       -25.3140   29.4810    9.0070 O.3    92  SER92      -0.2179
     14  N        -27.1780   30.8270    7.1690 N.am   93  SER93      -0.1949
     15  CA       -28.6290   30.7660    7.2770 C.3    93  SER93       0.1924
     16  C        -29.0410   30.1160    8.6110 C.2    93  SER93       0.2314
     17  O        -30.1840   30.2280    9.0400 O.2    93  SER93      -0.2863
     18  CB       -29.2280   30.0320    6.0880 C.3    93  SER93       0.2116
     19  OG       -28.6440   28.7560    5.9530 O.3    93  SER93      -0.2180
     20  N        -28.7580   35.4320   12.2690 N.3   100  ARG100     -0.1245
     21  CA       -27.7730   34.7150   11.4680 C.3   100  ARG100      0.1563
     22  C        -26.4140   34.6840   12.1600 C.2   100  ARG100      0.2260
     23  O        -25.9870   35.6640   12.7710 O.2   100  ARG100     -0.2867
     24  CB       -27.6080   35.3720   10.0870 C.3   100  ARG100      0.0307
     25  CG       -28.8110   35.2880    9.1460 C.3   100  ARG100      0.0489
     26  CD       -28.5010   35.9190    7.7830 C.3   100  ARG100      0.2205
     27  NE       -29.4930   35.5810    6.7550 N.pl3 100  ARG100     -0.0865
     28  CZ       -29.3240   34.6730    5.7950 C.cat 100  ARG100      0.5346
     29  NH1      -28.1890   33.9840    5.6950 N.pl3 100  ARG100      0.1354
     30  NH2      -30.3000   34.4530    4.9220 N.pl3 100  ARG100      0.1354
     31  N        -15.0950   26.0920   -7.2550 N.3   117  TYR117     -0.1241
     32  CA       -15.9900   26.3930   -8.3760 C.3   117  TYR117      0.1605
     33  C        -15.3710   26.0060   -9.7400 C.2   117  TYR117      0.2264
     34  O        -16.0880   25.6020  -10.6500 O.2   117  TYR117     -0.2867
     35  CB       -16.3570   27.8780   -8.3970 C.3   117  TYR117      0.0534
     36  CG       -17.4530   28.3110   -7.4450 C.ar  117  TYR117     -0.0201
     37  CD1      -18.7710   27.8590   -7.6020 C.ar  117  TYR117     -0.0009
     38  CD2      -17.1870   29.2300   -6.4270 C.ar  117  TYR117     -0.0009
     39  CE1      -19.7770   28.2810   -6.7420 C.ar  117  TYR117      0.0417
     40  CE2      -18.1900   29.6710   -5.5720 C.ar  117  TYR117      0.0417
     41  CZ       -19.4790   29.1930   -5.7190 C.ar  117  TYR117      0.1957
     42  OH       -20.4700   29.6310   -4.8580 O.3   117  TYR117     -0.2866
     43  N        -22.6380   34.3240    2.1760 N.3   157  VAL157     -0.1231
     44  CA       -21.4420   34.0120    1.3890 C.3   157  VAL157      0.1692
     45  C        -21.7090   34.1450   -0.1220 C.2   157  VAL157      0.2591
     46  O        -20.8420   34.6030   -0.8670 O.2   157  VAL157     -0.2718
     47  CB       -20.8370   32.6280    1.7290 C.3   157  VAL157      0.0266
     48  CG1      -21.8300   31.5110    1.4560 C.3   157  VAL157      0.0020
     49  CG2      -19.5420   32.3990    0.9530 C.3   157  VAL157      0.0020
     50  N        -22.9110   33.7520   -0.5530 N.am  158  LEU158     -0.1980
     51  CA       -23.2670   33.7770   -1.9630 C.3   158  LEU158      0.1596
     52  C        -23.3730   35.2130   -2.4670 C.2   158  LEU158      0.2287
     53  O        -22.9530   35.5010   -3.5910 O.2   158  LEU158     -0.2864
     54  CB       -24.5460   32.9770   -2.2280 C.3   158  LEU158      0.0297
     55  CG       -24.3450   31.4580   -2.3230 C.3   158  LEU158      0.0022
     56  CD1      -25.6850   30.7460   -2.3550 C.3   158  LEU158      0.0001
     57  CD2      -23.5310   31.0780   -3.5460 C.3   158  LEU158      0.0001
     58  N        -29.1580   27.8210   -6.9390 N.3   214  VAL214     -0.1231
     59  CA       -28.4430   27.1340   -5.8820 C.3   214  VAL214      0.1692
     60  C        -29.3070   26.0090   -5.3040 C.2   214  VAL214      0.2592
     61  O        -28.8880   24.8470   -5.3000 O.2   214  VAL214     -0.2718
     62  CB       -27.9710   28.1190   -4.8020 C.3   214  VAL214      0.0266
     63  CG1      -27.2750   27.3840   -3.6700 C.3   214  VAL214      0.0020
     64  CG2      -27.0210   29.1360   -5.4220 C.3   214  VAL214      0.0020
     65  N        -30.5180   26.3600   -4.8720 N.am  215  PHE215     -0.1976
     66  CA       -31.4480   25.4280   -4.2290 C.3   215  PHE215      0.1639
     67  C        -32.6950   25.1670   -5.0530 C.2   215  PHE215      0.2290
     68  O        -33.1140   26.0220   -5.8260 O.2   215  PHE215     -0.2864
     69  CB       -31.8940   25.9770   -2.8820 C.3   215  PHE215      0.0560
     70  CG       -30.7720   26.2290   -1.9350 C.ar  215  PHE215     -0.0200
     71  CD1      -30.0080   25.1760   -1.4470 C.ar  215  PHE215     -0.0042
     72  CD2      -30.4870   27.5170   -1.5170 C.ar  215  PHE215     -0.0042
     73  CE1      -28.9680   25.4100   -0.5620 C.ar  215  PHE215     -0.0003
     74  CE2      -29.4460   27.7600   -0.6340 C.ar  215  PHE215     -0.0003
     75  CZ       -28.6870   26.7040   -0.1510 C.ar  215  PHE215     -0.0000
     76  N        -29.6400   22.0030   -6.1390 N.3   295  ILE295     -0.1245
     77  CA       -29.4340   21.1160   -5.0080 C.3   295  ILE295      0.1561
     78  C        -30.7650   20.4670   -4.6310 C.2   295  ILE295      0.2260
     79  O        -31.7150   21.1700   -4.2790 O.2   295  ILE295     -0.2867
     80  CB       -28.8430   21.8780   -3.7970 C.3   295  ILE295      0.0252
     81  CG1      -27.3580   22.1790   -4.0420 C.3   295  ILE295      0.0019
     82  CG2      -29.0620   21.0960   -2.4950 C.3   295  ILE295      0.0019
     83  CD1      -26.6720   22.9330   -2.9240 C.3   295  ILE295      0.0001
     84  N        -30.6140   17.5140   -2.5590 N.3   297  THR297     -0.1203
     85  CA       -30.2820   16.6770   -1.4230 C.3   297  THR297      0.1994
     86  C        -30.6310   17.3860   -0.1350 C.2   297  THR297      0.2618
     87  O        -30.8340   18.6010   -0.1250 O.2   297  THR297     -0.2717
     88  CB       -28.7970   16.2900   -1.4080 C.3   297  THR297      0.1784
     89  OG1      -27.9940   17.4560   -1.6380 O.3   297  THR297     -0.2211
     90  CG2      -28.5230   15.2490   -2.4830 C.3   297  THR297      0.0376
     91  N        -30.7060   16.6200    0.9500 N.am  298  GLY298     -0.1942
     92  CA       -31.0880   17.1470    2.2510 C.3   298  GLY298      0.2014
     93  C        -32.5240   17.6330    2.2710 C.2   298  GLY298      0.2639
     94  O        -33.4030   17.0210    1.6760 O.2   298  GLY298     -0.2714
     95  N        -32.7490   18.7510    2.9490 N.am  299  ALA299     -0.1963
     96  CA       -34.0760   19.3490    3.0740 C.3   299  ALA299      0.1728
     97  C        -34.7260   19.7230    1.7260 C.2   299  ALA299      0.2616
     98  O        -35.9360   19.9170    1.6630 O.2   299  ALA299     -0.2715
     99  CB       -34.0140   20.5570    4.0030 C.3   299  ALA299      0.0334
    100  N        -33.9330   19.7950    0.6570 N.am  300  MET300     -0.1977
    101  CA       -34.4440   20.1620   -0.6710 C.3   300  MET300      0.1605
    102  C        -35.0680   18.9810   -1.3930 C.2   300  MET300      0.2287
    103  O        -35.7430   19.1510   -2.4180 O.2   300  MET300     -0.2864
    104  CB       -33.3350   20.7620   -1.5450 C.3   300  MET300      0.0413
    105  CG       -32.8800   22.1470   -1.1120 C.3   300  MET300      0.0598
    106  SD       -34.1780   23.3890   -1.2750 S.3   300  MET300     -0.1393
    107  CE       -33.7200   24.5460    0.0230 C.3   300  MET300      0.0692
    108  N        -22.5140   20.7600   -5.6030 N.3   320  MET320     -0.1230
    109  CA       -21.6100   21.2800   -4.5860 C.3   320  MET320      0.1702
    110  C        -22.1700   21.2060   -3.1770 C.2   320  MET320      0.2592
    111  O        -23.3810   21.2210   -2.9700 O.2   320  MET320     -0.2718
    112  CB       -21.2730   22.7280   -4.9400 C.3   320  MET320      0.0401
    113  CG       -19.9140   23.2300   -4.4980 C.3   320  MET320      0.0596
    114  SD       -19.5670   24.6980   -5.4840 S.3   320  MET320     -0.1393
    115  CE       -18.2410   25.4550   -4.5720 C.3   320  MET320      0.0692
    116  N        -21.2630   21.1230   -2.2130 N.am  321  TYR321     -0.1962
    117  CA       -21.6240   21.0710   -0.8150 C.3   321  TYR321      0.1771
    118  C        -20.7610   22.0830   -0.0850 C.2   321  TYR321      0.2619
    119  O        -19.5430   21.9560   -0.0420 O.2   321  TYR321     -0.2715
    120  CB       -21.4250   19.6550   -0.2880 C.3   321  TYR321      0.0574
    121  CG       -21.5210   19.4810    1.2160 C.ar  321  TYR321     -0.0198
    122  CD1      -22.5450   20.0680    1.9570 C.ar  321  TYR321     -0.0009
    123  CD2      -20.5960   18.6810    1.8880 C.ar  321  TYR321     -0.0009
    124  CE1      -22.6250   19.8850    3.3290 C.ar  321  TYR321      0.0417
    125  CE2      -20.6690   18.4900    3.2570 C.ar  321  TYR321      0.0417
    126  CZ       -21.6830   19.0890    3.9680 C.ar  321  TYR321      0.1957
    127  OH       -21.7340   18.8940    5.3200 O.3   321  TYR321     -0.2866
    128  N        -21.4000   23.1030    0.4780 N.am  322  ALA322     -0.1963
    129  CA       -20.6720   24.2890    0.9130 C.3   322  ALA322      0.1728
    130  C        -21.4710   25.0800    1.9300 C.2   322  ALA322      0.2617
    131  O        -22.6500   24.8340    2.1140 O.2   322  ALA322     -0.2715
    132  CB       -20.3290   25.1570   -0.2890 C.3   322  ALA322      0.0334
    133  N        -20.8180   26.0260    2.5910 N.am  323  SER323     -0.1936
    134  CA       -21.4600   26.7710    3.6480 C.3   323  SER323      0.2055
    135  C        -20.7970   28.1210    3.8000 C.2   323  SER323      0.2644
    136  O        -19.7440   28.3780    3.2200 O.2   323  SER323     -0.2714
    137  CB       -21.3580   26.0050    4.9760 C.3   323  SER323      0.2130
    138  OG       -20.0540   26.1210    5.5250 O.3   323  SER323     -0.2179
    139  N        -21.4180   28.9750    4.5990 N.am  324  SER324     -0.1935
    140  CA       -20.7930   30.2170    5.0230 C.3   324  SER324      0.2055
    141  C        -19.4760   30.0280    5.7870 C.2   324  SER324      0.2642
    142  O        -18.5550   30.8070    5.5950 O.2   324  SER324     -0.2714
    143  CB       -21.7830   31.0540    5.8350 C.3   324  SER324      0.2130
    144  OG       -22.6030   31.8060    4.9520 O.3   324  SER324     -0.2179
    145  N        -19.3860   29.0110    6.6480 N.am  325  GLU325     -0.1976
    146  CA       -18.1340   28.7440    7.3920 C.3   325  GLU325      0.1602
    147  C        -17.0220   28.3330    6.4590 C.2   325  GLU325      0.2287
    148  O        -15.8760   28.7330    6.6390 O.2   325  GLU325     -0.2864
    149  CB       -18.2760   27.5860    8.3770 C.3   325  GLU325      0.0415
    150  CG       -19.4070   27.6760    9.3620 C.3   325  GLU325      0.1163
    151  CD       -20.6480   26.9580    8.8840 C.2   325  GLU325      0.3649
    152  OE1      -21.3140   27.4770    7.9640 O.co2 325  GLU325     -0.2457
    153  OE2      -20.9560   25.8880    9.4530 O.co2 325  GLU325     -0.2457
    154  N        -16.3960   26.2450    2.3200 N.3   327  TYR327     -0.1227
    155  CA       -16.7810   25.4990    1.1250 C.3   327  TYR327      0.1736
    156  C        -16.1620   24.1180    1.2680 C.2   327  TYR327      0.2595
    157  O        -14.9520   24.0010    1.4420 O.2   327  TYR327     -0.2718
    158  CB       -16.3150   26.2390   -0.1420 C.3   327  TYR327      0.0548
    159  CG       -17.3410   27.2430   -0.6480 C.ar  327  TYR327     -0.0200
    160  CD1      -18.0340   28.0900    0.2320 C.ar  327  TYR327     -0.0009
    161  CD2      -17.6280   27.3470   -2.0040 C.ar  327  TYR327     -0.0009
    162  CE1      -18.9910   28.9900   -0.2340 C.ar  327  TYR327      0.0417
    163  CE2      -18.5740   28.2480   -2.4740 C.ar  327  TYR327      0.0417
    164  CZ       -19.2530   29.0670   -1.5940 C.ar  327  TYR327      0.1957
    165  OH       -20.1890   29.9510   -2.0860 O.3   327  TYR327     -0.2866
    166  N        -16.9970   23.0820    1.2690 N.am  328  PHE328     -0.1976
    167  CA       -16.5500   21.7420    1.6630 C.3   328  PHE328      0.1639
    168  C        -16.0390   20.9120    0.4950 C.2   328  PHE328      0.2290
    169  O        -14.9070   20.4150    0.5360 O.2   328  PHE328     -0.2864
    170  CB       -17.6640   20.9680    2.3750 C.3   328  PHE328      0.0560
    171  CG       -18.2710   21.6910    3.5410 C.ar  328  PHE328     -0.0200
    172  CD1      -17.4720   22.2430    4.5340 C.ar  328  PHE328     -0.0042
    173  CD2      -19.6550   21.7870    3.6600 C.ar  328  PHE328     -0.0042
    174  CE1      -18.0400   22.8860    5.6220 C.ar  328  PHE328     -0.0003
    175  CE2      -20.2280   22.4270    4.7370 C.ar  328  PHE328     -0.0003
    176  CZ       -19.4180   22.9780    5.7270 C.ar  328  PHE328     -0.0000
    177  N        -21.0850   13.5290   -1.7110 N.3   343  TYR343     -0.1241
    178  CA       -20.1330   14.6280   -1.8750 C.3   343  TYR343      0.1605
    179  C        -18.7480   14.2290   -1.3910 C.2   343  TYR343      0.2264
    180  O        -18.6030   13.6180   -0.3300 O.2   343  TYR343     -0.2867
    181  CB       -20.6040   15.9010   -1.1550 C.3   343  TYR343      0.0534
    182  CG       -21.9540   16.3580   -1.6120 C.ar  343  TYR343     -0.0201
    183  CD1      -22.0980   17.1420   -2.7570 C.ar  343  TYR343     -0.0009
    184  CD2      -23.1000   15.9930   -0.9160 C.ar  343  TYR343     -0.0009
    185  CE1      -23.3530   17.5500   -3.1930 C.ar  343  TYR343      0.0417
    186  CE2      -24.3550   16.3980   -1.3390 C.ar  343  TYR343      0.0417
    187  CZ       -24.4740   17.1700   -2.4760 C.ar  343  TYR343      0.1957
    188  OH       -25.7190   17.5580   -2.8940 O.3   343  TYR343     -0.2866
    189  N        -20.1730   22.1450   12.5600 N.3   399  VAL399     -0.1245
    190  CA       -21.0350   22.7160   11.5290 C.3   399  VAL399      0.1561
    191  C        -22.5000   22.3920   11.8450 C.2   399  VAL399      0.2260
    192  O        -23.3850   23.2210   11.6350 O.2   399  VAL399     -0.2867
    193  CB       -20.6230   22.1990   10.1240 C.3   399  VAL399      0.0252
    194  CG1      -21.7020   22.4480    9.0810 C.3   399  VAL399      0.0019
    195  CG2      -19.2760   22.7830    9.7020 C.3   399  VAL399      0.0019
    196  N        -23.8340   19.4460   10.6280 N.3   401  ASP401     -0.1239
    197  CA       -24.2380   18.5490    9.5450 C.3   401  ASP401      0.1674
    198  C        -23.9440   17.0940    9.8940 C.2   401  ASP401      0.2266
    199  O        -22.8400   16.7670   10.3340 O.2   401  ASP401     -0.2867
    200  CB       -23.4850   18.8820    8.2460 C.3   401  ASP401      0.1410
    201  CG       -23.9930   20.1380    7.5630 C.2   401  ASP401      0.3668
    202  OD1      -25.0720   20.6530    7.9170 O.co2 401  ASP401     -0.2456
    203  OD2      -23.2900   20.6100    6.6420 O.co2 401  ASP401     -0.2456
    204  N        -25.3800   13.2590    2.3610 N.3   417  PHE417     -0.1241
    205  CA       -25.8040   14.2930    3.2930 C.3   417  PHE417      0.1605
    206  C        -27.0750   13.8240    3.9620 C.2   417  PHE417      0.2264
    207  O        -28.0250   13.4400    3.2960 O.2   417  PHE417     -0.2867
    208  CB       -26.0450   15.6360    2.5890 C.3   417  PHE417      0.0534
    209  CG       -26.5170   16.7110    3.5170 C.ar  417  PHE417     -0.0203
    210  CD1      -27.8710   16.8300    3.8340 C.ar  417  PHE417     -0.0042
    211  CD2      -25.6100   17.5730    4.1110 C.ar  417  PHE417     -0.0042
    212  CE1      -28.3100   17.8020    4.7140 C.ar  417  PHE417     -0.0003
    213  CE2      -26.0430   18.5590    4.9770 C.ar  417  PHE417     -0.0003
    214  CZ       -27.3970   18.6740    5.2780 C.ar  417  PHE417     -0.0000
    215  N        -29.1490   18.5810    8.8140 N.3   420  ARG420     -0.1245
    216  CA       -28.5160   19.5510    9.6710 C.3   420  ARG420      0.1563
    217  C        -29.2800   19.4310   10.9910 C.2   420  ARG420      0.2260
    218  O        -30.5000   19.5530   11.0090 O.2   420  ARG420     -0.2867
    219  CB       -28.6380   20.9500    9.0580 C.3   420  ARG420      0.0307
    220  CG       -28.2190   22.0910    9.9690 C.3   420  ARG420      0.0489
    221  CD       -26.7290   22.4130    9.9010 C.3   420  ARG420      0.2205
    222  NE       -26.5660   23.7870   10.3650 N.pl3 420  ARG420     -0.0865
    223  CZ       -25.8830   24.7500    9.7540 C.cat 420  ARG420      0.5346
    224  NH1      -25.1860   24.5170    8.6490 N.pl3 420  ARG420      0.1354
    225  NH2      -25.8670   25.9610   10.3040 N.pl3 420  ARG420      0.1354
    226  N        -34.1620   28.6370    2.9540 N.3   429  SER429     -0.1217
    227  CA       -32.9190   28.6410    3.7070 C.3   429  SER429      0.1889
    228  C        -33.2000   28.8450    5.1840 C.2   429  SER429      0.2288
    229  O        -32.3040   28.7200    6.0230 O.2   429  SER429     -0.2866
    230  CB       -31.9860   29.7220    3.1670 C.3   429  SER429      0.2089
    231  OG       -31.6110   29.4150    1.8310 O.3   429  SER429     -0.2183
    232  N        -34.3730   27.9220    8.7700 N.3   431  LYS431     -0.1245
    233  CA       -34.2910   26.7300    9.6020 C.3   431  LYS431      0.1561
    234  C        -34.9430   27.0760   10.9360 C.2   431  LYS431      0.2260
    235  O        -34.4560   27.9450   11.6610 O.2   431  LYS431     -0.2867
    236  CB       -32.8290   26.3090    9.7840 C.3   431  LYS431      0.0271
    237  CG       -32.0850   26.0480    8.4810 C.3   431  LYS431      0.0035
    238  CD       -30.5770   26.0100    8.6870 C.3   431  LYS431      0.0206
    239  CE       -29.8250   26.4590    7.4430 C.3   431  LYS431      0.1093
    240  NZ       -30.2850   25.8920    6.1400 N.3   431  LYS431     -0.1314
@<TRIPOS>BOND
     1    34    33    2
     2    33    32    1
     3    35    32    1
     4    35    36    1
     5    32    31    1
     6    37    36   ar
     7    37    39   ar
     8    36    38   ar
     9    58    59    1
    10    39    41   ar
    11    38    40   ar
    12    76    77    1
    13    59    60    1
    14    59    62    1
    15    68    67    2
    16    41    40   ar
    17    41    42    1
    18   108   109    1
    19   114   115    1
    20   114   113    1
    21    64    62    1
    22    60    61    2
    23    60    65   am
    24    67    66    1
    25    77    78    1
    26    77    80    1
    27   112   109    1
    28   112   113    1
    29    65    66    1
    30    62    63    1
    31    78    79    2
    32   109   110    1
    33    66    69    1
    34    81    80    1
    35    81    83    1
    36    80    82    1
    37    53    52    2
    38    57    55    1
    39   185   183   ar
    40   185   187   ar
    41   110   111    2
    42   110   116   am
    43   188   187    1
    44    69    70    1
    45   183   182   ar
    46    84    85    1
    47    90    88    1
    48   187   186   ar
    49   163   161   ar
    50   163   164   ar
    51    52    51    1
    52   103   102    2
    53    56    55    1
    54    55    54    1
    55    54    51    1
    56   116   117    1
    57   165   164    1
    58   161   159   ar
    59    51    50    1
    60    70    72   ar
    61    70    71   ar
    62   178   177    1
    63   178   179    1
    64   178   181    1
    65    89    88    1
    66   182   181    1
    67   182   184   ar
    68   164   162   ar
    69   104   105    1
    70   104   101    1
    71    72    74   ar
    72    71    73   ar
    73    85    88    1
    74    85    86    1
    75   102   101    1
    76   179   180    2
    77   186   184   ar
    78   106   105    1
    79   106   107    1
    80    46    45    2
    81   117   120    1
    82   117   118    1
    83   101   100    1
    84   159   158    1
    85   159   160   ar
    86    74    75   ar
    87    73    75   ar
    88    50    45   am
    89   132   129    1
    90   120   121    1
    91   162   160   ar
    92   158   155    1
    93    86    87    2
    94    86    91   am
    95    45    44    1
    96   118   119    2
    97   118   128   am
    98   128   129    1
    99   168   169    2
   100   168   167    1
   101   100    97   am
   102   129   130    1
   103    91    92    1
   104    49    47    1
   105   155   156    1
   106   155   154    1
   107   121   123   ar
   108   121   122   ar
   109   156   166   am
   110   156   157    2
   111   166   167    1
   112    44    47    1
   113    44    43    1
   114    48    47    1
   115   167   170    1
   116    98    97    2
   117    94    93    2
   118    97    96    1
   119   231   230    1
   120   123   125   ar
   121   130   131    2
   122   130   133   am
   123   122   124   ar
   124    92    93    1
   125    93    95   am
   126   204   205    1
   127   170   171    1
   128   208   205    1
   129   208   209    1
   130   133   134    1
   131    95    96    1
   132   226   227    1
   133    96    99    1
   134   230   227    1
   135   136   135    2
   136   125   126   ar
   137   205   206    1
   138   207   206    2
   139   124   126   ar
   140   209   210   ar
   141   209   211   ar
   142   171   173   ar
   143   171   172   ar
   144   134   135    1
   145   134   137    1
   146   173   175   ar
   147   227   228    1
   148   135   139   am
   149   210   212   ar
   150   126   127    1
   151   211   213   ar
   152   172   174   ar
   153   139   140    1
   154   212   214   ar
   155   175   176   ar
   156    30    28    1
   157   144   143    1
   158   137   138    1
   159   213   214   ar
   160   140   141    1
   161   140   143    1
   162   228   229    2
   163   142   141    2
   164   174   176   ar
   165    29    28    1
   166   141   145   am
   167    28    27    2
   168    19    18    1
   169    18    15    1
   170     4     3    2
   171   240   239    1
   172     6     5    1
   173   147   148    2
   174   147   146    1
   175   203   201   ar
   176   145   146    1
   177     1     2    1
   178    27    26    1
   179    14    15    1
   180    14    10   am
   181     3     2    1
   182     3     8   am
   183    15    16    1
   184   146   149    1
   185   239   238    1
   186   201   202   ar
   187   201   200    1
   188     2     5    1
   189     5     7    1
   190    26    25    1
   191     9    10    1
   192     9     8    1
   193     9    12    1
   194    10    11    2
   195   152   151   ar
   196   200   197    1
   197   149   150    1
   198   237   238    1
   199   237   236    1
   200    16    17    2
   201   224   223    1
   202   232   233    1
   203   215   216    1
   204    12    13    1
   205   151   150    1
   206   151   153   ar
   207   219   216    1
   208   219   220    1
   209   194   193    1
   210    25    24    1
   211   197   198    1
   212   197   196    1
   213   233   236    1
   214   233   234    1
   215   216   217    1
   216   195   193    1
   217   223   225    1
   218   223   222    2
   219   198   199    2
   220   221   220    1
   221   221   222    1
   222    24    21    1
   223   193   190    1
   224   234   235    2
   225   217   218    2
   226    21    22    1
   227    21    20    1
   228   190   191    1
   229   190   189    1
   230   192   191    2
   231    22    23    2
