@<TRIPOS>MOLECULE
tmp/4b2gB00.pdb
 90 85 0 0 0
SMALL
GASTEIGER

@<TRIPOS>ATOM
      1  N        -22.6820   35.5020    6.7110 N.3    91  THR91      -0.1218
      2  CA       -23.8010   35.1910    7.5720 C.3    91  THR91       0.1862
      3  C        -24.4800   33.8880    7.1710 C.2    91  THR91       0.2287
      4  O        -25.1010   33.7880    6.1160 O.2    91  THR91      -0.2866
      5  CB       -24.8350   36.3250    7.5960 C.3    91  THR91       0.1770
      6  OG1      -25.3170   36.5490    6.2690 O.3    91  THR91      -0.2211
      7  CG2      -24.2240   37.6130    8.1520 C.3    91  THR91       0.0375
      8  N        -27.1780   30.8270    7.1690 N.3    93  SER93      -0.1217
      9  CA       -28.6290   30.7660    7.2770 C.3    93  SER93       0.1889
     10  C        -29.0410   30.1160    8.6110 C.2    93  SER93       0.2288
     11  O        -30.1840   30.2280    9.0400 O.2    93  SER93      -0.2866
     12  CB       -29.2280   30.0320    6.0880 C.3    93  SER93       0.2089
     13  OG       -28.6440   28.7560    5.9530 O.3    93  SER93      -0.2183
     14  N        -28.7580   35.4320   12.2690 N.3   100  ARG100     -0.1245
     15  CA       -27.7730   34.7150   11.4680 C.3   100  ARG100      0.1563
     16  C        -26.4140   34.6840   12.1600 C.2   100  ARG100      0.2260
     17  O        -25.9870   35.6640   12.7710 O.2   100  ARG100     -0.2867
     18  CB       -27.6080   35.3720   10.0870 C.3   100  ARG100      0.0307
     19  CG       -28.8110   35.2880    9.1460 C.3   100  ARG100      0.0489
     20  CD       -28.5010   35.9190    7.7830 C.3   100  ARG100      0.2205
     21  NE       -29.4930   35.5810    6.7550 N.pl3 100  ARG100     -0.0865
     22  CZ       -29.3240   34.6730    5.7950 C.cat 100  ARG100      0.5346
     23  NH1      -28.1890   33.9840    5.6950 N.pl3 100  ARG100      0.1354
     24  NH2      -30.3000   34.4530    4.9220 N.pl3 100  ARG100      0.1354
     25  N        -29.3490   35.2510   -6.7400 N.3   141  PHE141     -0.1241
     26  CA       -29.8070   36.4350   -6.0070 C.3   141  PHE141      0.1605
     27  C        -28.8870   36.8480   -4.8850 C.2   141  PHE141      0.2264
     28  O        -28.3670   36.0000   -4.1450 O.2   141  PHE141     -0.2867
     29  CB       -31.2310   36.2240   -5.4780 C.3   141  PHE141      0.0534
     30  CG       -32.2020   35.8150   -6.5430 C.ar  141  PHE141     -0.0203
     31  CD1      -32.8850   36.7760   -7.2760 C.ar  141  PHE141     -0.0042
     32  CD2      -32.3920   34.4700   -6.8460 C.ar  141  PHE141     -0.0042
     33  CE1      -33.7680   36.4060   -8.2830 C.ar  141  PHE141     -0.0003
     34  CE2      -33.2680   34.0870   -7.8480 C.ar  141  PHE141     -0.0003
     35  CZ       -33.9590   35.0570   -8.5680 C.ar  141  PHE141     -0.0000
     36  N        -28.5470   39.1240   -1.2910 N.3   143  LYS143     -0.1245
     37  CA       -29.4310   39.4150   -0.1670 C.3   143  LYS143      0.1561
     38  C        -28.8340   40.5620    0.6140 C.2   143  LYS143      0.2260
     39  O        -27.7110   40.9590    0.3450 O.2   143  LYS143     -0.2867
     40  CB       -29.6370   38.1830    0.7160 C.3   143  LYS143      0.0271
     41  CG       -30.4090   37.0820    0.0140 C.3   143  LYS143      0.0035
     42  CD       -30.9300   36.0300    0.9690 C.3   143  LYS143      0.0206
     43  CE       -31.5940   34.9300    0.1680 C.3   143  LYS143      0.1093
     44  NZ       -31.7090   33.6530    0.9320 N.3   143  LYS143     -0.1314
     45  N        -24.5700   37.1860    3.3670 N.3   156  PRO156     -0.2102
     46  CA       -24.4360   35.7800    2.9610 C.3   156  PRO156      0.1504
     47  C        -23.2230   35.5170    2.0630 C.2   156  PRO156      0.2576
     48  O        -22.8260   36.3900    1.2710 O.2   156  PRO156     -0.2718
     49  CB       -25.7290   35.5200    2.1790 C.3   156  PRO156      0.0282
     50  CG       -26.7090   36.4980    2.7420 C.3   156  PRO156      0.0208
     51  CD       -25.8960   37.7270    3.0130 C.3   156  PRO156      0.0893
     52  N        -22.6380   34.3240    2.1760 N.am  157  VAL157     -0.1966
     53  CA       -21.4420   34.0120    1.3890 C.3   157  VAL157      0.1727
     54  C        -21.7090   34.1450   -0.1220 C.2   157  VAL157      0.2616
     55  O        -20.8420   34.6030   -0.8670 O.2   157  VAL157     -0.2715
     56  CB       -20.8370   32.6280    1.7290 C.3   157  VAL157      0.0290
     57  CG1      -21.8300   31.5110    1.4560 C.3   157  VAL157      0.0023
     58  CG2      -19.5420   32.3990    0.9530 C.3   157  VAL157      0.0023
     59  N        -22.9110   33.7520   -0.5530 N.am  158  LEU158     -0.1963
     60  CA       -23.2670   33.7770   -1.9630 C.3   158  LEU158      0.1728
     61  C        -23.3730   35.2130   -2.4670 C.2   158  LEU158      0.2616
     62  O        -22.9530   35.5010   -3.5910 O.2   158  LEU158     -0.2715
     63  CB       -24.5460   32.9770   -2.2280 C.3   158  LEU158      0.0311
     64  CG       -24.3450   31.4580   -2.3230 C.3   158  LEU158      0.0022
     65  CD1      -25.6850   30.7460   -2.3550 C.3   158  LEU158      0.0001
     66  CD2      -23.5310   31.0780   -3.5460 C.3   158  LEU158      0.0001
     67  N        -23.8960   36.1000   -1.6140 N.am  159  THR159     -0.1951
     68  CA       -23.9580   37.5270   -1.9030 C.3   159  THR159      0.1897
     69  C        -22.5440   38.0590   -2.0400 C.2   159  THR159      0.2313
     70  O        -22.2070   38.7050   -3.0330 O.2   159  THR159     -0.2863
     71  CB       -24.7030   38.3110   -0.8010 C.3   159  THR159      0.1794
     72  OG1      -26.1160   38.0660   -0.8960 O.3   159  THR159     -0.2208
     73  CG2      -24.4480   39.8190   -0.9250 C.3   159  THR159      0.0378
     74  N        -30.5180   26.3600   -4.8720 N.3   215  PHE215     -0.1241
     75  CA       -31.4480   25.4280   -4.2290 C.3   215  PHE215      0.1605
     76  C        -32.6950   25.1670   -5.0530 C.2   215  PHE215      0.2264
     77  O        -33.1140   26.0220   -5.8260 O.2   215  PHE215     -0.2867
     78  CB       -31.8940   25.9770   -2.8820 C.3   215  PHE215      0.0534
     79  CG       -30.7720   26.2290   -1.9350 C.ar  215  PHE215     -0.0203
     80  CD1      -30.0080   25.1760   -1.4470 C.ar  215  PHE215     -0.0042
     81  CD2      -30.4870   27.5170   -1.5170 C.ar  215  PHE215     -0.0042
     82  CE1      -28.9680   25.4100   -0.5620 C.ar  215  PHE215     -0.0003
     83  CE2      -29.4460   27.7600   -0.6340 C.ar  215  PHE215     -0.0003
     84  CZ       -28.6870   26.7040   -0.1510 C.ar  215  PHE215     -0.0000
     85  N        -34.1620   28.6370    2.9540 N.3   429  SER429     -0.1217
     86  CA       -32.9190   28.6410    3.7070 C.3   429  SER429      0.1889
     87  C        -33.2000   28.8450    5.1840 C.2   429  SER429      0.2288
     88  O        -32.3040   28.7200    6.0230 O.2   429  SER429     -0.2866
     89  CB       -31.9860   29.7220    3.1670 C.3   429  SER429      0.2089
     90  OG       -31.6110   29.4150    1.8310 O.3   429  SER429     -0.2183
@<TRIPOS>BOND
     1    35    33   ar
     2    35    34   ar
     3    33    31   ar
     4    34    32   ar
     5    31    30   ar
     6    32    30   ar
     7    25    26    1
     8    30    29    1
     9    26    29    1
    10    26    27    1
    11    77    76    2
    12    76    75    1
    13    27    28    2
    14    74    75    1
    15    75    78    1
    16    62    61    2
    17    66    64    1
    18    70    69    2
    19    78    79    1
    20    61    60    1
    21    61    67   am
    22    65    64    1
    23    64    63    1
    24    63    60    1
    25    69    68    1
    26    60    59    1
    27    79    81   ar
    28    79    80   ar
    29    68    67    1
    30    68    71    1
    31    81    83   ar
    32    80    82   ar
    33    36    37    1
    34    73    71    1
    35    72    71    1
    36    55    54    2
    37    83    84   ar
    38    82    84   ar
    39    59    54   am
    40    37    38    1
    41    37    40    1
    42    54    53    1
    43    41    40    1
    44    41    42    1
    45    43    44    1
    46    43    42    1
    47    39    38    2
    48    58    56    1
    49    48    47    2
    50    53    56    1
    51    53    52    1
    52    57    56    1
    53    90    89    1
    54    47    52   am
    55    47    46    1
    56    49    50    1
    57    49    46    1
    58    50    51    1
    59    85    86    1
    60    46    45    1
    61    51    45    1
    62    89    86    1
    63    86    87    1
    64    24    22    1
    65    87    88    2
    66    23    22    1
    67    22    21    2
    68    13    12    1
    69    12     9    1
    70     4     3    2
    71     6     5    1
    72     1     2    1
    73    21    20    1
    74     8     9    1
    75     3     2    1
    76     9    10    1
    77     2     5    1
    78     5     7    1
    79    20    19    1
    80    10    11    2
    81    19    18    1
    82    18    15    1
    83    15    16    1
    84    15    14    1
    85    16    17    2
