@<TRIPOS>MOLECULE
tmp/4b2iA00.pdb
 90 87 0 0 0
SMALL
GASTEIGER

@<TRIPOS>ATOM
      1  N         14.9540    1.4650   -4.1340 N.3    62  MET62      -0.1230
      2  CA        15.8450    2.3390   -3.3920 C.3    62  MET62       0.1702
      3  C         15.4740    2.1910   -1.9280 C.2    62  MET62       0.2592
      4  O         14.2790    2.2040   -1.5830 O.2    62  MET62      -0.2718
      5  CB        15.7000    3.7870   -3.8540 C.3    62  MET62       0.0401
      6  CG        16.0510    3.9620   -5.3430 C.3    62  MET62       0.0596
      7  SD        16.1000    5.6730   -5.9080 S.3    62  MET62      -0.1393
      8  CE        17.6020    6.2390   -5.1360 C.3    62  MET62       0.0692
      9  N         16.4740    2.0440   -1.0670 N.am   63  TRP63      -0.1962
     10  CA        16.2910    1.6960    0.3330 C.3    63  TRP63       0.1771
     11  C         17.0710    2.6490    1.2290 C.2    63  TRP63       0.2619
     12  O         18.3130    2.7090    1.1420 O.2    63  TRP63      -0.2715
     13  CB        16.7820    0.2620    0.5670 C.3    63  TRP63       0.0590
     14  CG        16.4590   -0.2930    1.9030 C.ar   63  TRP63       0.0006
     15  CD1       16.7260    0.2610    3.1210 C.ar   63  TRP63       0.0946
     16  CD2       15.8110   -1.5400    2.1580 C.ar   63  TRP63       0.0152
     17  NE1       16.2590   -0.5650    4.1220 N.ar   63  TRP63      -0.2442
     18  CE2       15.7010   -1.6790    3.5530 C.ar   63  TRP63       0.0810
     19  CE3       15.3140   -2.5550    1.3370 C.ar   63  TRP63       0.0012
     20  CZ2       15.1050   -2.7910    4.1460 C.ar   63  TRP63       0.0191
     21  CZ3       14.7290   -3.6610    1.9260 C.ar   63  TRP63       0.0001
     22  CH2       14.6290   -3.7680    3.3180 C.ar   63  TRP63       0.0015
     23  N         16.3710    3.3910    2.0790 N.am   64  ILE64      -0.1977
     24  CA        16.9960    4.2740    3.0510 C.3    64  ILE64       0.1596
     25  C         16.8660    3.6290    4.4230 C.2    64  ILE64       0.2287
     26  O         15.7600    3.3570    4.8880 O.2    64  ILE64      -0.2864
     27  CB        16.3380    5.6690    3.0550 C.3    64  ILE64       0.0276
     28  CG1       16.5070    6.3560    1.6940 C.3    64  ILE64       0.0022
     29  CG2       16.9100    6.5220    4.1800 C.3    64  ILE64       0.0022
     30  CD1       15.7320    7.6520    1.5860 C.3    64  ILE64       0.0001
     31  N         19.2930   -0.1000   -4.5970 N.3    94  ALA94      -0.1231
     32  CA        20.2100    0.9740   -4.2650 C.3    94  ALA94       0.1694
     33  C         20.0360    1.2800   -2.7810 C.2    94  ALA94       0.2592
     34  O         18.9240    1.5090   -2.3240 O.2    94  ALA94      -0.2718
     35  CB        19.9230    2.1860   -5.1070 C.3    94  ALA94       0.0304
     36  N         21.1310    1.2570   -2.0320 N.am   95  TYR95      -0.1962
     37  CA        21.1250    1.3960   -0.5820 C.3    95  TYR95       0.1771
     38  C         21.7410    2.7060   -0.1050 C.2    95  TYR95       0.2619
     39  O         22.7960    3.1270   -0.5970 O.2    95  TYR95      -0.2715
     40  CB        21.9020    0.2310    0.0290 C.3    95  TYR95       0.0574
     41  CG        21.9850    0.2870    1.5290 C.ar   95  TYR95      -0.0198
     42  CD1       20.9390   -0.1820    2.3140 C.ar   95  TYR95      -0.0009
     43  CD2       23.1010    0.8230    2.1630 C.ar   95  TYR95      -0.0009
     44  CE1       21.0060   -0.1270    3.6890 C.ar   95  TYR95       0.0417
     45  CE2       23.1800    0.8810    3.5350 C.ar   95  TYR95       0.0417
     46  CZ        22.1250    0.4110    4.2950 C.ar   95  TYR95       0.1957
     47  OH        22.1870    0.4660    5.6660 O.3    95  TYR95      -0.2866
     48  N         21.1030    3.3550    0.8610 N.am   96  ALA96      -0.1977
     49  CA        21.6820    4.5200    1.5180 C.3    96  ALA96       0.1597
     50  C         21.4080    4.4650    3.0100 C.2    96  ALA96       0.2287
     51  O         20.2620    4.2870    3.4350 O.2    96  ALA96      -0.2864
     52  CB        21.1260    5.8040    0.9350 C.3    96  ALA96       0.0319
     53  N         18.3840   12.6990    1.6060 N.3   107  LEU107     -0.1245
     54  CA        18.4440   11.4960    0.7810 C.3   107  LEU107      0.1561
     55  C         17.1970   11.3020   -0.0810 C.2   107  LEU107      0.2260
     56  O         17.2910   10.8370   -1.2150 O.2   107  LEU107     -0.2867
     57  CB        18.7000   10.2490    1.6320 C.3   107  LEU107      0.0270
     58  CG        20.1440   10.0620    2.1140 C.3   107  LEU107      0.0019
     59  CD1       20.2190    8.9670    3.1820 C.3   107  LEU107      0.0001
     60  CD2       21.0820    9.7520    0.9490 C.3   107  LEU107      0.0001
     61  N         17.4430   13.7700   -2.8570 N.3   110  GLN110     -0.1231
     62  CA        18.4270   13.3790   -3.8560 C.3   110  GLN110      0.1698
     63  C         18.1110   12.0640   -4.5840 C.2   110  GLN110      0.2592
     64  O         18.6540   11.8100   -5.6600 O.2   110  GLN110     -0.2718
     65  CB        19.8400   13.3870   -3.2670 C.3   110  GLN110      0.0381
     66  CG        20.2910   12.1070   -2.6270 C.3   110  GLN110      0.0905
     67  CD        21.6550   12.2480   -1.9770 C.2   110  GLN110      0.2608
     68  OE1       21.8900   13.1750   -1.1950 O.2   110  GLN110     -0.2717
     69  NE2       22.5640   11.3310   -2.2990 N.am  110  GLN110     -0.0878
     70  N         17.2170   11.2480   -4.0210 N.am  111  ALA111     -0.1980
     71  CA        16.8070    9.9970   -4.6670 C.3   111  ALA111      0.1597
     72  C         16.1830   10.2710   -6.0270 C.2   111  ALA111      0.2287
     73  O         16.1960    9.4070   -6.9120 O.2   111  ALA111     -0.2864
     74  CB        15.8170    9.2300   -3.7870 C.3   111  ALA111      0.0319
     75  N         18.3530    9.4110   -9.2330 N.3   114  MET114     -0.1245
     76  CA        18.4000    8.0350   -9.7040 C.3   114  MET114      0.1570
     77  C         17.0570    7.6090  -10.2920 C.2   114  MET114      0.2261
     78  O         17.0080    6.8610  -11.2650 O.2   114  MET114     -0.2867
     79  CB        18.8170    7.0890   -8.5770 C.3   114  MET114      0.0387
     80  CG        19.1360    5.6830   -9.0480 C.3   114  MET114      0.0595
     81  SD        19.8650    4.6610   -7.7570 S.3   114  MET114     -0.1393
     82  CE        20.0490    3.1110   -8.6320 C.3   114  MET114      0.0692
     83  N         10.3800    2.4970   -3.0530 N.3   128  LEU128     -0.1245
     84  CA        11.2730    3.2940   -2.2410 C.3   128  LEU128      0.1561
     85  C         10.9290    2.9990   -0.7960 C.2   128  LEU128      0.2260
     86  O          9.7950    3.2360   -0.3670 O.2   128  LEU128     -0.2867
     87  CB        11.0900    4.7800   -2.5420 C.3   128  LEU128      0.0270
     88  CG        11.7930    5.7970   -1.6490 C.3   128  LEU128      0.0019
     89  CD1       13.2950    5.5790   -1.5410 C.3   128  LEU128      0.0001
     90  CD2       11.4900    7.2060   -2.1640 C.3   128  LEU128      0.0001
@<TRIPOS>BOND
     1    78    77    2
     2    77    76    1
     3    76    75    1
     4    76    79    1
     5    80    79    1
     6    80    81    1
     7    82    81    1
     8    73    72    2
     9    72    71    1
    10     7     6    1
    11     7     8    1
    12    64    63    2
    13     6     5    1
    14    35    32    1
    15    71    70    1
    16    71    74    1
    17    31    32    1
    18    63    70   am
    19    63    62    1
    20    32    33    1
    21     1     2    1
    22    62    65    1
    23    62    61    1
    24     5     2    1
    25     2     3    1
    26    65    66    1
    27    83    84    1
    28    33    34    2
    29    33    36   am
    30    66    67    1
    31    87    84    1
    32    87    88    1
    33    69    67   am
    34    84    85    1
    35    90    88    1
    36    36    37    1
    37    67    68    2
    38     3     4    2
    39     3     9   am
    40    88    89    1
    41    56    55    2
    42     9    10    1
    43    85    86    2
    44    39    38    2
    45    37    38    1
    46    37    40    1
    47    38    48   am
    48    55    54    1
    49    40    41    1
    50    10    13    1
    51    10    11    1
    52    13    14    1
    53    54    53    1
    54    54    57    1
    55    48    49    1
    56    52    49    1
    57    60    58    1
    58    12    11    2
    59    11    23   am
    60    19    21   ar
    61    19    16   ar
    62    49    50    1
    63    41    43   ar
    64    41    42   ar
    65    30    28    1
    66    57    58    1
    67    28    27    1
    68    14    16   ar
    69    14    15   ar
    70    21    22   ar
    71    23    24    1
    72    58    59    1
    73    16    18   ar
    74    43    45   ar
    75    42    44   ar
    76    50    51    2
    77    24    27    1
    78    24    25    1
    79    27    29    1
    80    15    17   ar
    81    22    20   ar
    82    45    46   ar
    83    18    17   ar
    84    18    20   ar
    85    44    46   ar
    86    46    47    1
    87    25    26    2
