@<TRIPOS>MOLECULE
tmp/4b2lA00.pdb
 98 95 0 0 0
SMALL
GASTEIGER

@<TRIPOS>ATOM
      1  N         14.9930    1.4820   -4.0500 N.3    62  MET62      -0.1230
      2  CA        15.8700    2.3820   -3.3130 C.3    62  MET62       0.1702
      3  C         15.5150    2.2290   -1.8440 C.2    62  MET62       0.2592
      4  O         14.3390    2.2930   -1.4840 O.2    62  MET62      -0.2718
      5  CB        15.7090    3.8340   -3.7790 C.3    62  MET62       0.0401
      6  CG        16.0330    4.0140   -5.2770 C.3    62  MET62       0.0596
      7  SD        16.1450    5.7390   -5.7970 S.3    62  MET62      -0.1393
      8  CE        17.6400    6.2370   -4.9450 C.3    62  MET62       0.0692
      9  N         16.5310    2.0350   -1.0090 N.am   63  TRP63      -0.1962
     10  CA        16.3660    1.6740    0.3910 C.3    63  TRP63       0.1771
     11  C         17.1570    2.6040    1.2970 C.2    63  TRP63       0.2619
     12  O         18.3930    2.6350    1.2390 O.2    63  TRP63      -0.2715
     13  CB        16.8550    0.2390    0.6040 C.3    63  TRP63       0.0590
     14  CG        16.5380   -0.3000    1.9510 C.ar   63  TRP63       0.0006
     15  CD1       16.8360    0.2560    3.1620 C.ar   63  TRP63       0.0946
     16  CD2       15.8860   -1.5420    2.2230 C.ar   63  TRP63       0.0152
     17  NE1       16.3670   -0.5530    4.1790 N.ar   63  TRP63      -0.2442
     18  CE2       15.8010   -1.6710    3.6270 C.ar   63  TRP63       0.0810
     19  CE3       15.3680   -2.5610    1.4160 C.ar   63  TRP63       0.0012
     20  CZ2       15.1960   -2.7720    4.2380 C.ar   63  TRP63       0.0191
     21  CZ3       14.7770   -3.6560    2.0250 C.ar   63  TRP63       0.0001
     22  CH2       14.6900   -3.7500    3.4280 C.ar   63  TRP63       0.0015
     23  N         16.4480    3.3560    2.1350 N.am   64  ILE64      -0.1977
     24  CA        17.0700    4.2400    3.1120 C.3    64  ILE64       0.1596
     25  C         16.9650    3.5990    4.4830 C.2    64  ILE64       0.2287
     26  O         15.8670    3.3150    4.9570 O.2    64  ILE64      -0.2864
     27  CB        16.4090    5.6350    3.1330 C.3    64  ILE64       0.0276
     28  CG1       16.6240    6.3630    1.7980 C.3    64  ILE64       0.0022
     29  CG2       16.9600    6.4690    4.2840 C.3    64  ILE64       0.0022
     30  CD1       15.8300    7.6460    1.6460 C.3    64  ILE64       0.0001
     31  N         19.3180   -0.1180   -4.5320 N.3    94  ALA94      -0.1231
     32  CA        20.2330    0.9630   -4.2000 C.3    94  ALA94       0.1694
     33  C         20.1050    1.2270   -2.7070 C.2    94  ALA94       0.2592
     34  O         19.0110    1.4230   -2.1960 O.2    94  ALA94      -0.2718
     35  CB        19.9150    2.2040   -4.9970 C.3    94  ALA94       0.0304
     36  N         21.2280    1.2210   -2.0060 N.am   95  TYR95      -0.1962
     37  CA        21.2370    1.3560   -0.5580 C.3    95  TYR95       0.1771
     38  C         21.8390    2.6680   -0.0750 C.2    95  TYR95       0.2619
     39  O         22.8990    3.0930   -0.5380 O.2    95  TYR95      -0.2715
     40  CB        21.9830    0.1760    0.0720 C.3    95  TYR95       0.0574
     41  CG        22.0710    0.2480    1.5750 C.ar   95  TYR95      -0.0198
     42  CD1       21.0530   -0.2620    2.3700 C.ar   95  TYR95      -0.0009
     43  CD2       23.1680    0.8370    2.2010 C.ar   95  TYR95      -0.0009
     44  CE1       21.1250   -0.1970    3.7470 C.ar   95  TYR95       0.0417
     45  CE2       23.2520    0.9030    3.5700 C.ar   95  TYR95       0.0417
     46  CZ        22.2230    0.3890    4.3380 C.ar   95  TYR95       0.1957
     47  OH        22.2910    0.4580    5.7040 O.3    95  TYR95      -0.2866
     48  N         21.1760    3.3090    0.8760 N.am   96  ALA96      -0.1977
     49  CA        21.7380    4.4750    1.5340 C.3    96  ALA96       0.1597
     50  C         21.4700    4.4220    3.0350 C.2    96  ALA96       0.2287
     51  O         20.3250    4.2460    3.4750 O.2    96  ALA96      -0.2864
     52  CB        21.1740    5.7540    0.9500 C.3    96  ALA96       0.0319
     53  N         18.4920   12.6060    1.6990 N.3   107  LEU107     -0.1245
     54  CA        18.5670   11.4060    0.8680 C.3   107  LEU107      0.1561
     55  C         17.3150   11.2160    0.0140 C.2   107  LEU107      0.2260
     56  O         17.3950   10.7480   -1.1160 O.2   107  LEU107     -0.2867
     57  CB        18.8430   10.1630    1.7180 C.3   107  LEU107      0.0270
     58  CG        20.2870   10.0160    2.2120 C.3   107  LEU107      0.0019
     59  CD1       20.3970    8.9790    3.3300 C.3   107  LEU107      0.0001
     60  CD2       21.2150    9.6680    1.0470 C.3   107  LEU107      0.0001
     61  N         17.6520   13.7260   -2.7650 N.3   110  GLN110     -0.1231
     62  CA        18.6590   13.2850   -3.7310 C.3   110  GLN110      0.1698
     63  C         18.1810   12.1010   -4.5740 C.2   110  GLN110      0.2592
     64  O         18.6140   11.9290   -5.7110 O.2   110  GLN110     -0.2718
     65  CB        19.9560   12.8680   -3.0330 C.3   110  GLN110      0.0381
     66  CG        20.7160   13.9490   -2.2960 C.3   110  GLN110      0.0905
     67  CD        21.7680   13.3350   -1.3890 C.2   110  GLN110      0.2608
     68  OE1       21.7090   13.4750   -0.1700 O.2   110  GLN110     -0.2717
     69  NE2       22.7130   12.6100   -1.9820 N.am  110  GLN110     -0.0878
     70  N         17.3140   11.2640   -4.0090 N.am  111  ALA111     -0.1980
     71  CA        16.8870   10.0460   -4.6980 C.3   111  ALA111      0.1597
     72  C         16.2380   10.3320   -6.0390 C.2   111  ALA111      0.2287
     73  O         16.2640    9.4810   -6.9330 O.2   111  ALA111     -0.2864
     74  CB        15.9300    9.2330   -3.8160 C.3   111  ALA111      0.0319
     75  N         17.1560   12.0330   -8.4590 N.3   113  ASP113     -0.1225
     76  CA        18.1230   11.9240   -9.5510 C.3   113  ASP113      0.1805
     77  C         18.1820   10.5080  -10.1270 C.2   113  ASP113      0.2597
     78  O         18.1440   10.3240  -11.3460 O.2   113  ASP113     -0.2718
     79  CB        19.5180   12.3580   -9.0900 C.3   113  ASP113      0.1424
     80  CG        19.6170   13.8520   -8.8580 C.2   113  ASP113      0.3668
     81  OD1       18.7580   14.6000   -9.3830 O.co2 113  ASP113     -0.2456
     82  OD2       20.5610   14.2760   -8.1590 O.co2 113  ASP113     -0.2456
     83  N         18.2860    9.5070   -9.2540 N.am  114  MET114     -0.1979
     84  CA        18.3320    8.1170   -9.7040 C.3   114  MET114      0.1605
     85  C         16.9850    7.7110  -10.2850 C.2   114  MET114      0.2287
     86  O         16.9230    6.9560  -11.2550 O.2   114  MET114     -0.2864
     87  CB        18.7190    7.1530   -8.5720 C.3   114  MET114      0.0413
     88  CG        18.9880    5.7210   -9.0560 C.3   114  MET114      0.0598
     89  SD        19.2060    4.4740   -7.7610 S.3   114  MET114     -0.1393
     90  CE        19.7640    3.0770   -8.7270 C.3   114  MET114      0.0692
     91  N         10.4150    2.5000   -2.9520 N.3   128  LEU128     -0.1245
     92  CA        11.3050    3.3120   -2.1340 C.3   128  LEU128      0.1561
     93  C         10.9800    3.0180   -0.6900 C.2   128  LEU128      0.2260
     94  O          9.8530    3.2520   -0.2440 O.2   128  LEU128     -0.2867
     95  CB        11.1150    4.7980   -2.4300 C.3   128  LEU128      0.0270
     96  CG        11.7820    5.8130   -1.4960 C.3   128  LEU128      0.0019
     97  CD1       13.2860    5.5990   -1.3890 C.3   128  LEU128      0.0001
     98  CD2       11.4700    7.2340   -1.9820 C.3   128  LEU128      0.0001
@<TRIPOS>BOND
     1    78    77    2
     2    86    85    2
     3    85    84    1
     4    77    76    1
     5    77    83   am
     6    84    83    1
     7    84    87    1
     8    76    79    1
     9    76    75    1
    10    81    80   ar
    11    79    80    1
    12    88    87    1
    13    88    89    1
    14    80    82   ar
    15    90    89    1
    16    73    72    2
    17    72    71    1
    18     7     6    1
    19     7     8    1
    20    64    63    2
    21     6     5    1
    22    35    32    1
    23    71    70    1
    24    71    74    1
    25    63    70   am
    26    63    62    1
    27    31    32    1
    28    32    33    1
    29     1     2    1
    30     5     2    1
    31    62    65    1
    32    62    61    1
    33     2     3    1
    34    65    66    1
    35    91    92    1
    36    33    34    2
    37    33    36   am
    38    95    92    1
    39    95    96    1
    40    66    67    1
    41    92    93    1
    42    36    37    1
    43    69    67   am
    44    98    96    1
    45     3     4    2
    46     3     9   am
    47    96    97    1
    48    67    68    2
    49    56    55    2
    50     9    10    1
    51    93    94    2
    52    37    38    1
    53    37    40    1
    54    39    38    2
    55    38    48   am
    56    55    54    1
    57    40    41    1
    58    10    13    1
    59    10    11    1
    60    13    14    1
    61    54    53    1
    62    54    57    1
    63    48    49    1
    64    52    49    1
    65    60    58    1
    66    12    11    2
    67    11    23   am
    68    19    21   ar
    69    19    16   ar
    70    49    50    1
    71    41    43   ar
    72    41    42   ar
    73    30    28    1
    74    57    58    1
    75    28    27    1
    76    14    16   ar
    77    14    15   ar
    78    21    22   ar
    79    23    24    1
    80    43    45   ar
    81    58    59    1
    82    16    18   ar
    83    42    44   ar
    84    50    51    2
    85    24    27    1
    86    24    25    1
    87    27    29    1
    88    15    17   ar
    89    22    20   ar
    90    45    46   ar
    91    18    17   ar
    92    18    20   ar
    93    44    46   ar
    94    46    47    1
    95    25    26    2
