@<TRIPOS>MOLECULE
tmp/4b2nA02.pdb
 84 80 0 0 0
SMALL
GASTEIGER

@<TRIPOS>ATOM
      1  N         79.9210   10.7520    3.3890 N.3    96  PRO96      -0.2116
      2  CA        80.8740   10.1180    4.3110 C.3    96  PRO96       0.1372
      3  C         81.2260   11.0470    5.4590 C.2    96  PRO96       0.2244
      4  O         81.3510   12.2660    5.2440 O.2    96  PRO96      -0.2868
      5  CB        82.1190    9.9300    3.4430 C.3    96  PRO96       0.0268
      6  CG        81.5660    9.6480    2.0750 C.3    96  PRO96       0.0207
      7  CD        80.3400   10.5720    1.9810 C.3    96  PRO96       0.0892
      8  N         87.2130    8.7830    8.0950 N.3    99  LEU99      -0.1245
      9  CA        88.0750    7.7610    7.5660 C.3    99  LEU99       0.1561
     10  C         87.7940    6.4730    8.3130 C.2    99  LEU99       0.2260
     11  O         87.4280    6.4720    9.5280 O.2    99  LEU99      -0.2867
     12  CB        89.5620    8.1570    7.8320 C.3    99  LEU99       0.0270
     13  CG        89.9680    9.4950    7.2190 C.3    99  LEU99       0.0019
     14  CD1       91.2970    9.8700    7.8960 C.3    99  LEU99       0.0001
     15  CD2       90.1990    9.4110    5.7150 C.3    99  LEU99       0.0001
     16  N         81.6570    3.1820   -3.7810 N.3   164  ASP164     -0.1225
     17  CA        81.4380    4.5030   -4.3860 C.3   164  ASP164      0.1805
     18  C         80.7890    4.3360   -5.7900 C.2   164  ASP164      0.2598
     19  O         80.4400    3.2390   -6.1790 O.2   164  ASP164     -0.2718
     20  CB        82.7480    5.2900   -4.4300 C.3   164  ASP164      0.1424
     21  CG        83.8290    4.6220   -5.3070 C.2   164  ASP164      0.3668
     22  OD1       83.5600    3.8080   -6.2140 O.co2 164  ASP164     -0.2456
     23  OD2       84.9810    4.9940   -5.1330 O.co2 164  ASP164     -0.2456
     24  N         80.6880    5.4250   -6.5500 N.am  165  ASP165     -0.1960
     25  CA        79.9330    5.3340   -7.7760 C.3   165  ASP165      0.1840
     26  C         80.7750    4.5840   -8.8510 C.2   165  ASP165      0.2622
     27  O         80.2540    4.1830   -9.8590 O.2   165  ASP165     -0.2715
     28  CB        79.4710    6.7270   -8.2680 C.3   165  ASP165      0.1450
     29  CG        78.5690    7.4770   -7.2470 C.2   165  ASP165      0.3671
     30  OD1       78.0640    6.8570   -6.2970 O.co2 165  ASP165     -0.2456
     31  OD2       78.3700    8.7210   -7.4220 O.co2 165  ASP165     -0.2456
     32  N         82.0760    4.4740   -8.6480 N.am  166  ASN166     -0.1972
     33  CA        82.9390    3.6540   -9.5050 C.3   166  ASN166      0.1688
     34  C         83.0310    2.1740   -9.0850 C.2   166  ASN166      0.2292
     35  O         83.9450    1.4560   -9.5420 O.2   166  ASN166     -0.2864
     36  CB        84.3360    4.2060   -9.4990 C.3   166  ASN166      0.1181
     37  CG        84.4510    5.4810  -10.2660 C.2   166  ASN166      0.2629
     38  OD1       84.3320    6.5500   -9.7070 O.2   166  ASN166     -0.2716
     39  ND2       84.7540    5.3810  -11.5360 N.am  166  ASN166     -0.0877
     40  N         85.7160    4.9050    3.6770 N.3   172  LEU172     -0.1245
     41  CA        85.1400    6.0250    4.4320 C.3   172  LEU172      0.1561
     42  C         83.8560    5.5160    5.0330 C.2   172  LEU172      0.2260
     43  O         83.1140    4.8030    4.3620 O.2   172  LEU172     -0.2867
     44  CB        84.7070    7.1940    3.5050 C.3   172  LEU172      0.0270
     45  CG        85.8560    7.6690    2.6110 C.3   172  LEU172      0.0019
     46  CD1       85.3980    8.7530    1.6190 C.3   172  LEU172      0.0001
     47  CD2       86.9810    8.2120    3.5140 C.3   172  LEU172      0.0001
     48  N         88.0380   14.2820    6.6870 N.3   217  ILE217     -0.1231
     49  CA        88.2340   13.5130    5.4760 C.3   217  ILE217      0.1692
     50  C         88.9120   14.5020    4.5120 C.2   217  ILE217      0.2592
     51  O         89.8600   14.1450    3.7820 O.2   217  ILE217     -0.2718
     52  CB        86.9020   13.0300    4.8730 C.3   217  ILE217      0.0266
     53  CG1       86.2970   11.9710    5.7500 C.3   217  ILE217      0.0019
     54  CG2       87.0920   12.4380    3.4800 C.3   217  ILE217      0.0020
     55  CD1       84.8780   11.7240    5.3120 C.3   217  ILE217      0.0001
     56  N         88.4470   15.7530    4.5260 N.am  218  THR218     -0.1953
     57  CA        89.1210   16.7740    3.7110 C.3   218  THR218      0.1897
     58  C         89.6960   17.8390    4.6620 C.2   218  THR218      0.2313
     59  O         88.9560   18.4490    5.4540 O.2   218  THR218     -0.2863
     60  CB        88.1930   17.3160    2.6110 C.3   218  THR218      0.1794
     61  OG1       87.2250   18.2070    3.1960 O.3   218  THR218     -0.2208
     62  CG2       87.4580   16.1280    1.9530 C.3   218  THR218      0.0378
     63  N         80.6620   15.1180   -2.3650 N.3   309  PHE309     -0.1227
     64  CA        81.7040   14.5950   -3.2350 C.3   309  PHE309      0.1736
     65  C         81.2240   14.2970   -4.6660 C.2   309  PHE309      0.2595
     66  O         82.0430   14.0790   -5.5350 O.2   309  PHE309     -0.2718
     67  CB        82.3300   13.3640   -2.5750 C.3   309  PHE309      0.0547
     68  CG        83.0200   13.6550   -1.2560 C.ar  309  PHE309     -0.0202
     69  CD1       83.9980   14.6720   -1.1620 C.ar  309  PHE309     -0.0042
     70  CD2       82.7330   12.8770   -0.1190 C.ar  309  PHE309     -0.0042
     71  CE1       84.6560   14.9270    0.0280 C.ar  309  PHE309     -0.0003
     72  CE2       83.4250   13.1130    1.1000 C.ar  309  PHE309     -0.0003
     73  CZ        84.3660   14.1510    1.1680 C.ar  309  PHE309     -0.0000
     74  N         79.9060   14.2700   -4.9290 N.am  310  ARG310     -0.1980
     75  CA        79.4170   13.9240   -6.2840 C.3   310  ARG310      0.1597
     76  C         79.3830   15.1600   -7.1270 C.2   310  ARG310      0.2287
     77  O         79.2760   16.2280   -6.5630 O.2   310  ARG310     -0.2864
     78  CB        77.9740   13.4340   -6.2180 C.3   310  ARG310      0.0334
     79  CG        77.8290   12.1630   -5.4230 C.3   310  ARG310      0.0492
     80  CD        76.6480   11.3440   -5.8860 C.3   310  ARG310      0.2205
     81  NE        76.9540    9.9800   -5.4550 N.pl3 310  ARG310     -0.0865
     82  CZ        76.6950    9.5050   -4.2630 C.cat 310  ARG310      0.5346
     83  NH1       76.0240   10.2440   -3.3280 N.pl3 310  ARG310      0.1354
     84  NH2       77.0960    8.2640   -4.0050 N.pl3 310  ARG310      0.1354
@<TRIPOS>BOND
     1    39    37   am
     2    37    38    2
     3    37    36    1
     4    27    26    2
     5    35    34    2
     6    33    36    1
     7    33    34    1
     8    33    32    1
     9    26    32   am
    10    26    25    1
    11    28    25    1
    12    28    29    1
    13    25    24    1
    14    31    29   ar
    15    29    30   ar
    16    76    77    2
    17    76    75    1
    18    24    18   am
    19    75    78    1
    20    75    74    1
    21    78    79    1
    22    22    21   ar
    23    19    18    2
    24    80    81    1
    25    80    79    1
    26    18    17    1
    27    66    65    2
    28    81    82    2
    29    21    23   ar
    30    21    20    1
    31    74    65   am
    32    65    64    1
    33    20    17    1
    34    17    16    1
    35    82    84    1
    36    82    83    1
    37    64    67    1
    38    64    63    1
    39    67    68    1
    40    68    69   ar
    41    68    70   ar
    42    69    71   ar
    43    70    72   ar
    44    71    73   ar
    45    72    73   ar
    46    46    45    1
    47    62    60    1
    48     7     6    1
    49     7     1    1
    50     6     5    1
    51    45    44    1
    52    45    47    1
    53    60    61    1
    54    60    57    1
    55     1     2    1
    56     5     2    1
    57    54    52    1
    58    44    41    1
    59    40    41    1
    60    57    56    1
    61    57    58    1
    62    51    50    2
    63     2     3    1
    64    43    42    2
    65    41    42    1
    66    50    56   am
    67    50    49    1
    68    58    59    2
    69    52    49    1
    70    52    53    1
    71     4     3    2
    72    55    53    1
    73    49    48    1
    74    15    13    1
    75    13    12    1
    76    13    14    1
    77     9    12    1
    78     9     8    1
    79     9    10    1
    80    10    11    2
