@<TRIPOS>MOLECULE
tmp/4b2xB00.pdb
 127 124 0 0 0
SMALL
GASTEIGER

@<TRIPOS>ATOM
      1  N         27.7280  -16.5200   50.4360 N.3    50  SER50      -0.1217
      2  CA        28.6910  -17.3220   51.1790 C.3    50  SER50       0.1889
      3  C         27.9660  -18.3980   51.9910 C.2    50  SER50       0.2288
      4  O         28.4660  -19.5070   52.1770 O.2    50  SER50      -0.2866
      5  CB        29.5460  -16.4390   52.0890 C.3    50  SER50       0.2089
      6  OG        30.4690  -15.6500   51.3470 O.3    50  SER50      -0.2183
      7  N         28.7090  -22.2810   51.6760 N.3    54  LEU54      -0.1245
      8  CA        29.0500  -23.1330   52.8230 C.3    54  LEU54       0.1561
      9  C         28.1500  -24.3750   52.9340 C.2    54  LEU54       0.2260
     10  O         28.5790  -25.3940   53.4860 O.2    54  LEU54      -0.2867
     11  CB        29.0240  -22.3370   54.1360 C.3    54  LEU54       0.0270
     12  CG        29.5830  -23.1080   55.3400 C.3    54  LEU54       0.0019
     13  CD1       31.0760  -23.3550   55.1660 C.3    54  LEU54       0.0001
     14  CD2       29.3210  -22.3880   56.6540 C.3    54  LEU54       0.0001
     15  N         24.7300  -14.4930   58.4200 N.3   122  TYR122     -0.1227
     16  CA        24.8650  -15.5420   59.4330 C.3   122  TYR122      0.1736
     17  C         26.3210  -15.6320   59.8530 C.2   122  TYR122      0.2595
     18  O         27.2210  -15.5430   59.0080 O.2   122  TYR122     -0.2718
     19  CB        24.4190  -16.9010   58.8930 C.3   122  TYR122      0.0548
     20  CG        22.9560  -16.9470   58.5230 C.ar  122  TYR122     -0.0200
     21  CD1       21.9930  -17.2300   59.4770 C.ar  122  TYR122     -0.0009
     22  CD2       22.5390  -16.6820   57.2240 C.ar  122  TYR122     -0.0009
     23  CE1       20.6350  -17.2620   59.1430 C.ar  122  TYR122      0.0417
     24  CE2       21.1940  -16.6930   56.8800 C.ar  122  TYR122      0.0417
     25  CZ        20.2470  -16.9900   57.8300 C.ar  122  TYR122      0.1957
     26  OH        18.9070  -16.9950   57.4600 O.3   122  TYR122     -0.2866
     27  N         26.5410  -15.8190   61.1540 N.am  123  TYR123     -0.1962
     28  CA        27.8880  -16.0270   61.6780 C.3   123  TYR123      0.1771
     29  C         27.8580  -17.0240   62.8400 C.2   123  TYR123      0.2620
     30  O         27.0270  -16.9380   63.7150 O.2   123  TYR123     -0.2715
     31  CB        28.5030  -14.7070   62.1400 C.3   123  TYR123      0.0574
     32  CG        29.7210  -14.8790   63.0260 C.ar  123  TYR123     -0.0198
     33  CD1       30.9910  -14.9810   62.4790 C.ar  123  TYR123     -0.0009
     34  CD2       29.5970  -14.9850   64.4230 C.ar  123  TYR123     -0.0009
     35  CE1       32.1030  -15.1660   63.2820 C.ar  123  TYR123      0.0417
     36  CE2       30.7070  -15.1590   65.2300 C.ar  123  TYR123      0.0417
     37  CZ        31.9580  -15.2550   64.6560 C.ar  123  TYR123      0.1957
     38  OH        33.0620  -15.4420   65.4820 O.3   123  TYR123     -0.2866
     39  N         28.7900  -17.9680   62.8280 N.am  124  GLY124     -0.1954
     40  CA        29.0310  -18.8140   63.9940 C.3   124  GLY124      0.1869
     41  C         29.8080  -20.0720   63.7010 C.2   124  GLY124      0.2309
     42  O         30.1700  -20.3490   62.5600 O.2   124  GLY124     -0.2863
     43  N         28.8220  -23.8150   61.4500 N.3   127  PHE127     -0.1227
     44  CA        27.7020  -23.4600   60.6000 C.3   127  PHE127      0.1736
     45  C         27.6510  -24.4110   59.4030 C.2   127  PHE127      0.2595
     46  O         26.5780  -24.7190   58.8940 O.2   127  PHE127     -0.2718
     47  CB        27.8140  -21.9980   60.1520 C.3   127  PHE127      0.0547
     48  CG        26.5540  -21.4520   59.5620 C.ar  127  PHE127     -0.0202
     49  CD1       25.3690  -21.4950   60.2770 C.ar  127  PHE127     -0.0042
     50  CD2       26.5510  -20.8850   58.3020 C.ar  127  PHE127     -0.0042
     51  CE1       24.1990  -20.9900   59.7410 C.ar  127  PHE127     -0.0003
     52  CE2       25.3860  -20.3730   57.7560 C.ar  127  PHE127     -0.0003
     53  CZ        24.2080  -20.4260   58.4770 C.ar  127  PHE127     -0.0000
     54  N         28.8200  -24.8890   58.9830 N.am  128  HIS128     -0.1975
     55  CA        28.9320  -25.9510   57.9760 C.3   128  HIS128      0.1656
     56  C         28.1980  -27.2120   58.3700 C.2   128  HIS128      0.2291
     57  O         27.5160  -27.8130   57.5400 O.2   128  HIS128     -0.2864
     58  CB        30.4070  -26.2600   57.7190 C.3   128  HIS128      0.0771
     59  CG        30.6440  -27.2880   56.6370 C.ar  128  HIS128      0.0820
     60  ND1       30.7720  -28.6030   56.9010 N.ar  128  HIS128     -0.2267
     61  CD2       30.7850  -27.1490   55.2570 C.ar  128  HIS128      0.1154
     62  CE1       30.9740  -29.2730   55.7520 C.ar  128  HIS128      0.1986
     63  NE2       30.9850  -28.3820   54.7460 N.ar  128  HIS128     -0.2212
     64  N         38.4390  -12.8230   57.2750 N.3   258  LYS258     -0.1231
     65  CA        37.2360  -12.1890   56.7760 C.3   258  LYS258      0.1693
     66  C         36.0290  -13.0800   56.9630 C.2   258  LYS258      0.2592
     67  O         36.1260  -14.3090   56.9190 O.2   258  LYS258     -0.2718
     68  CB        37.3830  -11.8280   55.3040 C.3   258  LYS258      0.0285
     69  CG        38.2740  -10.6340   55.0790 C.3   258  LYS258      0.0035
     70  CD        38.1830  -10.1360   53.6470 C.3   258  LYS258      0.0206
     71  CE        39.2160   -9.0590   53.4010 C.3   258  LYS258      0.1093
     72  NZ        38.9670   -7.8360   54.2120 N.3   258  LYS258     -0.1314
     73  N         34.8790  -12.4470   57.1660 N.am  259  VAL259     -0.1966
     74  CA        33.6020  -13.1440   57.1650 C.3   259  VAL259      0.1727
     75  C         32.9850  -12.9990   55.7710 C.2   259  VAL259      0.2616
     76  O         32.8810  -11.9000   55.2590 O.2   259  VAL259     -0.2715
     77  CB        32.6140  -12.5460   58.1940 C.3   259  VAL259      0.0290
     78  CG1       31.2850  -13.2950   58.1730 C.3   259  VAL259      0.0023
     79  CG2       33.2160  -12.5640   59.5930 C.3   259  VAL259      0.0023
     80  N         32.5830  -14.1180   55.1860 N.am  260  ALA260     -0.1963
     81  CA        31.8700  -14.1430   53.9010 C.3   260  ALA260      0.1728
     82  C         32.7150  -13.6560   52.7360 C.2   260  ALA260      0.2616
     83  O         32.2930  -12.8090   51.9580 O.2   260  ALA260     -0.2715
     84  CB        30.5880  -13.3300   53.9760 C.3   260  ALA260      0.0334
     85  N         33.9230  -14.1930   52.6270 N.am  261  CYS261     -0.1968
     86  CA        34.7810  -13.9530   51.4690 C.3   261  CYS261      0.1712
     87  C         34.5530  -15.1100   50.4870 C.2   261  CYS261      0.2296
     88  O         34.9780  -16.2300   50.7590 O.2   261  CYS261     -0.2864
     89  CB        36.2430  -13.8900   51.9390 C.3   261  CYS261      0.0983
     90  SG        37.4560  -13.6710   50.6150 S.3   261  CYS261     -0.0798
     91  N         37.6820  -17.0160   49.2140 N.3   264  GLU264     -0.1231
     92  CA        38.2120  -17.8920   50.2560 C.3   264  GLU264      0.1699
     93  C         37.4100  -19.1720   50.3770 C.2   264  GLU264      0.2592
     94  O         37.9710  -20.2630   50.4620 O.2   264  GLU264     -0.2718
     95  CB        38.2180  -17.1790   51.6150 C.3   264  GLU264      0.0402
     96  CG        38.6840  -18.0800   52.7350 C.3   264  GLU264      0.1161
     97  CD        38.9220  -17.3610   54.0510 C.2   264  GLU264      0.3649
     98  OE1       38.4930  -16.1930   54.2050 O.co2 264  GLU264     -0.2457
     99  OE2       39.5390  -18.0010   54.9400 O.co2 264  GLU264     -0.2457
    100  N         36.0870  -19.0410   50.4420 N.am  265  ILE265     -0.1980
    101  CA        35.2360  -20.1990   50.5930 C.3   265  ILE265      0.1595
    102  C         35.3710  -21.1560   49.4020 C.2   265  ILE265      0.2287
    103  O         35.5110  -22.3590   49.5900 O.2   265  ILE265     -0.2864
    104  CB        33.7750  -19.8110   50.8190 C.3   265  ILE265      0.0276
    105  CG1       33.6590  -19.0770   52.1550 C.3   265  ILE265      0.0022
    106  CG2       32.8950  -21.0430   50.7820 C.3   265  ILE265      0.0022
    107  CD1       32.3190  -18.4170   52.3750 C.3   265  ILE265      0.0001
    108  N         38.7300  -22.9340   49.7720 N.3   268  ARG268     -0.1231
    109  CA        38.6820  -23.9550   50.8090 C.3   268  ARG268      0.1694
    110  C         37.8380  -25.1680   50.4280 C.2   268  ARG268      0.2591
    111  O         38.1470  -26.2830   50.8510 O.2   268  ARG268     -0.2718
    112  CB        38.2210  -23.3470   52.1310 C.3   268  ARG268      0.0321
    113  CG        39.2150  -22.3220   52.6360 C.3   268  ARG268      0.0489
    114  CD        39.0720  -22.0410   54.1180 C.3   268  ARG268      0.2205
    115  NE        39.9280  -20.9190   54.4600 N.pl3 268  ARG268     -0.0865
    116  CZ        41.2500  -20.9800   54.6150 C.cat 268  ARG268      0.5346
    117  NH1       41.9120  -22.1340   54.5010 N.pl3 268  ARG268      0.1354
    118  NH2       41.9140  -19.8800   54.9120 N.pl3 268  ARG268      0.1354
    119  N         36.7880  -24.9560   49.6320 N.am  269  GLN269     -0.1979
    120  CA        35.9270  -26.0340   49.1520 C.3   269  GLN269      0.1601
    121  C         36.5710  -26.7930   47.9810 C.2   269  GLN269      0.2287
    122  O         35.9980  -27.7600   47.4870 O.2   269  GLN269     -0.2864
    123  CB        34.5710  -25.4810   48.6850 C.3   269  GLN269      0.0394
    124  CG        33.6970  -24.8670   49.7750 C.3   269  GLN269      0.0908
    125  CD        32.9270  -25.8940   50.5720 C.2   269  GLN269      0.2608
    126  OE1       33.4930  -26.8770   51.0470 O.2   269  GLN269     -0.2717
    127  NE2       31.6260  -25.6610   50.7430 N.am  269  GLN269     -0.0878
@<TRIPOS>BOND
     1   122   121    2
     2   121   120    1
     3   123   120    1
     4   123   124    1
     5   120   119    1
     6    91    92    1
     7   102   103    2
     8   102   101    1
     9   119   110   am
    10   108   109    1
    11   124   125    1
    12    92    93    1
    13    92    95    1
    14    93   100   am
    15    93    94    2
    16   110   109    1
    17   110   111    2
    18     1     2    1
    19   100   101    1
    20    87    88    2
    21    87    86    1
    22   125   127   am
    23   125   126    2
    24   101   104    1
    25    90    89    1
    26   106   104    1
    27   109   112    1
    28   104   105    1
    29     2     3    1
    30     2     5    1
    31     6     5    1
    32    86    89    1
    33    86    85    1
    34    95    96    1
    35     7     8    1
    36    83    82    2
    37     3     4    2
    38   112   113    1
    39   105   107    1
    40    85    82   am
    41   113   114    1
    42    96    97    1
    43    82    81    1
    44     8     9    1
    45     8    11    1
    46     9    10    2
    47    71    70    1
    48    71    72    1
    49    70    69    1
    50    81    84    1
    51    81    80    1
    52    97    98   ar
    53    97    99   ar
    54   114   115    1
    55    11    12    1
    56   115   116    2
    57   117   116    1
    58   116   118    1
    59    63    61   ar
    60    63    62   ar
    61    69    68    1
    62    13    12    1
    63    80    75   am
    64    61    59   ar
    65    76    75    2
    66    68    65    1
    67    12    14    1
    68    62    60   ar
    69    75    74    1
    70    59    60   ar
    71    59    58    1
    72    65    66    1
    73    65    64    1
    74    24    22   ar
    75    24    25   ar
    76    67    66    2
    77    66    73   am
    78    74    73    1
    79    74    77    1
    80    22    20   ar
    81    26    25    1
    82    57    56    2
    83    58    55    1
    84    52    50   ar
    85    52    53   ar
    86    25    23   ar
    87    55    56    1
    88    55    54    1
    89    78    77    1
    90    77    79    1
    91    50    48   ar
    92    15    16    1
    93    53    51   ar
    94    20    19    1
    95    20    21   ar
    96    19    16    1
    97    46    45    2
    98    54    45   am
    99    18    17    2
   100    23    21   ar
   101    45    44    1
   102    16    17    1
   103    48    47    1
   104    48    49   ar
   105    51    49   ar
   106    17    27   am
   107    47    44    1
   108    44    43    1
   109    27    28    1
   110    28    31    1
   111    28    29    1
   112    31    32    1
   113    33    32   ar
   114    33    35   ar
   115    42    41    2
   116    39    29   am
   117    39    40    1
   118    29    30    2
   119    32    34   ar
   120    35    37   ar
   121    41    40    1
   122    34    36   ar
   123    37    36   ar
   124    37    38    1
