@<TRIPOS>MOLECULE
tmp/4b2zA01.pdb
 114 113 0 0 0
SMALL
GASTEIGER

@<TRIPOS>ATOM
      1  N         29.6890  -10.9750   36.7060 N.3   356  TYR356     -0.1241
      2  CA        30.0220  -11.2950   38.0990 C.3   356  TYR356      0.1605
      3  C         30.3250  -10.0560   38.9540 C.2   356  TYR356      0.2264
      4  O         30.1510  -10.0630   40.1750 O.2   356  TYR356     -0.2867
      5  CB        31.2130  -12.2570   38.1520 C.3   356  TYR356      0.0534
      6  CG        32.5580  -11.5750   37.9960 C.ar  356  TYR356     -0.0201
      7  CD1       33.2200  -11.0290   39.0990 C.ar  356  TYR356     -0.0009
      8  CD2       33.1700  -11.4770   36.7520 C.ar  356  TYR356     -0.0009
      9  CE1       34.4570  -10.3950   38.9580 C.ar  356  TYR356      0.0417
     10  CE2       34.4110  -10.8440   36.6030 C.ar  356  TYR356      0.0417
     11  CZ        35.0430  -10.3100   37.7100 C.ar  356  TYR356      0.1957
     12  OH        36.2690   -9.7010   37.5540 O.3   356  TYR356     -0.2866
     13  N         35.9780   -2.0480   33.2140 N.3   373  LEU373     -0.1231
     14  CA        37.2190   -2.2350   32.4660 C.3   373  LEU373      0.1693
     15  C         38.1570   -3.2250   33.1620 C.2   373  LEU373      0.2592
     16  O         39.1280   -3.7080   32.5630 O.2   373  LEU373     -0.2718
     17  CB        37.9060   -0.8860   32.2360 C.3   373  LEU373      0.0284
     18  CG        37.1630    0.1340   31.3700 C.3   373  LEU373      0.0019
     19  CD1       38.0220    1.3990   31.2000 C.3   373  LEU373      0.0001
     20  CD2       36.8710   -0.4610   30.0250 C.3   373  LEU373      0.0001
     21  N         37.8670   -3.5200   34.4300 N.am  374  GLN374     -0.1966
     22  CA        38.6330   -4.5100   35.1920 C.3   374  GLN374      0.1733
     23  C         38.1000   -5.9210   34.9730 C.2   374  GLN374      0.2616
     24  O         38.7430   -6.9040   35.3570 O.2   374  GLN374     -0.2715
     25  CB        38.5730   -4.2030   36.6870 C.3   374  GLN374      0.0408
     26  CG        39.3900   -2.9880   37.1100 C.3   374  GLN374      0.0908
     27  CD        39.1190   -2.5900   38.5440 C.2   374  GLN374      0.2608
     28  OE1       38.2720   -3.1860   39.2200 O.2   374  GLN374     -0.2717
     29  NE2       39.8330   -1.5730   39.0180 N.am  374  GLN374     -0.0878
     30  N         36.9110   -6.0240   34.3900 N.am  375  ILE375     -0.1963
     31  CA        36.3130   -7.3460   34.1650 C.3   375  ILE375      0.1727
     32  C         37.0470   -8.1020   33.0730 C.2   375  ILE375      0.2616
     33  O         37.3530   -9.2890   33.2380 O.2   375  ILE375     -0.2715
     34  CB        34.8450   -7.2540   33.7890 C.3   375  ILE375      0.0290
     35  CG1       34.0600   -6.5980   34.9280 C.3   375  ILE375      0.0022
     36  CG2       34.3030   -8.6460   33.4420 C.3   375  ILE375      0.0023
     37  CD1       32.6230   -6.2310   34.5360 C.3   375  ILE375      0.0001
     38  N         37.3370   -7.4020   31.9710 N.am  376  ALA376     -0.1964
     39  CA        37.9990   -7.9980   30.8100 C.3   376  ALA376      0.1713
     40  C         38.5670   -6.9060   29.9260 C.2   376  ALA376      0.2458
     41  O         38.0970   -5.7690   29.9810 O.2   376  ALA376     -0.2730
     42  CB        36.9950   -8.8320   30.0110 C.3   376  ALA376      0.0333
     43  N         39.5690   -7.2400   29.0900 N.am  377  PRO377     -0.2727
     44  CA        40.0550   -6.2390   28.1400 C.3   377  PRO377      0.1402
     45  C         38.9480   -5.8390   27.1680 C.2   377  PRO377      0.2269
     46  O         38.3590   -6.6960   26.5030 O.2   377  PRO377     -0.2865
     47  CB        41.1540   -6.9810   27.3790 C.3   377  PRO377      0.0296
     48  CG        41.5340   -8.1240   28.2350 C.3   377  PRO377      0.0237
     49  CD        40.2880   -8.5140   28.9600 C.3   377  PRO377      0.0939
     50  N         44.3530   -2.5580   26.5280 N.3   382  GLN382     -0.1231
     51  CA        44.1580   -3.2840   27.7830 C.3   382  GLN382      0.1698
     52  C         44.8460   -4.6450   27.7400 C.2   382  GLN382      0.2592
     53  O         45.0930   -5.1950   26.6720 O.2   382  GLN382     -0.2718
     54  CB        42.6790   -3.4340   28.1370 C.3   382  GLN382      0.0381
     55  CG        42.0230   -2.1450   28.6190 C.3   382  GLN382      0.0905
     56  CD        40.6540   -2.4130   29.1950 C.2   382  GLN382      0.2608
     57  OE1       39.6410   -2.3280   28.4940 O.2   382  GLN382     -0.2717
     58  NE2       40.6120   -2.7660   30.4720 N.am  382  GLN382     -0.0878
     59  N         45.1460   -5.1860   28.9110 N.am  383  GLN383     -0.1966
     60  CA        45.8960   -6.4270   28.9920 C.3   383  GLN383      0.1733
     61  C         45.1180   -7.4700   29.7710 C.2   383  GLN383      0.2616
     62  O         44.2970   -7.1290   30.6220 O.2   383  GLN383     -0.2715
     63  CB        47.2450   -6.1850   29.6830 C.3   383  GLN383      0.0408
     64  CG        48.3430   -5.6540   28.7670 C.3   383  GLN383      0.0908
     65  CD        49.7260   -5.7980   29.3790 C.2   383  GLN383      0.2608
     66  OE1       49.8830   -5.8030   30.6020 O.2   383  GLN383     -0.2717
     67  NE2       50.7380   -5.9240   28.5280 N.am  383  GLN383     -0.0878
     68  N         45.3860   -8.7400   29.4800 N.am  384  PHE384     -0.1960
     69  CA        44.8620   -9.8360   30.2830 C.3   384  PHE384      0.1771
     70  C         45.7310  -10.0130   31.5190 C.2   384  PHE384      0.2620
     71  O         46.9110   -9.6470   31.5110 O.2   384  PHE384     -0.2715
     72  CB        44.8820  -11.1460   29.4940 C.3   384  PHE384      0.0574
     73  CG        43.8970  -11.1980   28.3680 C.ar  384  PHE384     -0.0200
     74  CD1       44.2560  -10.7630   27.0990 C.ar  384  PHE384     -0.0042
     75  CD2       42.6080  -11.6920   28.5760 C.ar  384  PHE384     -0.0042
     76  CE1       43.3570  -10.8180   26.0620 C.ar  384  PHE384     -0.0003
     77  CE2       41.7080  -11.7530   27.5410 C.ar  384  PHE384     -0.0003
     78  CZ        42.0750  -11.3160   26.2840 C.ar  384  PHE384     -0.0000
     79  N         45.1350  -10.5620   32.5760 N.am  385  THR385     -0.1951
     80  CA        45.8820  -11.0490   33.7320 C.3   385  THR385      0.1897
     81  C         45.3060  -12.3980   34.1260 C.2   385  THR385      0.2313
     82  O         44.2530  -12.8080   33.6220 O.2   385  THR385     -0.2863
     83  CB        45.7760  -10.1100   34.9430 C.3   385  THR385      0.1794
     84  OG1       44.5170  -10.3120   35.5990 O.3   385  THR385     -0.2208
     85  CG2       45.9070   -8.6510   34.5160 C.3   385  THR385      0.0378
     86  N         43.7220  -13.2010   36.6640 N.3   387  LYS387     -0.1231
     87  CA        42.3880  -13.0670   37.2460 C.3   387  LYS387      0.1693
     88  C         41.2890  -13.3440   36.2160 C.2   387  LYS387      0.2592
     89  O         40.2520  -13.9260   36.5400 O.2   387  LYS387     -0.2718
     90  CB        42.2010  -11.6720   37.8440 C.3   387  LYS387      0.0285
     91  CG        40.8660  -11.4780   38.5440 C.3   387  LYS387      0.0035
     92  CD        40.8110  -10.1200   39.2210 C.3   387  LYS387      0.0206
     93  CE        39.4740   -9.8930   39.8990 C.3   387  LYS387      0.1093
     94  NZ        39.4270   -8.5290   40.4790 N.3   387  LYS387     -0.1314
     95  N         41.5260  -12.9180   34.9770 N.am  388  PHE388     -0.1976
     96  CA        40.5350  -13.0620   33.9210 C.3   388  PHE388      0.1639
     97  C         40.1190  -14.5150   33.7900 C.2   388  PHE388      0.2290
     98  O         38.9490  -14.8100   33.5730 O.2   388  PHE388     -0.2864
     99  CB        41.0870  -12.5710   32.5830 C.3   388  PHE388      0.0560
    100  CG        40.1670  -12.8220   31.4200 C.ar  388  PHE388     -0.0200
    101  CD1       39.1550  -11.9160   31.1100 C.ar  388  PHE388     -0.0042
    102  CD2       40.3150  -13.9550   30.6350 C.ar  388  PHE388     -0.0042
    103  CE1       38.3040  -12.1380   30.0380 C.ar  388  PHE388     -0.0003
    104  CE2       39.4690  -14.1820   29.5590 C.ar  388  PHE388     -0.0003
    105  CZ        38.4520  -13.2700   29.2650 C.ar  388  PHE388     -0.0000
    106  N         35.6580  -15.5630   41.9050 N.3   395  LYS395     -0.1245
    107  CA        35.8550  -14.1180   41.9950 C.3   395  LYS395      0.1561
    108  C         34.7550  -13.4120   42.7940 C.2   395  LYS395      0.2260
    109  O         34.9780  -12.3350   43.3370 O.2   395  LYS395     -0.2867
    110  CB        36.0180  -13.5020   40.5970 C.3   395  LYS395      0.0271
    111  CG        37.3470  -13.8430   39.9430 C.3   395  LYS395      0.0035
    112  CD        37.5090  -13.2120   38.5650 C.3   395  LYS395      0.0206
    113  CE        36.5870  -13.8590   37.5430 C.3   395  LYS395      0.1093
    114  NZ        37.1090  -13.7240   36.1530 N.3   395  LYS395     -0.1314
@<TRIPOS>BOND
     1    76    78   ar
     2    76    74   ar
     3    78    77   ar
     4    46    45    2
     5    50    51    1
     6    53    52    2
     7    74    73   ar
     8    45    44    1
     9    47    44    1
    10    47    48    1
    11    77    75   ar
    12    52    51    1
    13    52    59   am
    14    51    54    1
    15    54    55    1
    16    44    43    1
    17    48    49    1
    18    73    75   ar
    19    73    72    1
    20    57    56    2
    21    67    65   am
    22    55    56    1
    23    64    65    1
    24    64    63    1
    25    59    60    1
    26    49    43    1
    27    60    63    1
    28    60    61    1
    29    43    40   am
    30    56    58   am
    31   105   104   ar
    32   105   103   ar
    33    65    66    2
    34    68    61   am
    35    68    69    1
    36    72    69    1
    37   104   102   ar
    38    61    62    2
    39    40    41    2
    40    40    39    1
    41    42    39    1
    42    20    18    1
    43   103   101   ar
    44    69    70    1
    45   102   100   ar
    46    39    38    1
    47   101   100   ar
    48    19    18    1
    49    18    17    1
    50   100    99    1
    51    71    70    2
    52    70    79   am
    53    38    32   am
    54    17    14    1
    55    14    15    1
    56    14    13    1
    57    16    15    2
    58    79    80    1
    59    99    96    1
    60    32    33    2
    61    32    31    1
    62    15    21   am
    63    36    34    1
    64    98    97    2
    65    82    81    2
    66    80    81    1
    67    80    83    1
    68    34    31    1
    69    34    35    1
    70    97    96    1
    71    96    95    1
    72    31    30    1
    73    30    23   am
    74    21    22    1
    75    85    83    1
    76    37    35    1
    77    83    84    1
    78    23    22    1
    79    23    24    2
    80    95    88   am
    81    22    25    1
    82   114   113    1
    83    88    89    2
    84    88    87    1
    85    10     8   ar
    86    10    11   ar
    87    86    87    1
    88    25    26    1
    89     1     2    1
    90     8     6   ar
    91    26    27    1
    92    87    90    1
    93   113   112    1
    94    12    11    1
    95    11     9   ar
    96    90    91    1
    97     6     5    1
    98     6     7   ar
    99     2     5    1
   100     2     3    1
   101    91    92    1
   102    27    29   am
   103    27    28    2
   104   112   111    1
   105     3     4    2
   106     9     7   ar
   107    92    93    1
   108    93    94    1
   109   111   110    1
   110   110   107    1
   111   106   107    1
   112   107   108    1
   113   108   109    2
