@<TRIPOS>MOLECULE
tmp/4b3cA00.pdb
 90 87 0 0 0
SMALL
GASTEIGER

@<TRIPOS>ATOM
      1  N          8.5710   17.7170   13.4380 N.3    62  MET62      -0.1230
      2  CA         9.1820   17.1020   14.6220 C.3    62  MET62       0.1702
      3  C         10.2460   16.0900   14.1500 C.2    62  MET62       0.2592
      4  O          9.9630   15.2820   13.2560 O.2    62  MET62      -0.2718
      5  CB         8.1200   16.4360   15.5060 C.3    62  MET62       0.0401
      6  CG         7.1470   17.4370   16.1710 C.3    62  MET62       0.0596
      7  SD         6.1350   16.7800   17.5140 S.3    62  MET62      -0.1393
      8  CE         7.3320   16.7000   18.8470 C.3    62  MET62       0.0692
      9  N         11.4580   16.1670   14.7140 N.am   63  TRP63      -0.1962
     10  CA        12.6260   15.3710   14.2450 C.3    63  TRP63       0.1771
     11  C         13.3140   14.5540   15.3570 C.2    63  TRP63       0.2619
     12  O         13.8520   15.1290   16.3200 O.2    63  TRP63      -0.2715
     13  CB        13.6650   16.3180   13.5870 C.3    63  TRP63       0.0590
     14  CG        14.8570   15.6770   12.8620 C.ar   63  TRP63       0.0006
     15  CD1       15.7170   14.7280   13.3600 C.ar   63  TRP63       0.0946
     16  CD2       15.3320   15.9760   11.5200 C.ar   63  TRP63       0.0152
     17  NE1       16.6750   14.4090   12.4110 N.ar   63  TRP63      -0.2442
     18  CE2       16.4610   15.1580   11.2870 C.ar   63  TRP63       0.0810
     19  CE3       14.8950   16.8390   10.5030 C.ar   63  TRP63       0.0012
     20  CZ2       17.1620   15.1790   10.0690 C.ar   63  TRP63       0.0191
     21  CZ3       15.6020   16.8660    9.2940 C.ar   63  TRP63       0.0001
     22  CH2       16.7250   16.0430    9.0940 C.ar   63  TRP63       0.0015
     23  N         13.3300   13.2260   15.2200 N.am   64  ILE64      -0.1977
     24  CA        14.0700   12.3570   16.1440 C.3    64  ILE64       0.1596
     25  C         15.3900   11.8640   15.5240 C.2    64  ILE64       0.2287
     26  O         15.3640   11.1100   14.5500 O.2    64  ILE64      -0.2864
     27  CB        13.2460   11.1010   16.5770 C.3    64  ILE64       0.0276
     28  CG1       12.0010   11.5010   17.3840 C.3    64  ILE64       0.0022
     29  CG2       14.1090   10.1900   17.4160 C.3    64  ILE64       0.0022
     30  CD1       11.0000   10.3770   17.6180 C.3    64  ILE64       0.0001
     31  N         10.9770   21.0190   15.6900 N.3    94  ALA94      -0.1231
     32  CA        11.2640   20.5910   17.0690 C.3    94  ALA94       0.1694
     33  C         12.2160   19.3830   17.0980 C.2    94  ALA94       0.2592
     34  O         11.8790   18.3160   16.5990 O.2    94  ALA94      -0.2718
     35  CB         9.9580   20.2710   17.8310 C.3    94  ALA94       0.0304
     36  N         13.3840   19.5460   17.7120 N.am   95  TYR95      -0.1962
     37  CA        14.4720   18.5600   17.6170 C.3    95  TYR95       0.1771
     38  C         14.8150   17.8280   18.9420 C.2    95  TYR95       0.2619
     39  O         14.9470   18.4550   19.9910 O.2    95  TYR95      -0.2715
     40  CB        15.7280   19.2500   17.0220 C.3    95  TYR95       0.0574
     41  CG        16.9890   18.3930   16.9730 C.ar   95  TYR95      -0.0198
     42  CD1       17.1320   17.3780   16.0340 C.ar   95  TYR95      -0.0009
     43  CD2       18.0400   18.6090   17.8630 C.ar   95  TYR95      -0.0009
     44  CE1       18.2830   16.5810   15.9930 C.ar   95  TYR95       0.0417
     45  CE2       19.2030   17.8160   17.8220 C.ar   95  TYR95       0.0417
     46  CZ        19.3190   16.8060   16.8850 C.ar   95  TYR95       0.1957
     47  OH        20.4650   16.0200   16.8260 O.3    95  TYR95      -0.2866
     48  N         14.9520   16.5000   18.8800 N.am   96  ALA96      -0.1977
     49  CA        15.4160   15.6960   20.0200 C.3    96  ALA96       0.1597
     50  C         16.3860   14.5950   19.5790 C.2    96  ALA96       0.2287
     51  O         16.2320   14.0210   18.5050 O.2    96  ALA96      -0.2864
     52  CB        14.2430   15.0870   20.7710 C.3    96  ALA96       0.0319
     53  N         10.1950    8.9490   23.2940 N.3   107  LEU107     -0.1245
     54  CA        10.0920   10.2160   22.5310 C.3   107  LEU107      0.1561
     55  C          8.8770   10.2740   21.5850 C.2   107  LEU107      0.2260
     56  O          8.2560   11.3270   21.4190 O.2   107  LEU107     -0.2867
     57  CB        11.3880   10.5250   21.7720 C.3   107  LEU107      0.0270
     58  CG        12.5500   11.0750   22.6180 C.3   107  LEU107      0.0019
     59  CD1       13.8800   11.0070   21.8690 C.3   107  LEU107      0.0001
     60  CD2       12.2600   12.5000   23.0750 C.3   107  LEU107      0.0001
     61  N          5.9060   11.1240   23.7480 N.3   110  GLN110     -0.1231
     62  CA         6.0100   12.5360   24.1300 C.3   110  GLN110      0.1698
     63  C          5.6440   13.4670   22.9760 C.2   110  GLN110      0.2592
     64  O          5.1050   14.5680   23.1830 O.2   110  GLN110     -0.2718
     65  CB         7.4490   12.8360   24.5580 C.3   110  GLN110      0.0381
     66  CG         7.6470   13.2140   26.0050 C.3   110  GLN110      0.0905
     67  CD         9.1080   13.4530   26.3210 C.2   110  GLN110      0.2608
     68  OE1        9.9710   12.6350   25.9900 O.2   110  GLN110     -0.2717
     69  NE2        9.3980   14.5820   26.9560 N.am  110  GLN110     -0.0878
     70  N          5.9660   13.0430   21.7570 N.am  111  ALA111     -0.1980
     71  CA         5.6130   13.8210   20.5640 C.3   111  ALA111      0.1597
     72  C          4.1050   14.0910   20.5190 C.2   111  ALA111      0.2287
     73  O          3.6790   15.1640   20.0960 O.2   111  ALA111     -0.2864
     74  CB         6.0630   13.1040   19.2900 C.3   111  ALA111      0.0319
     75  N          2.8800   17.5880   21.9470 N.3   114  MET114     -0.1245
     76  CA         3.0990   18.7730   21.1270 C.3   114  MET114      0.1570
     77  C          2.1670   18.7750   19.9140 C.2   114  MET114      0.2261
     78  O          1.6810   19.8270   19.4820 O.2   114  MET114     -0.2867
     79  CB         4.5610   18.8640   20.6890 C.3   114  MET114      0.0387
     80  CG         4.8930   20.1590   19.9780 C.3   114  MET114      0.0595
     81  SD         6.6170   20.2840   19.4620 S.3   114  MET114     -0.1393
     82  CE         6.5920   21.8920   18.6660 C.3   114  MET114      0.0692
     83  N          6.7650   14.0680   10.6390 N.3   128  LEU128     -0.1245
     84  CA         7.5320   13.4790   11.7370 C.3   128  LEU128      0.1561
     85  C          8.6490   12.6080   11.1840 C.2   128  LEU128      0.2260
     86  O          8.3640   11.5930   10.5390 O.2   128  LEU128     -0.2867
     87  CB         6.6270   12.6350   12.6550 C.3   128  LEU128      0.0270
     88  CG         7.2690   11.7650   13.7610 C.3   128  LEU128      0.0019
     89  CD1        8.2100   12.5540   14.6540 C.3   128  LEU128      0.0001
     90  CD2        6.1890   11.0750   14.6260 C.3   128  LEU128      0.0001
@<TRIPOS>BOND
     1    22    21   ar
     2    22    20   ar
     3    21    19   ar
     4    20    18   ar
     5    19    16   ar
     6    86    85    2
     7    83    84    1
     8    85    84    1
     9    18    16   ar
    10    18    17   ar
    11    16    14   ar
    12    84    87    1
    13    17    15   ar
    14    87    88    1
    15    14    15   ar
    16    14    13    1
    17     4     3    2
    18     1     2    1
    19    13    10    1
    20    88    90    1
    21    88    89    1
    22     3     2    1
    23     3     9   am
    24    10     9    1
    25    10    11    1
    26    26    25    2
    27     2     5    1
    28    23    11   am
    29    23    24    1
    30    11    12    2
    31     5     6    1
    32    25    24    1
    33    31    32    1
    34    44    42   ar
    35    44    46   ar
    36    42    41   ar
    37    24    27    1
    38     6     7    1
    39    27    28    1
    40    27    29    1
    41    34    33    2
    42    47    46    1
    43    46    45   ar
    44    41    40    1
    45    41    43   ar
    46    40    37    1
    47    32    33    1
    48    32    35    1
    49    33    36   am
    50    28    30    1
    51     7     8    1
    52    37    36    1
    53    37    38    1
    54    45    43   ar
    55    51    50    2
    56    82    81    1
    57    48    38   am
    58    48    49    1
    59    38    39    2
    60    74    71    1
    61    81    80    1
    62    78    77    2
    63    50    49    1
    64    77    76    1
    65    80    79    1
    66    49    52    1
    67    73    72    2
    68    72    71    1
    69    71    70    1
    70    79    76    1
    71    76    75    1
    72    56    55    2
    73    55    54    1
    74    70    63   am
    75    57    54    1
    76    57    58    1
    77    59    58    1
    78    54    53    1
    79    58    60    1
    80    63    64    2
    81    63    62    1
    82    61    62    1
    83    62    65    1
    84    65    66    1
    85    68    67    2
    86    66    67    1
    87    67    69   am
