@<TRIPOS>MOLECULE
tmp/4b3dB00.pdb
 90 87 0 0 0
SMALL
GASTEIGER

@<TRIPOS>ATOM
      1  N          8.6260  -30.4690  -34.1620 N.3    62  MET62      -0.1230
      2  CA         9.7990  -29.8720  -33.5260 C.3    62  MET62       0.1702
      3  C          9.2780  -28.8750  -32.4970 C.2    62  MET62       0.2592
      4  O          8.3220  -28.1560  -32.7600 O.2    62  MET62      -0.2718
      5  CB        10.7170  -29.2220  -34.5650 C.3    62  MET62       0.0401
      6  CG        11.2320  -30.2600  -35.5750 C.3    62  MET62       0.0596
      7  SD        12.5330  -29.6410  -36.6470 S.3    62  MET62      -0.1393
      8  CE        13.9100  -29.6340  -35.4980 C.3    62  MET62       0.0692
      9  N          9.8800  -28.8860  -31.3130 N.am   63  TRP63      -0.1962
     10  CA         9.3540  -28.1490  -30.1690 C.3    63  TRP63       0.1771
     11  C         10.4860  -27.3630  -29.5370 C.2    63  TRP63       0.2619
     12  O         11.4740  -27.9600  -29.0900 O.2    63  TRP63      -0.2715
     13  CB         8.8040  -29.1590  -29.1550 C.3    63  TRP63       0.0590
     14  CG         8.0580  -28.5440  -28.0090 C.ar   63  TRP63       0.0006
     15  CD1        8.5010  -27.5550  -27.1720 C.ar   63  TRP63       0.0946
     16  CD2        6.7340  -28.8750  -27.5760 C.ar   63  TRP63       0.0152
     17  NE1        7.5330  -27.2640  -26.2410 N.ar   63  TRP63      -0.2442
     18  CE2        6.4390  -28.0480  -26.4750 C.ar   63  TRP63       0.0810
     19  CE3        5.7670  -29.7860  -28.0180 C.ar   63  TRP63       0.0012
     20  CZ2        5.2120  -28.1070  -25.8040 C.ar   63  TRP63       0.0191
     21  CZ3        4.5600  -29.8480  -27.3450 C.ar   63  TRP63       0.0001
     22  CH2        4.2930  -29.0150  -26.2530 C.ar   63  TRP63       0.0015
     23  N         10.3600  -26.0340  -29.5270 N.am   64  ILE64      -0.1977
     24  CA        11.2970  -25.1620  -28.8140 C.3    64  ILE64       0.1596
     25  C         10.6170  -24.6510  -27.5410 C.2    64  ILE64       0.2287
     26  O          9.6010  -23.9630  -27.6090 O.2    64  ILE64      -0.2864
     27  CB        11.7380  -23.9560  -29.6720 C.3    64  ILE64       0.0276
     28  CG1       12.5040  -24.4190  -30.9110 C.3    64  ILE64       0.0022
     29  CG2       12.6070  -22.9900  -28.8570 C.3    64  ILE64       0.0022
     30  CD1       12.8400  -23.2920  -31.8720 C.3    64  ILE64       0.0001
     31  N         10.8800  -33.7580  -31.8190 N.3    94  ALA94      -0.1231
     32  CA        12.2620  -33.3090  -31.6270 C.3    94  ALA94       0.1694
     33  C         12.2620  -32.1180  -30.6770 C.2    94  ALA94       0.2592
     34  O         11.7320  -31.0620  -31.0060 O.2    94  ALA94      -0.2718
     35  CB        12.8880  -32.9380  -32.9580 C.3    94  ALA94       0.0304
     36  N         12.8470  -32.3000  -29.4970 N.am   95  TYR95      -0.1962
     37  CA        12.7170  -31.3410  -28.3950 C.3    95  TYR95       0.1771
     38  C         14.0050  -30.5660  -28.0970 C.2    95  TYR95       0.2619
     39  O         15.0980  -31.1440  -28.0410 O.2    95  TYR95      -0.2715
     40  CB        12.2440  -32.0770  -27.1400 C.3    95  TYR95       0.0574
     41  CG        12.1410  -31.1950  -25.9230 C.ar   95  TYR95      -0.0198
     42  CD1       11.1620  -30.2190  -25.8390 C.ar   95  TYR95      -0.0009
     43  CD2       13.0240  -31.3390  -24.8590 C.ar   95  TYR95      -0.0009
     44  CE1       11.0570  -29.3980  -24.7230 C.ar   95  TYR95       0.0417
     45  CE2       12.9260  -30.5340  -23.7360 C.ar   95  TYR95       0.0417
     46  CZ        11.9440  -29.5590  -23.6770 C.ar   95  TYR95       0.1957
     47  OH        11.8540  -28.7600  -22.5630 O.3    95  TYR95      -0.2866
     48  N         13.8710  -29.2510  -27.9090 N.am   96  ALA96      -0.1977
     49  CA        15.0090  -28.4130  -27.5450 C.3    96  ALA96       0.1597
     50  C         14.5770  -27.3440  -26.5590 C.2    96  ALA96       0.2287
     51  O         13.5070  -26.7600  -26.7060 O.2    96  ALA96      -0.2864
     52  CB        15.6060  -27.7540  -28.7770 C.3    96  ALA96       0.0319
     53  N         18.1690  -21.8490  -32.7360 N.3   107  LEU107     -0.1245
     54  CA        17.4520  -23.1240  -32.8200 C.3   107  LEU107      0.1561
     55  C         16.5220  -23.1820  -34.0340 C.2   107  LEU107      0.2260
     56  O         16.3150  -24.2490  -34.6010 O.2   107  LEU107     -0.2867
     57  CB        16.6670  -23.4120  -31.5310 C.3   107  LEU107      0.0270
     58  CG        17.4850  -23.9320  -30.3490 C.3   107  LEU107      0.0019
     59  CD1       16.7080  -23.8960  -29.0530 C.3   107  LEU107      0.0001
     60  CD2       17.9300  -25.3610  -30.6740 C.3   107  LEU107      0.0001
     61  N         18.7500  -24.1720  -36.8450 N.3   110  GLN110     -0.1231
     62  CA        19.0270  -25.5920  -36.7440 C.3   110  GLN110      0.1698
     63  C         17.8410  -26.4350  -37.1750 C.2   110  GLN110      0.2592
     64  O         18.0110  -27.4900  -37.7770 O.2   110  GLN110     -0.2718
     65  CB        19.3920  -25.9700  -35.3150 C.3   110  GLN110      0.0381
     66  CG        20.8360  -25.7670  -34.9760 C.3   110  GLN110      0.0905
     67  CD        21.1130  -26.0840  -33.5320 C.2   110  GLN110      0.2608
     68  OE1       20.8880  -25.2570  -32.6590 O.2   110  GLN110     -0.2717
     69  NE2       21.5740  -27.2950  -33.2680 N.am  110  GLN110     -0.0878
     70  N         16.6350  -25.9860  -36.8390 N.am  111  ALA111     -0.1980
     71  CA        15.4380  -26.7630  -37.1600 C.3   111  ALA111      0.1597
     72  C         15.3880  -27.0760  -38.6560 C.2   111  ALA111      0.2287
     73  O         14.9480  -28.1590  -39.0570 O.2   111  ALA111     -0.2864
     74  CB        14.1630  -26.0210  -36.7090 C.3   111  ALA111      0.0319
     75  N         16.8790  -30.5230  -39.8440 N.3   114  MET114     -0.1245
     76  CA        16.0580  -31.7160  -39.6420 C.3   114  MET114      0.1570
     77  C         14.7850  -31.6830  -40.4960 C.2   114  MET114      0.2261
     78  O         14.2760  -32.7250  -40.9110 O.2   114  MET114     -0.2867
     79  CB        15.7140  -31.8870  -38.1590 C.3   114  MET114      0.0387
     80  CG        14.9470  -33.1510  -37.8390 C.3   114  MET114      0.0595
     81  SD        14.7740  -33.4480  -36.0650 S.3   114  MET114     -0.1393
     82  CE        13.4280  -34.6320  -36.0750 C.3   114  MET114      0.0692
     83  N          5.8210  -26.9650  -35.9470 N.3   128  LEU128     -0.1245
     84  CA         6.9180  -26.4020  -35.1760 C.3   128  LEU128      0.1561
     85  C          6.3060  -25.5190  -34.1040 C.2   128  LEU128      0.2260
     86  O          5.5910  -24.5660  -34.4140 O.2   128  LEU128     -0.2867
     87  CB         7.8570  -25.5810  -36.0810 C.3   128  LEU128      0.0270
     88  CG         8.9390  -24.7370  -35.4110 C.3   128  LEU128      0.0019
     89  CD1        9.7490  -25.5520  -34.4320 C.3   128  LEU128      0.0001
     90  CD2        9.8200  -24.1200  -36.4910 C.3   128  LEU128      0.0001
@<TRIPOS>BOND
     1    78    77    2
     2    77    76    1
     3    75    76    1
     4    76    79    1
     5    73    72    2
     6    72    71    1
     7    79    80    1
     8    80    81    1
     9    64    63    2
    10    63    70   am
    11    63    62    1
    12    71    70    1
    13    71    74    1
    14    61    62    1
    15    62    65    1
    16     7     6    1
    17     7     8    1
    18    90    88    1
    19    87    88    1
    20    87    84    1
    21    82    81    1
    22    83    84    1
    23     6     5    1
    24    88    89    1
    25    65    66    1
    26    84    85    1
    27    66    67    1
    28    56    55    2
    29     5     2    1
    30    86    85    2
    31     1     2    1
    32    55    54    1
    33    67    69   am
    34    67    68    2
    35     2     3    1
    36    35    32    1
    37    54    53    1
    38    54    57    1
    39     4     3    2
    40     3     9   am
    41    30    28    1
    42    31    32    1
    43    32    33    1
    44    57    58    1
    45     9    10    1
    46    34    33    2
    47    28    27    1
    48    33    36   am
    49    60    58    1
    50    58    59    1
    51    10    11    1
    52    10    13    1
    53    27    29    1
    54    27    24    1
    55    11    23   am
    56    11    12    2
    57    23    24    1
    58    36    37    1
    59    13    14    1
    60    24    25    1
    61    52    49    1
    62    37    38    1
    63    37    40    1
    64    38    39    2
    65    38    48   am
    66    19    16   ar
    67    19    21   ar
    68    14    16   ar
    69    14    15   ar
    70    48    49    1
    71    26    25    2
    72    16    18   ar
    73    49    50    1
    74    21    22   ar
    75    15    17   ar
    76    40    41    1
    77    51    50    2
    78    18    17   ar
    79    18    20   ar
    80    22    20   ar
    81    41    42   ar
    82    41    43   ar
    83    42    44   ar
    84    43    45   ar
    85    44    46   ar
    86    45    46   ar
    87    46    47    1
