@<TRIPOS>MOLECULE
tmp/4b3iA00.pdb
 172 160 0 0 0
SMALL
GASTEIGER

@<TRIPOS>ATOM
      1  N        -66.7280   55.5970  -45.4980 N.3    36  GLY36      -0.1210
      2  CA       -66.7930   54.1610  -45.7370 C.3    36  GLY36       0.1956
      3  C        -68.1050   53.6150  -45.2260 C.2    36  GLY36       0.2613
      4  O        -68.8470   54.3090  -44.5320 O.2    36  GLY36      -0.2717
      5  N        -68.3920   52.3670  -45.5690 N.am   37  SER37      -0.1938
      6  CA       -69.6020   51.6940  -45.1130 C.3    37  SER37       0.2055
      7  C        -69.4070   51.1410  -43.7010 C.2    37  SER37       0.2643
      8  O        -70.3010   50.5060  -43.1290 O.2    37  SER37      -0.2714
      9  CB       -69.9390   50.5570  -46.0710 C.3    37  SER37       0.2130
     10  OG       -68.7930   49.7580  -46.2990 O.3    37  SER37      -0.2179
     11  N        -68.2330   51.4050  -43.1380 N.am   38  THR38      -0.1950
     12  CA       -67.8060   50.7620  -41.9120 C.3    38  THR38       0.1897
     13  C        -67.0030   51.7270  -41.0260 C.2    38  THR38       0.2313
     14  O        -66.3610   52.6530  -41.5290 O.2    38  THR38      -0.2863
     15  CB       -67.0190   49.4760  -42.2570 C.3    38  THR38       0.1794
     16  OG1      -67.3620   48.4340  -41.3380 O.3    38  THR38      -0.2208
     17  CG2      -65.5010   49.7090  -42.2780 C.3    38  THR38       0.0378
     18  N        -63.8880   52.3390  -38.8000 N.3    40  VAL40      -0.1245
     19  CA       -62.5380   51.8490  -38.4920 C.3    40  VAL40       0.1561
     20  C        -61.7210   52.8440  -37.6780 C.2    40  VAL40       0.2260
     21  O        -62.0130   54.0390  -37.6430 O.2    40  VAL40      -0.2867
     22  CB       -61.7180   51.4400  -39.7510 C.3    40  VAL40       0.0252
     23  CG1      -62.3070   50.2000  -40.4030 C.3    40  VAL40       0.0019
     24  CG2      -61.5860   52.5950  -40.7410 C.3    40  VAL40       0.0019
     25  N        -72.8720   47.4250  -39.2020 N.3    74  THR74      -0.1218
     26  CA       -71.9760   46.8810  -38.1820 C.3    74  THR74       0.1862
     27  C        -71.6830   47.9370  -37.1100 C.2    74  THR74       0.2287
     28  O        -71.8320   49.1400  -37.3470 O.2    74  THR74      -0.2866
     29  CB       -70.6420   46.3910  -38.7930 C.3    74  THR74       0.1770
     30  OG1      -69.9770   47.4800  -39.4470 O.3    74  THR74      -0.2211
     31  CG2      -70.8840   45.2720  -39.8000 C.3    74  THR74       0.0375
     32  N        -65.5490   48.0120  -37.0510 N.3    77  ALA77      -0.1231
     33  CA       -64.7610   47.0150  -37.7960 C.3    77  ALA77       0.1694
     34  C        -63.2830   46.8700  -37.3690 C.2    77  ALA77       0.2593
     35  O        -62.5470   46.0380  -37.9060 O.2    77  ALA77      -0.2718
     36  CB       -64.8600   47.2990  -39.2890 C.3    77  ALA77       0.0304
     37  N        -62.8460   47.6780  -36.4110 N.am   78  GLY78      -0.1942
     38  CA       -61.5080   47.5260  -35.8480 C.3    78  GLY78       0.2014
     39  C        -60.4500   48.4490  -36.4130 C.2    78  GLY78       0.2639
     40  O        -60.7540   49.5250  -36.9240 O.2    78  GLY78      -0.2714
     41  N        -59.1960   48.0190  -36.3040 N.am   79  GLY79      -0.1939
     42  CA       -58.0560   48.8210  -36.7250 C.3    79  GLY79       0.2014
     43  C        -58.0020   48.9950  -38.2250 C.2    79  GLY79       0.2639
     44  O        -58.4550   48.1310  -38.9690 O.2    79  GLY79      -0.2714
     45  N        -57.4500   50.1240  -38.6590 N.am   80  ASP80      -0.1957
     46  CA       -57.2920   50.4250  -40.0760 C.3    80  ASP80       0.1840
     47  C        -56.1340   49.6150  -40.6590 C.2    80  ASP80       0.2622
     48  O        -54.9630   49.9260  -40.4180 O.2    80  ASP80      -0.2715
     49  CB       -57.0470   51.9240  -40.2590 C.3    80  ASP80       0.1450
     50  CG       -57.1720   52.3800  -41.7090 C.2    80  ASP80       0.3671
     51  OD1      -57.4110   51.5490  -42.6190 O.co2  80  ASP80      -0.2456
     52  OD2      -57.0280   53.6010  -41.9330 O.co2  80  ASP80      -0.2456
     53  N        -56.4740   48.5760  -41.4200 N.am   81  VAL81      -0.1963
     54  CA       -55.4810   47.6600  -41.9970 C.3    81  VAL81       0.1727
     55  C        -54.6630   48.3260  -43.1070 C.2    81  VAL81       0.2616
     56  O        -53.4870   48.0120  -43.2930 O.2    81  VAL81      -0.2715
     57  CB       -56.1310   46.3540  -42.5140 C.3    81  VAL81       0.0290
     58  CG1      -55.0710   45.3480  -42.9390 C.3    81  VAL81       0.0023
     59  CG2      -57.0170   45.7390  -41.4440 C.3    81  VAL81       0.0023
     60  N        -55.2800   49.2550  -43.8330 N.am   82  LYS82      -0.1977
     61  CA       -54.5820   49.9810  -44.8940 C.3    82  LYS82       0.1596
     62  C        -53.3910   50.7990  -44.3700 C.2    82  LYS82       0.2287
     63  O        -52.3760   50.9190  -45.0520 O.2    82  LYS82      -0.2864
     64  CB       -55.5680   50.8270  -45.7040 C.3    82  LYS82       0.0298
     65  CG       -56.3790   49.9950  -46.6920 C.3    82  LYS82       0.0038
     66  CD       -57.7570   50.5710  -47.0050 C.3    82  LYS82       0.0206
     67  CE       -58.5370   49.6260  -47.9180 C.3    82  LYS82       0.1093
     68  NZ       -59.9970   49.9200  -47.9930 N.3    82  LYS82      -0.1314
     69  N        -51.9720   49.9980  -41.1960 N.3    84  MET84      -0.1245
     70  CA       -51.1670   49.0710  -40.4090 C.3    84  MET84       0.1570
     71  C        -50.1670   48.2770  -41.2460 C.2    84  MET84       0.2261
     72  O        -49.0370   48.0600  -40.8120 O.2    84  MET84      -0.2867
     73  CB       -52.0490   48.1400  -39.5700 C.3    84  MET84       0.0387
     74  CG       -52.6960   48.8390  -38.3800 C.3    84  MET84       0.0595
     75  SD       -53.6160   47.7760  -37.2430 S.3    84  MET84      -0.1393
     76  CE       -54.8260   47.0000  -38.3200 C.3    84  MET84       0.0692
     77  N        -71.7340   43.6240  -36.1180 N.3   123  ALA123     -0.1245
     78  CA       -70.3670   43.1590  -35.9250 C.3   123  ALA123      0.1562
     79  C        -69.5110   44.1510  -35.1240 C.2   123  ALA123      0.2260
     80  O        -69.3990   45.3290  -35.4810 O.2   123  ALA123     -0.2867
     81  CB       -69.7160   42.8380  -37.2650 C.3   123  ALA123      0.0290
     82  N        -65.7240   43.8360  -34.0600 N.3   125  LEU125     -0.1231
     83  CA       -64.5420   42.9960  -34.2340 C.3   125  LEU125      0.1693
     84  C        -63.2450   43.7480  -34.0010 C.2   125  LEU125      0.2592
     85  O        -63.0090   44.8000  -34.6050 O.2   125  LEU125     -0.2718
     86  CB       -64.5250   42.3760  -35.6310 C.3   125  LEU125      0.0284
     87  CG       -65.6580   41.4310  -36.0490 C.3   125  LEU125      0.0019
     88  CD1      -65.5950   41.2120  -37.5530 C.3   125  LEU125      0.0001
     89  CD2      -65.6040   40.1050  -35.3000 C.3   125  LEU125      0.0001
     90  N        -62.4050   43.1880  -33.1300 N.am  126  GLY126     -0.1957
     91  CA       -61.0880   43.7490  -32.8360 C.3   126  GLY126      0.1869
     92  C        -61.2060   45.0690  -32.1070 C.2   126  GLY126      0.2309
     93  O        -61.8300   45.1390  -31.0480 O.2   126  GLY126     -0.2863
     94  N        -71.3190   39.3980  -35.5250 N.3   147  GLN147     -0.1245
     95  CA       -70.1800   38.7180  -34.9140 C.3   147  GLN147      0.1566
     96  C        -69.4920   39.5970  -33.8880 C.2   147  GLN147      0.2260
     97  O        -69.4470   40.8140  -34.0400 O.2   147  GLN147     -0.2867
     98  CB       -69.1620   38.3260  -35.9730 C.3   147  GLN147      0.0367
     99  CG       -69.6050   37.2010  -36.8870 C.3   147  GLN147      0.0905
    100  CD       -68.6360   36.9920  -38.0300 C.2   147  GLN147      0.2608
    101  OE1      -67.9150   37.9140  -38.4320 O.2   147  GLN147     -0.2717
    102  NE2      -68.6090   35.7750  -38.5620 N.am  147  GLN147     -0.0878
    103  N        -60.1020   39.1800  -33.5010 N.3   151  PRO151     -0.2102
    104  CA       -59.4190   38.3240  -34.4620 C.3   151  PRO151      0.1504
    105  C        -58.0510   38.8190  -34.9160 C.2   151  PRO151      0.2575
    106  O        -57.5140   38.3010  -35.8970 O.2   151  PRO151     -0.2718
    107  CB       -60.3800   38.3050  -35.6590 C.3   151  PRO151      0.0282
    108  CG       -61.3240   39.4500  -35.4590 C.3   151  PRO151      0.0208
    109  CD       -60.9820   40.1470  -34.1760 C.3   151  PRO151      0.0893
    110  N        -57.4670   39.7860  -34.2170 N.am  152  GLU152     -0.1980
    111  CA       -56.2080   40.3590  -34.7050 C.3   152  GLU152      0.1602
    112  C        -55.0350   39.3610  -34.8060 C.2   152  GLU152      0.2287
    113  O        -54.1660   39.5200  -35.6640 O.2   152  GLU152     -0.2864
    114  CB       -55.8270   41.6750  -34.0000 C.3   152  GLU152      0.0415
    115  CG       -56.2700   41.8210  -32.5620 C.3   152  GLU152      0.1163
    116  CD       -57.6420   42.4500  -32.4030 C.2   152  GLU152      0.3649
    117  OE1      -58.6260   41.7390  -32.6530 O.co2 152  GLU152     -0.2457
    118  OE2      -57.7480   43.6340  -31.9960 O.co2 152  GLU152     -0.2457
    119  N        -55.2520   36.4970  -36.0590 N.3   154  THR154     -0.1203
    120  CA       -55.4050   35.8990  -37.3830 C.3   154  THR154      0.1994
    121  C        -54.7730   36.7650  -38.4760 C.2   154  THR154      0.2617
    122  O        -54.6220   36.3210  -39.6120 O.2   154  THR154     -0.2717
    123  CB       -56.8850   35.6240  -37.7400 C.3   154  THR154      0.1784
    124  OG1      -57.5530   36.8610  -38.0140 O.3   154  THR154     -0.2211
    125  CG2      -57.6100   34.8770  -36.6150 C.3   154  THR154      0.0376
    126  N        -54.4190   38.0020  -38.1290 N.am  155  LEU155     -0.1979
    127  CA       -53.7330   38.9120  -39.0480 C.3   155  LEU155      0.1596
    128  C        -52.2970   39.1710  -38.5990 C.2   155  LEU155      0.2287
    129  O        -51.6250   40.0630  -39.1200 O.2   155  LEU155     -0.2864
    130  CB       -54.4960   40.2350  -39.1860 C.3   155  LEU155      0.0297
    131  CG       -55.9480   40.2130  -39.6830 C.3   155  LEU155      0.0022
    132  CD1      -56.4390   41.6350  -39.9040 C.3   155  LEU155      0.0001
    133  CD2      -56.1160   39.3920  -40.9550 C.3   155  LEU155      0.0001
    134  N        -51.3990   40.1240  -35.5890 N.3   157  LEU157     -0.1245
    135  CA       -51.4060   41.2770  -34.6960 C.3   157  LEU157      0.1561
    136  C        -51.8730   40.8580  -33.3070 C.2   157  LEU157      0.2260
    137  O        -52.0450   39.6730  -33.0490 O.2   157  LEU157     -0.2867
    138  CB       -52.3040   42.3780  -35.2750 C.3   157  LEU157      0.0270
    139  CG       -51.8570   42.9570  -36.6250 C.3   157  LEU157      0.0019
    140  CD1      -52.8710   43.9330  -37.1890 C.3   157  LEU157      0.0001
    141  CD2      -50.5020   43.6340  -36.5020 C.3   157  LEU157      0.0001
    142  N        -64.4540   34.4500  -33.8970 N.3   186  ARG186     -0.1245
    143  CA       -65.6610   35.2630  -34.0330 C.3   186  ARG186      0.1563
    144  C        -66.7910   34.5550  -33.3000 C.2   186  ARG186      0.2260
    145  O        -66.9250   33.3400  -33.4020 O.2   186  ARG186     -0.2867
    146  CB       -66.0420   35.4360  -35.5050 C.3   186  ARG186      0.0307
    147  CG       -64.8800   35.3910  -36.4830 C.3   186  ARG186      0.0489
    148  CD       -64.1620   36.7230  -36.5300 C.3   186  ARG186      0.2205
    149  NE       -64.6060   37.5570  -37.6470 N.pl3 186  ARG186     -0.0865
    150  CZ       -63.8310   37.9190  -38.6700 C.cat 186  ARG186      0.5346
    151  NH1      -62.5600   37.5240  -38.7350 N.pl3 186  ARG186      0.1354
    152  NH2      -64.3300   38.6860  -39.6290 N.pl3 186  ARG186      0.1354
    153  N        -56.5100   39.5440  -45.0690 N.3   315  PHE315     -0.1241
    154  CA       -57.3780   40.6940  -45.2690 C.3   315  PHE315      0.1605
    155  C        -57.4900   41.0230  -46.7540 C.2   315  PHE315      0.2264
    156  O        -58.5280   40.7690  -47.3600 O.2   315  PHE315     -0.2867
    157  CB       -56.9220   41.9110  -44.4600 C.3   315  PHE315      0.0534
    158  CG       -57.8730   43.0710  -44.5360 C.ar  315  PHE315     -0.0203
    159  CD1      -59.0950   43.0330  -43.8630 C.ar  315  PHE315     -0.0042
    160  CD2      -57.5620   44.1960  -45.2960 C.ar  315  PHE315     -0.0042
    161  CE1      -59.9830   44.0980  -43.9400 C.ar  315  PHE315     -0.0003
    162  CE2      -58.4460   45.2650  -45.3770 C.ar  315  PHE315     -0.0003
    163  CZ       -59.6590   45.2140  -44.7000 C.ar  315  PHE315     -0.0000
    164  N        -60.3130   39.2470  -49.2340 N.3   319  GLN319     -0.1245
    165  CA       -61.3270   40.2130  -49.6430 C.3   319  GLN319      0.1566
    166  C        -61.4340   40.2860  -51.1670 C.2   319  GLN319      0.2260
    167  O        -62.5320   40.2710  -51.7240 O.2   319  GLN319     -0.2867
    168  CB       -60.9640   41.5830  -49.0850 C.3   319  GLN319      0.0367
    169  CG       -62.1160   42.5580  -48.9420 C.3   319  GLN319      0.0905
    170  CD       -61.7090   43.7890  -48.1540 C.2   319  GLN319      0.2608
    171  OE1      -62.1180   43.9610  -46.9980 O.2   319  GLN319     -0.2717
    172  NE2      -60.8770   44.6430  -48.7640 N.am  319  GLN319     -0.0878
@<TRIPOS>BOND
     1   167   166    2
     2   166   165    1
     3   165   164    1
     4   165   168    1
     5   168   169    1
     6   169   170    1
     7   172   170   am
     8   170   171    2
     9    68    67    1
    10    67    66    1
    11   156   155    2
    12    66    65    1
    13   155   154    1
    14    65    64    1
    15    10     9    1
    16     9     6    1
    17     2     1    1
    18     2     3    1
    19    64    61    1
    20     5     3   am
    21     5     6    1
    22   162   160   ar
    23   162   163   ar
    24   160   158   ar
    25   154   153    1
    26   154   157    1
    27     3     4    2
    28     6     7    1
    29    63    62    2
    30    61    62    1
    31    61    60    1
    32   163   161   ar
    33   158   157    1
    34   158   159   ar
    35   161   159   ar
    36    60    55   am
    37     7    11   am
    38     7     8    2
    39    56    55    2
    40    11    12    1
    41    55    54    1
    42    58    57    1
    43    51    50   ar
    44    57    54    1
    45    57    59    1
    46    17    15    1
    47    15    12    1
    48    15    16    1
    49    54    53    1
    50    52    50   ar
    51    12    13    1
    52    50    49    1
    53    14    13    2
    54    53    47   am
    55    71    72    2
    56    71    70    1
    57    69    70    1
    58   133   131    1
    59    24    22    1
    60    47    48    2
    61    47    46    1
    62    70    73    1
    63    23    22    1
    64    49    46    1
    65    46    45    1
    66   132   131    1
    67    31    29    1
    68    22    19    1
    69   131   130    1
    70   152   150    1
    71   122   121    2
    72    73    74    1
    73    30    29    1
    74    36    33    1
    75    25    26    1
    76   130   127    1
    77   129   128    2
    78   127   128    1
    79   127   126    1
    80    44    43    2
    81    18    19    1
    82    29    26    1
    83   151   150    1
    84   150   149    2
    85    45    43   am
    86   102   100   am
    87    19    20    1
    88   121   126   am
    89   121   120    1
    90   101   100    2
    91    74    75    1
    92    76    75    1
    93    43    42    1
    94    26    27    1
    95   100    99    1
    96   124   123    1
    97    35    34    2
    98    33    34    1
    99    33    32    1
   100   123   120    1
   101   123   125    1
   102    20    21    2
   103   149   148    1
   104    88    87    1
   105   120   119    1
   106    34    37   am
   107    28    27    2
   108    81    78    1
   109   140   139    1
   110    40    39    2
   111    99    98    1
   112    42    41    1
   113   139   141    1
   114   139   138    1
   115   148   147    1
   116   147   146    1
   117    39    41   am
   118    39    38    1
   119    37    38    1
   120    77    78    1
   121    87    86    1
   122    87    89    1
   123    98    95    1
   124    78    79    1
   125   106   105    2
   126   113   112    2
   127   107   108    1
   128   107   104    1
   129    86    83    1
   130   134   135    1
   131    94    95    1
   132   146   143    1
   133    80    79    2
   134   108   109    1
   135   138   135    1
   136   105   104    1
   137   105   110   am
   138    95    96    1
   139   112   111    1
   140   111   110    1
   141   111   114    1
   142   135   136    1
   143    85    84    2
   144   104   103    1
   145    83    82    1
   146    83    84    1
   147   109   103    1
   148    97    96    2
   149   143   142    1
   150   143   144    1
   151    84    90   am
   152   114   115    1
   153   145   144    2
   154   136   137    2
   155    90    91    1
   156    91    92    1
   157   117   116   ar
   158   115   116    1
   159   116   118   ar
   160    92    93    2
