@<TRIPOS>MOLECULE
tmp/4b3nA00.pdb
 180 177 0 0 0
SMALL
GASTEIGER

@<TRIPOS>ATOM
      1  N         13.5510   45.4930  -32.8000 N.3     8  ASN8       -0.1240
      2  CA        14.2840   44.5810  -31.9550 C.3     8  ASN8        0.1653
      3  C         15.8260   44.6100  -32.1670 C.2     8  ASN8        0.2266
      4  O         16.3130   44.8770  -33.2480 O.2     8  ASN8       -0.2867
      5  CB        13.6720   43.1940  -32.1560 C.3     8  ASN8        0.1155
      6  CG        14.3830   42.1310  -31.3770 C.2     8  ASN8        0.2627
      7  OD1       15.5750   41.9500  -31.5500 O.2     8  ASN8       -0.2716
      8  ND2       13.6710   41.4410  -30.4950 N.am    8  ASN8       -0.0877
      9  N         17.9270   41.9160  -31.9820 N.3    10  ASP10      -0.1225
     10  CA        18.1400   40.7890  -32.9310 C.3    10  ASP10       0.1805
     11  C         18.2300   41.3120  -34.3600 C.2    10  ASP10       0.2597
     12  O         19.1700   41.0240  -35.1020 O.2    10  ASP10      -0.2718
     13  CB        16.9540   39.7760  -32.9190 C.3    10  ASP10       0.1424
     14  CG        16.9910   38.7850  -31.7490 C.2    10  ASP10       0.3668
     15  OD1       17.9620   38.8170  -30.9470 O.co2  10  ASP10      -0.2456
     16  OD2       16.0370   37.9560  -31.6580 O.co2  10  ASP10      -0.2456
     17  N         17.2040   42.0690  -34.7180 N.am   11  LYS11      -0.1979
     18  CA        16.9990   42.5360  -36.0680 C.3    11  LYS11       0.1596
     19  C         18.0750   43.5410  -36.4620 C.2    11  LYS11       0.2287
     20  O         18.7970   44.0640  -35.6160 O.2    11  LYS11      -0.2864
     21  CB        15.5830   43.1340  -36.2040 C.3    11  LYS11       0.0298
     22  CG        14.4700   42.1340  -36.5260 C.3    11  LYS11       0.0038
     23  CD        14.4590   40.9260  -35.6090 C.3    11  LYS11       0.0206
     24  CE        13.1220   40.2110  -35.6460 C.3    11  LYS11       0.1093
     25  NZ        12.9040   39.5520  -34.3340 N.3    11  LYS11      -0.1314
     26  N          8.2530   44.9380  -27.0200 N.3    40  GLU40      -0.1245
     27  CA         6.9300   44.3930  -27.2840 C.3    40  GLU40       0.1567
     28  C          6.0060   44.6300  -26.1010 C.2    40  GLU40       0.2260
     29  O          4.8270   44.8960  -26.2800 O.2    40  GLU40      -0.2867
     30  CB         6.9960   42.9040  -27.6370 C.3    40  GLU40       0.0388
     31  CG         7.2790   41.9130  -26.5020 C.3    40  GLU40       0.1160
     32  CD         8.7550   41.6920  -26.1970 C.2    40  GLU40       0.3649
     33  OE1        9.6050   42.4760  -26.6550 O.co2  40  GLU40      -0.2457
     34  OE2        9.0690   40.7150  -25.4770 O.co2  40  GLU40      -0.2457
     35  N          7.6100   44.6640  -35.0580 N.3    58  TRP58      -0.1227
     36  CA         7.5190   43.3730  -34.4070 C.3    58  TRP58       0.1737
     37  C          6.7740   42.3720  -35.2370 C.2    58  TRP58       0.2595
     38  O          6.0330   42.7240  -36.1500 O.2    58  TRP58      -0.2718
     39  CB         6.7890   43.5110  -33.0950 C.3    58  TRP58       0.0564
     40  CG         7.0390   42.3470  -32.1800 C.ar   58  TRP58       0.0003
     41  CD1        6.2020   41.2740  -31.9090 C.ar   58  TRP58       0.0946
     42  CD2        8.2190   42.1210  -31.4010 C.ar   58  TRP58       0.0152
     43  NE1        6.7860   40.4270  -31.0130 N.ar   58  TRP58      -0.2442
     44  CE2        8.0240   40.9090  -30.6810 C.ar   58  TRP58       0.0810
     45  CE3        9.4170   42.8280  -31.2310 C.ar   58  TRP58       0.0012
     46  CZ2        8.9810   40.3970  -29.8080 C.ar   58  TRP58       0.0191
     47  CZ3       10.3640   42.3160  -30.3720 C.ar   58  TRP58       0.0001
     48  CH2       10.1430   41.1120  -29.6700 C.ar   58  TRP58       0.0015
     49  N          6.8680   41.1110  -34.8300 N.am   59  ALA59      -0.1980
     50  CA         6.1150   40.0540  -35.4890 C.3    59  ALA59       0.1597
     51  C          4.6160   40.3330  -35.3650 C.2    59  ALA59       0.2287
     52  O          4.1670   40.9360  -34.3910 O.2    59  ALA59      -0.2864
     53  CB         6.4600   38.7000  -34.8920 C.3    59  ALA59       0.0319
     54  N          1.8410   38.7840  -34.7570 N.3    61  ASP61      -0.1225
     55  CA         0.8840   38.1720  -33.8450 C.3    61  ASP61       0.1805
     56  C          0.4190   39.1260  -32.7440 C.2    61  ASP61       0.2597
     57  O         -0.7590   39.1560  -32.3950 O.2    61  ASP61      -0.2718
     58  CB         1.5080   36.9400  -33.1940 C.3    61  ASP61       0.1424
     59  CG         2.8970   37.2020  -32.6900 C.2    61  ASP61       0.3668
     60  OD1        3.6960   37.8050  -33.4440 O.co2  61  ASP61      -0.2456
     61  OD2        3.2030   36.8100  -31.5420 O.co2  61  ASP61      -0.2456
     62  N          1.3510   39.9080  -32.2110 N.am   62  ARG62      -0.1979
     63  CA         1.0180   40.8740  -31.1730 C.3    62  ARG62       0.1597
     64  C          0.0530   41.9480  -31.6630 C.2    62  ARG62       0.2287
     65  O         -0.8380   42.3790  -30.9370 O.2    62  ARG62      -0.2864
     66  CB         2.2940   41.5570  -30.6570 C.3    62  ARG62       0.0334
     67  CG         3.2610   40.6080  -29.9480 C.3    62  ARG62       0.0492
     68  CD         3.5680   41.0740  -28.5490 C.3    62  ARG62       0.2205
     69  NE         3.9820   39.9810  -27.6810 N.pl3  62  ARG62      -0.0865
     70  CZ         3.7420   39.9450  -26.3730 C.cat  62  ARG62       0.5346
     71  NH1        3.0940   40.9420  -25.7740 N.pl3  62  ARG62       0.1354
     72  NH2        4.1470   38.8970  -25.6670 N.pl3  62  ARG62       0.1354
     73  N          9.6760   35.3200  -41.3170 N.3   107  GLU107     -0.1245
     74  CA        10.7240   34.6760  -40.5270 C.3   107  GLU107      0.1567
     75  C         10.2630   33.3440  -39.9470 C.2   107  GLU107      0.2260
     76  O          9.2080   33.2440  -39.3270 O.2   107  GLU107     -0.2867
     77  CB        11.2770   35.6030  -39.4230 C.3   107  GLU107      0.0388
     78  CG        10.2680   36.3560  -38.5530 C.3   107  GLU107      0.1160
     79  CD        10.8090   37.6690  -37.9490 C.2   107  GLU107      0.3649
     80  OE1       11.6000   38.3570  -38.6310 O.co2 107  GLU107     -0.2457
     81  OE2       10.3940   38.0730  -36.8270 O.co2 107  GLU107     -0.2457
     82  N         17.6180   28.3660  -27.3570 N.3   146  ASN146     -0.1240
     83  CA        16.8880   29.0670  -26.2920 C.3   146  ASN146      0.1653
     84  C         15.6590   28.2840  -25.8410 C.2   146  ASN146      0.2266
     85  O         14.6920   28.1750  -26.5850 O.2   146  ASN146     -0.2867
     86  CB        16.4560   30.4670  -26.7730 C.3   146  ASN146      0.1155
     87  CG        15.9440   31.3640  -25.6460 C.2   146  ASN146      0.2627
     88  OD1       16.0100   31.0060  -24.4730 O.2   146  ASN146     -0.2716
     89  ND2       15.4480   32.5520  -26.0080 N.am  146  ASN146     -0.0877
     90  N         12.3490   30.9370  -24.2670 N.3   149  GLU149     -0.1231
     91  CA        11.2820   31.4300  -25.1310 C.3   149  GLU149      0.1684
     92  C         10.5170   30.3030  -25.8220 C.2   149  GLU149      0.2434
     93  O         11.0960   29.5360  -26.5700 O.2   149  GLU149     -0.2733
     94  CB        11.8560   32.3510  -26.1980 C.3   149  GLU149      0.0402
     95  CG        12.2720   33.7020  -25.6650 C.3   149  GLU149      0.1161
     96  CD        11.0990   34.5160  -25.1370 C.2   149  GLU149      0.3649
     97  OE1        9.9430   34.2850  -25.5340 O.co2 149  GLU149     -0.2457
     98  OE2       11.3270   35.4120  -24.3080 O.co2 149  GLU149     -0.2457
     99  N          9.1950   30.2320  -25.6130 N.am  150  PRO150     -0.2718
    100  CA         8.3960   29.1910  -26.2520 C.3   150  PRO150      0.1535
    101  C          8.3590   29.2280  -27.7920 C.2   150  PRO150      0.2599
    102  O          7.9630   28.2400  -28.3990 O.2   150  PRO150     -0.2715
    103  CB         6.9880   29.4210  -25.6770 C.3   150  PRO150      0.0310
    104  CG         6.9670   30.8390  -25.2440 C.3   150  PRO150      0.0237
    105  CD         8.3610   31.1310  -24.7900 C.3   150  PRO150      0.0939
    106  N          8.7510   30.3430  -28.4100 N.am  151  TYR151     -0.1960
    107  CA         8.8880   30.4200  -29.8690 C.3   151  TYR151      0.1771
    108  C          9.7480   29.2650  -30.3540 C.2   151  TYR151      0.2619
    109  O          9.4150   28.6220  -31.3520 O.2   151  TYR151     -0.2715
    110  CB         9.5420   31.7490  -30.2720 C.3   151  TYR151      0.0574
    111  CG         9.6560   32.0120  -31.7690 C.ar  151  TYR151     -0.0198
    112  CD1        8.5200   32.1290  -32.5620 C.ar  151  TYR151     -0.0009
    113  CD2       10.9010   32.1850  -32.3850 C.ar  151  TYR151     -0.0009
    114  CE1        8.6140   32.3850  -33.9280 C.ar  151  TYR151      0.0417
    115  CE2       10.9970   32.4420  -33.7500 C.ar  151  TYR151      0.0417
    116  CZ         9.8530   32.5410  -34.5180 C.ar  151  TYR151      0.1957
    117  OH         9.9170   32.7880  -35.8650 O.3   151  TYR151     -0.2866
    118  N         10.8350   29.0060  -29.6190 N.am  152  PHE152     -0.1974
    119  CA        11.8210   27.9770  -29.9660 C.3   152  PHE152      0.1639
    120  C         11.4180   26.5470  -29.6400 C.2   152  PHE152      0.2290
    121  O         11.8610   25.6200  -30.3000 O.2   152  PHE152     -0.2864
    122  CB        13.1370   28.2670  -29.2690 C.3   152  PHE152      0.0560
    123  CG        13.8280   29.4790  -29.7880 C.ar  152  PHE152     -0.0200
    124  CD1       13.5220   30.7320  -29.2890 C.ar  152  PHE152     -0.0042
    125  CD2       14.7800   29.3720  -30.7860 C.ar  152  PHE152     -0.0042
    126  CE1       14.1610   31.8620  -29.7650 C.ar  152  PHE152     -0.0003
    127  CE2       15.4200   30.5000  -31.2710 C.ar  152  PHE152     -0.0003
    128  CZ        15.1100   31.7440  -30.7600 C.ar  152  PHE152     -0.0000
    129  N         19.1550   32.1440  -25.1600 N.3   206  TYR206     -0.1241
    130  CA        19.5960   32.5840  -26.4800 C.3   206  TYR206      0.1605
    131  C         21.1160   32.7620  -26.5740 C.2   206  TYR206      0.2264
    132  O         21.7470   32.3050  -27.5360 O.2   206  TYR206     -0.2867
    133  CB        18.9170   33.8930  -26.8520 C.3   206  TYR206      0.0534
    134  CG        19.0920   34.2550  -28.3030 C.ar  206  TYR206     -0.0201
    135  CD1       20.2700   34.8430  -28.7530 C.ar  206  TYR206     -0.0009
    136  CD2       18.0930   34.0060  -29.2240 C.ar  206  TYR206     -0.0009
    137  CE1       20.4390   35.1700  -30.0840 C.ar  206  TYR206      0.0417
    138  CE2       18.2460   34.3430  -30.5480 C.ar  206  TYR206      0.0417
    139  CZ        19.4240   34.9230  -30.9780 C.ar  206  TYR206      0.1957
    140  OH        19.5900   35.2540  -32.3100 O.3   206  TYR206     -0.2866
    141  N         17.9370   36.1870  -38.8020 N.3   226  TRP226     -0.1241
    142  CA        18.7750   37.2110  -38.1430 C.3   226  TRP226      0.1605
    143  C         20.1030   36.6730  -37.6050 C.2   226  TRP226      0.2264
    144  O         21.0950   37.4080  -37.5130 O.2   226  TRP226     -0.2867
    145  CB        17.9850   37.8810  -37.0050 C.3   226  TRP226      0.0550
    146  CG        17.4640   36.8650  -35.9930 C.ar  226  TRP226      0.0003
    147  CD1       18.1380   36.3750  -34.9160 C.ar  226  TRP226      0.0946
    148  CD2       16.1770   36.1800  -35.9870 C.ar  226  TRP226      0.0152
    149  NE1       17.3710   35.4560  -34.2390 N.ar  226  TRP226     -0.2442
    150  CE2       16.1660   35.3110  -34.8600 C.ar  226  TRP226      0.0810
    151  CE3       15.0410   36.2160  -36.8170 C.ar  226  TRP226      0.0012
    152  CZ2       15.0700   34.4870  -34.5350 C.ar  226  TRP226      0.0191
    153  CZ3       13.9460   35.3900  -36.4870 C.ar  226  TRP226      0.0001
    154  CH2       13.9780   34.5500  -35.3520 C.ar  226  TRP226      0.0015
    155  N          6.4200   34.0260  -38.4510 N.3   256  GLY256     -0.1225
    156  CA         6.2000   35.4270  -38.1890 C.3   256  GLY256      0.1811
    157  C          6.4000   36.2870  -39.4290 C.2   256  GLY256      0.2280
    158  O          7.2880   36.0460  -40.2500 O.2   256  GLY256     -0.2866
    159  N          1.5390   32.7160  -37.5990 N.3   326  MET326     -0.1245
    160  CA         0.8660   32.9380  -36.3270 C.3   326  MET326      0.1570
    161  C         -0.4890   33.5890  -36.5070 C.2   326  MET326      0.2261
    162  O         -0.7170   34.2850  -37.4850 O.2   326  MET326     -0.2867
    163  CB         1.7090   33.8050  -35.4020 C.3   326  MET326      0.0387
    164  CG         2.8480   33.0490  -34.7710 C.3   326  MET326      0.0595
    165  SD         3.8390   34.0620  -33.6850 S.3   326  MET326     -0.1393
    166  CE         4.8420   34.9150  -34.8850 C.3   326  MET326      0.0692
    167  N          1.2250   32.7820  -25.3330 N.3   336  TRP336     -0.1241
    168  CA         2.6680   32.7780  -25.2280 C.3   336  TRP336      0.1605
    169  C          3.1350   32.7560  -23.8150 C.2   336  TRP336      0.2264
    170  O          4.0390   32.0000  -23.4750 O.2   336  TRP336     -0.2867
    171  CB         3.2800   33.9870  -25.9200 C.3   336  TRP336      0.0550
    172  CG         3.4460   33.8010  -27.4220 C.ar  336  TRP336      0.0003
    173  CD1        3.0960   34.6990  -28.4020 C.ar  336  TRP336      0.0946
    174  CD2        4.0160   32.6600  -28.1320 C.ar  336  TRP336      0.0152
    175  NE1        3.4050   34.2030  -29.6360 N.ar  336  TRP336     -0.2442
    176  CE2        3.9580   32.9600  -29.5140 C.ar  336  TRP336      0.0810
    177  CE3        4.5700   31.4310  -27.7330 C.ar  336  TRP336      0.0012
    178  CZ2        4.4300   32.0860  -30.4980 C.ar  336  TRP336      0.0191
    179  CZ3        5.0350   30.5580  -28.7250 C.ar  336  TRP336      0.0001
    180  CH2        4.9650   30.9000  -30.0820 C.ar  336  TRP336      0.0015
@<TRIPOS>BOND
     1    73    74    1
     2    74    75    1
     3    74    77    1
     4   158   157    2
     5    75    76    2
     6   157   156    1
     7    77    78    1
     8   141   142    1
     9    80    79   ar
    10    78    79    1
    11   155   156    1
    12   142   143    1
    13   142   145    1
    14    79    81   ar
    15   143   144    2
    16   159   160    1
    17   162   161    2
    18   145   146    1
    19   151   153   ar
    20   151   148   ar
    21    22    21    1
    22    22    23    1
    23   161   160    1
    24   153   154   ar
    25    19    18    1
    26    19    20    2
    27   160   163    1
    28    21    18    1
    29    38    37    2
    30    18    17    1
    31   146   148   ar
    32   146   147   ar
    33   148   150   ar
    34   117   116    1
    35    24    23    1
    36    24    25    1
    37    50    51    1
    38    50    53    1
    39    50    49    1
    40   163   164    1
    41    51    52    2
    42   154   152   ar
    43    37    49   am
    44    37    36    1
    45    12    11    2
    46    35    36    1
    47   147   149   ar
    48   166   165    1
    49   150   152   ar
    50   150   149   ar
    51   164   165    1
    52    54    55    1
    53    17    11   am
    54   116   114   ar
    55   116   115   ar
    56    36    39    1
    57    11    10    1
    58   114   112   ar
    59    55    58    1
    60    55    56    1
    61   115   113   ar
    62    60    59   ar
    63     4     3    2
    64    58    59    1
    65    39    40    1
    66    10    13    1
    67    10     9    1
    68    13    14    1
    69     1     2    1
    70    56    57    2
    71    56    62   am
    72    59    61   ar
    73   112   111   ar
    74   113   111   ar
    75   140   139    1
    76    62    63    1
    77    40    41   ar
    78    40    42   ar
    79     3     2    1
    80     5     2    1
    81     5     6    1
    82    41    43   ar
    83   111   110    1
    84    14    16   ar
    85    14    15   ar
    86    64    63    1
    87    64    65    2
    88     7     6    2
    89    42    45   ar
    90    42    44   ar
    91     6     8   am
    92   109   108    2
    93   127   125   ar
    94   127   128   ar
    95    45    47   ar
    96    63    66    1
    97    43    44   ar
    98   139   138   ar
    99   139   137   ar
   100   125   123   ar
   101   128   126   ar
   102    44    46   ar
   103    66    67    1
   104   138   136   ar
   105   178   180   ar
   106   178   176   ar
   107    47    48   ar
   108   108   107    1
   109   108   118   am
   110   121   120    2
   111   110   107    1
   112   137   135   ar
   113   180   179   ar
   114   119   120    1
   115   119   118    1
   116   119   122    1
   117    67    68    1
   118   107   106    1
   119    46    48   ar
   120   123   124   ar
   121   123   122    1
   122   126   124   ar
   123   175   176   ar
   124   175   173   ar
   125   176   174   ar
   126   136   134   ar
   127   135   134   ar
   128   179   177   ar
   129    68    69    1
   130   106   101   am
   131   173   172   ar
   132   102   101    2
   133   134   133    1
   134   174   177   ar
   135   174   172   ar
   136   101   100    1
   137    69    70    2
   138    30    27    1
   139    30    31    1
   140   132   131    2
   141   172   171    1
   142    82    83    1
   143    27    26    1
   144    27    28    1
   145   133   130    1
   146    86    83    1
   147    86    87    1
   148    33    32   ar
   149    85    84    2
   150   131   130    1
   151    93    92    2
   152    31    32    1
   153   130   129    1
   154    70    71    1
   155    70    72    1
   156    83    84    1
   157    29    28    2
   158   100   103    1
   159   100    99    1
   160    94    95    1
   161    94    91    1
   162    32    34   ar
   163    89    87   am
   164   171   168    1
   165    92    99   am
   166    92    91    1
   167   103   104    1
   168    95    96    1
   169    87    88    2
   170    99   105    1
   171    97    96   ar
   172   167   168    1
   173   104   105    1
   174   168   169    1
   175    96    98   ar
   176    91    90    1
   177   169   170    2
