@<TRIPOS>MOLECULE
tmp/4b3uC00.pdb
 130 127 0 0 0
SMALL
GASTEIGER

@<TRIPOS>ATOM
      1  N         28.8560  -22.2700   51.5630 N.3    50  LEU50      -0.1245
      2  CA        29.1500  -23.1300   52.7260 C.3    50  LEU50       0.1561
      3  C         28.2240  -24.3430   52.8640 C.2    50  LEU50       0.2260
      4  O         28.5920  -25.3350   53.5000 O.2    50  LEU50      -0.2867
      5  CB        29.1030  -22.3220   54.0140 C.3    50  LEU50       0.0270
      6  CG        30.1820  -21.2540   54.0960 C.3    50  LEU50       0.0019
      7  CD1       29.9000  -20.2780   55.2390 C.3    50  LEU50       0.0001
      8  CD2       31.5730  -21.8910   54.1990 C.3    50  LEU50       0.0001
      9  N         24.7750  -14.4860   58.3220 N.3   118  TYR118     -0.1227
     10  CA        24.9470  -15.4870   59.3540 C.3   118  TYR118      0.1736
     11  C         26.4070  -15.5970   59.7610 C.2   118  TYR118      0.2595
     12  O         27.2880  -15.5390   58.9100 O.2   118  TYR118     -0.2718
     13  CB        24.5110  -16.8490   58.8510 C.3   118  TYR118      0.0548
     14  CG        23.0460  -16.9350   58.5170 C.ar  118  TYR118     -0.0200
     15  CD1       22.1060  -17.2060   59.4890 C.ar  118  TYR118     -0.0009
     16  CD2       22.6190  -16.7400   57.2150 C.ar  118  TYR118     -0.0009
     17  CE1       20.7470  -17.2900   59.1730 C.ar  118  TYR118      0.0417
     18  CE2       21.2820  -16.8020   56.8820 C.ar  118  TYR118      0.0417
     19  CZ        20.3500  -17.0920   57.8530 C.ar  118  TYR118      0.1957
     20  OH        19.0240  -17.1480   57.4840 O.3   118  TYR118     -0.2866
     21  N         26.6540  -15.8090   61.0460 N.am  119  TYR119     -0.1962
     22  CA        28.0110  -15.9920   61.5380 C.3   119  TYR119      0.1771
     23  C         28.0110  -17.0030   62.6730 C.2   119  TYR119      0.2620
     24  O         27.1500  -16.9820   63.5550 O.2   119  TYR119     -0.2715
     25  CB        28.6120  -14.6550   62.0090 C.3   119  TYR119      0.0574
     26  CG        29.8580  -14.8390   62.8440 C.ar  119  TYR119     -0.0198
     27  CD1       31.0810  -15.0360   62.2410 C.ar  119  TYR119     -0.0009
     28  CD2       29.7940  -14.8950   64.2450 C.ar  119  TYR119     -0.0009
     29  CE1       32.2170  -15.2520   62.9950 C.ar  119  TYR119      0.0417
     30  CE2       30.9180  -15.1020   64.9990 C.ar  119  TYR119      0.0417
     31  CZ        32.1340  -15.2780   64.3720 C.ar  119  TYR119      0.1957
     32  OH        33.2840  -15.4900   65.0960 O.3   119  TYR119     -0.2866
     33  N         29.0020  -17.8870   62.6630 N.am  120  GLY120     -0.1954
     34  CA        29.1850  -18.8000   63.7660 C.3   120  GLY120      0.1869
     35  C         30.0280  -19.9770   63.3630 C.2   120  GLY120      0.2309
     36  O         30.5070  -20.0430   62.2210 O.2   120  GLY120     -0.2863
     37  N         29.3970  -23.7360   60.8990 N.3   123  PHE123     -0.1227
     38  CA        28.2060  -23.3520   60.1720 C.3   123  PHE123      0.1736
     39  C         28.1280  -24.2700   58.9680 C.2   123  PHE123      0.2595
     40  O         27.0520  -24.6970   58.5640 O.2   123  PHE123     -0.2718
     41  CB        28.2750  -21.8750   59.7610 C.3   123  PHE123      0.0547
     42  CG        26.9810  -21.3420   59.2410 C.ar  123  PHE123     -0.0202
     43  CD1       25.8470  -21.3550   60.0390 C.ar  123  PHE123     -0.0042
     44  CD2       26.8870  -20.8430   57.9580 C.ar  123  PHE123     -0.0042
     45  CE1       24.6390  -20.8780   59.5650 C.ar  123  PHE123     -0.0003
     46  CE2       25.6820  -20.3620   57.4760 C.ar  123  PHE123     -0.0003
     47  CZ        24.5570  -20.3810   58.2790 C.ar  123  PHE123     -0.0000
     48  N         29.3030  -24.5770   58.4280 N.am  124  HIS124     -0.1975
     49  CA        29.5080  -25.6740   57.4820 C.3   124  HIS124      0.1656
     50  C         28.7790  -26.9460   57.8700 C.2   124  HIS124      0.2291
     51  O         28.0600  -27.5210   57.0590 O.2   124  HIS124     -0.2864
     52  CB        31.0110  -25.9460   57.3680 C.3   124  HIS124      0.0771
     53  CG        31.4030  -26.7570   56.1570 C.ar  124  HIS124      0.0820
     54  ND1       31.1160  -28.0680   56.0360 N.ar  124  HIS124     -0.2267
     55  CD2       32.0990  -26.3970   55.0050 C.ar  124  HIS124      0.1154
     56  CE1       31.5920  -28.5230   54.8610 C.ar  124  HIS124      0.1986
     57  NE2       32.1940  -27.4990   54.2320 N.ar  124  HIS124     -0.2212
     58  N         40.5670  -10.8100   63.9800 N.3   251  GLN251     -0.1245
     59  CA        41.0330  -12.1030   63.5110 C.3   251  GLN251      0.1566
     60  C         42.0770  -12.0190   62.4150 C.2   251  GLN251      0.2260
     61  O         42.9130  -12.9150   62.3020 O.2   251  GLN251     -0.2867
     62  CB        39.8780  -12.9260   62.9660 C.3   251  GLN251      0.0367
     63  CG        38.9440  -13.4400   64.0280 C.3   251  GLN251      0.0905
     64  CD        37.8190  -14.2590   63.4450 C.2   251  GLN251      0.2608
     65  OE1       37.6710  -14.3820   62.2180 O.2   251  GLN251     -0.2717
     66  NE2       37.0070  -14.8010   64.3130 N.am  251  GLN251     -0.0878
     67  N         38.5530  -12.9130   57.0140 N.3   254  LYS254     -0.1231
     68  CA        37.2990  -12.3210   56.5430 C.3   254  LYS254      0.1693
     69  C         36.1070  -13.2350   56.7600 C.2   254  LYS254      0.2592
     70  O         36.2170  -14.4700   56.7600 O.2   254  LYS254     -0.2718
     71  CB        37.3970  -11.9570   55.0650 C.3   254  LYS254      0.0285
     72  CG        38.4430  -10.9000   54.7870 C.3   254  LYS254      0.0035
     73  CD        38.3430  -10.3900   53.3570 C.3   254  LYS254      0.0206
     74  CE        39.3340   -9.2680   53.0950 C.3   254  LYS254      0.1093
     75  NZ        39.1910   -8.0830   53.9870 N.3   254  LYS254     -0.1314
     76  N         34.9560  -12.6030   56.9510 N.am  255  VAL255     -0.1966
     77  CA        33.6630  -13.2810   56.9210 C.3   255  VAL255      0.1727
     78  C         33.0470  -13.0680   55.5310 C.2   255  VAL255      0.2616
     79  O         32.9370  -11.9440   55.0530 O.2   255  VAL255     -0.2715
     80  CB        32.6850  -12.7130   57.9730 C.3   255  VAL255      0.0290
     81  CG1       31.3330  -13.4270   57.8910 C.3   255  VAL255      0.0023
     82  CG2       33.2630  -12.8070   59.3780 C.3   255  VAL255      0.0023
     83  N         32.6460  -14.1620   54.9070 N.am  256  ALA256     -0.1963
     84  CA        31.9660  -14.1430   53.6040 C.3   256  ALA256      0.1728
     85  C         32.8170  -13.6260   52.4590 C.2   256  ALA256      0.2616
     86  O         32.3830  -12.7760   51.6970 O.2   256  ALA256     -0.2715
     87  CB        30.6630  -13.3560   53.6840 C.3   256  ALA256      0.0334
     88  N         34.0550  -14.1190   52.3600 N.am  257  CYS257     -0.1968
     89  CA        34.8940  -13.8470   51.2070 C.3   257  CYS257      0.1712
     90  C         34.6690  -15.0240   50.2420 C.2   257  CYS257      0.2296
     91  O         35.0910  -16.1460   50.5210 O.2   257  CYS257     -0.2864
     92  CB        36.3610  -13.6950   51.6330 C.3   257  CYS257      0.0983
     93  SG        37.5550  -13.6120   50.2770 S.3   257  CYS257     -0.0798
     94  N         37.8170  -17.0330   48.8930 N.3   260  GLU260     -0.1231
     95  CA        38.3350  -17.8980   49.9600 C.3   260  GLU260      0.1699
     96  C         37.5300  -19.1590   50.1200 C.2   260  GLU260      0.2592
     97  O         38.0810  -20.2530   50.1930 O.2   260  GLU260     -0.2718
     98  CB        38.3770  -17.1460   51.3020 C.3   260  GLU260      0.0402
     99  CG        38.7890  -18.0480   52.4680 C.3   260  GLU260      0.1161
    100  CD        39.0270  -17.3130   53.7800 C.2   260  GLU260      0.3649
    101  OE1       38.6010  -16.1370   53.9440 O.co2 260  GLU260     -0.2457
    102  OE2       39.6550  -17.9510   54.6580 O.co2 260  GLU260     -0.2457
    103  N         36.2070  -19.0090   50.2130 N.am  261  ILE261     -0.1980
    104  CA        35.3400  -20.1360   50.4260 C.3   261  ILE261      0.1595
    105  C         35.4020  -21.1210   49.2570 C.2   261  ILE261      0.2287
    106  O         35.4550  -22.3250   49.4740 O.2   261  ILE261     -0.2864
    107  CB        33.8900  -19.7190   50.6700 C.3   261  ILE261      0.0276
    108  CG1       33.7890  -18.9740   52.0080 C.3   261  ILE261      0.0022
    109  CG2       33.0190  -20.9570   50.6930 C.3   261  ILE261      0.0022
    110  CD1       32.4480  -18.2960   52.2610 C.3   261  ILE261      0.0001
    111  N         38.7800  -22.8790   49.5980 N.3   264  ARG264     -0.1231
    112  CA        38.7610  -23.8640   50.6720 C.3   264  ARG264      0.1694
    113  C         37.8900  -25.0770   50.3570 C.2   264  ARG264      0.2591
    114  O         38.1530  -26.1700   50.8680 O.2   264  ARG264     -0.2718
    115  CB        38.3930  -23.2060   52.0070 C.3   264  ARG264      0.0321
    116  CG        39.4680  -22.2410   52.4740 C.3   264  ARG264      0.0489
    117  CD        39.2850  -21.8220   53.9280 C.3   264  ARG264      0.2205
    118  NE        40.1630  -20.7110   54.2360 N.pl3 264  ARG264     -0.0865
    119  CZ        41.4890  -20.7990   54.3880 C.cat 264  ARG264      0.5346
    120  NH1       42.1220  -21.9710   54.2890 N.pl3 264  ARG264      0.1354
    121  NH2       42.1870  -19.7090   54.6450 N.pl3 264  ARG264      0.1354
    122  N         36.8800  -24.8990   49.5040 N.am  265  GLN265     -0.1979
    123  CA        35.9950  -25.9830   49.0840 C.3   265  GLN265      0.1601
    124  C         36.5710  -26.7900   47.9010 C.2   265  GLN265      0.2287
    125  O         35.9570  -27.7570   47.4630 O.2   265  GLN265     -0.2864
    126  CB        34.6230  -25.4240   48.6830 C.3   265  GLN265      0.0394
    127  CG        33.8420  -24.7480   49.8090 C.3   265  GLN265      0.0908
    128  CD        33.0570  -25.7160   50.6450 C.2   265  GLN265      0.2608
    129  OE1       33.5360  -26.8100   50.9650 O.2   265  GLN265     -0.2717
    130  NE2       31.8430  -25.3180   51.0290 N.am  265  GLN265     -0.0878
@<TRIPOS>BOND
     1   125   124    2
     2   124   123    1
     3   126   123    1
     4   126   127    1
     5    94    95    1
     6   123   122    1
     7   105   106    2
     8   105   104    1
     9   122   113   am
    10   111   112    1
    11   127   128    1
    12    95    96    1
    13    95    98    1
    14    96    97    2
    15    96   103   am
    16   103   104    1
    17    90    91    2
    18    90    89    1
    19    93    92    1
    20   113   112    1
    21   113   114    2
    22   104   107    1
    23   128   129    2
    24   128   130   am
    25   107   109    1
    26   107   108    1
    27   112   115    1
    28    89    92    1
    29    89    88    1
    30    98    99    1
    31     1     2    1
    32    86    85    2
    33   115   116    1
    34   108   110    1
    35    88    85   am
    36    85    84    1
    37    99   100    1
    38   116   117    1
    39     2     3    1
    40     2     5    1
    41     3     4    2
    42    74    73    1
    43    74    75    1
    44    73    72    1
    45    84    87    1
    46    84    83    1
    47   100   101   ar
    48   100   102   ar
    49   117   118    1
    50     5     6    1
    51     6     8    1
    52     6     7    1
    53    57    56   ar
    54    57    55   ar
    55   118   119    2
    56   120   119    1
    57   119   121    1
    58    72    71    1
    59    56    54   ar
    60    83    78   am
    61    55    53   ar
    62    79    78    2
    63    71    68    1
    64    78    77    1
    65    54    53   ar
    66    53    52    1
    67    68    69    1
    68    68    67    1
    69    69    70    2
    70    69    76   am
    71    18    16   ar
    72    18    19   ar
    73    77    76    1
    74    77    80    1
    75    51    50    2
    76    16    14   ar
    77    52    49    1
    78    46    44   ar
    79    46    47   ar
    80    49    50    1
    81    49    48    1
    82    20    19    1
    83    19    17   ar
    84    81    80    1
    85    44    42   ar
    86    80    82    1
    87    47    45   ar
    88     9    10    1
    89    48    39   am
    90    14    13    1
    91    14    15   ar
    92    40    39    2
    93    13    10    1
    94    12    11    2
    95    39    38    1
    96    17    15   ar
    97    42    41    1
    98    42    43   ar
    99    10    11    1
   100    45    43   ar
   101    11    21   am
   102    41    38    1
   103    38    37    1
   104    21    22    1
   105    22    25    1
   106    22    23    1
   107    25    26    1
   108    65    64    2
   109    36    35    2
   110    27    26   ar
   111    27    29   ar
   112    61    60    2
   113    60    59    1
   114    33    23   am
   115    33    34    1
   116    23    24    2
   117    26    28   ar
   118    62    59    1
   119    62    63    1
   120    29    31   ar
   121    35    34    1
   122    64    63    1
   123    64    66   am
   124    59    58    1
   125    28    30   ar
   126    31    30   ar
   127    31    32    1
