@<TRIPOS>MOLECULE
tmp/4b42D00.pdb
 146 143 0 0 0
SMALL
GASTEIGER

@<TRIPOS>ATOM
      1  N         26.0140   15.2090   51.8710 N.3    38  TYR38      -0.1241
      2  CA        26.7120   15.9660   52.9180 C.3    38  TYR38       0.1605
      3  C         27.5730   17.1500   52.3940 C.2    38  TYR38       0.2264
      4  O         27.3830   18.3070   52.8400 O.2    38  TYR38      -0.2867
      5  CB        27.5140   15.0380   53.8720 C.3    38  TYR38       0.0534
      6  CG        26.6500   14.0680   54.6460 C.ar   38  TYR38      -0.0201
      7  CD1       26.2340   12.8770   54.0830 C.ar   38  TYR38      -0.0009
      8  CD2       26.2090   14.3660   55.9780 C.ar   38  TYR38      -0.0009
      9  CE1       25.3560   12.0220   54.7580 C.ar   38  TYR38       0.0417
     10  CE2       25.3710   13.5080   56.6900 C.ar   38  TYR38       0.0417
     11  CZ        24.9400   12.3230   56.0850 C.ar   38  TYR38       0.1957
     12  OH        24.1420   11.4080   56.7850 O.3    38  TYR38      -0.2866
     13  N         25.1580   19.6360   50.7440 N.3    41  SER41      -0.1202
     14  CA        24.4660   20.4830   51.7320 C.3    41  SER41       0.2020
     15  C         25.4010   21.5860   52.2500 C.2    41  SER41       0.2619
     16  O         24.9850   22.6740   52.5470 O.2    41  SER41      -0.2717
     17  CB        23.9160   19.6580   52.8940 C.3    41  SER41       0.2103
     18  OG        22.8430   18.8070   52.5000 O.3    41  SER41      -0.2182
     19  N         26.6890   21.3000   52.3220 N.am   42  THR42      -0.1952
     20  CA        27.6670   22.2850   52.7590 C.3    42  THR42       0.1897
     21  C         27.7120   23.4560   51.8030 C.2    42  THR42       0.2313
     22  O         27.5410   24.6050   52.2150 O.2    42  THR42      -0.2863
     23  CB        29.0670   21.6740   52.8730 C.3    42  THR42       0.1794
     24  OG1       29.0260   20.5670   53.7520 O.3    42  THR42      -0.2208
     25  CG2       30.0350   22.6410   53.4020 C.3    42  THR42       0.0378
     26  N         24.7500   25.6100   52.2270 N.3    45  LEU45      -0.1245
     27  CA        24.7980   26.4790   53.4010 C.3    45  LEU45       0.1561
     28  C         25.6670   27.6720   53.1070 C.2    45  LEU45       0.2260
     29  O         25.3870   28.7590   53.5740 O.2    45  LEU45      -0.2867
     30  CB        25.3660   25.7280   54.6170 C.3    45  LEU45       0.0270
     31  CG        25.1110   26.3780   55.9930 C.3    45  LEU45       0.0019
     32  CD1       23.6300   26.4700   56.3680 C.3    45  LEU45       0.0001
     33  CD2       25.8700   25.5840   57.0470 C.3    45  LEU45       0.0001
     34  N         30.7720   17.5580   57.3640 N.3   113  TYR113     -0.1227
     35  CA        30.9380   18.6040   58.3460 C.3   113  TYR113      0.1736
     36  C         29.6460   18.7550   59.1950 C.2   113  TYR113      0.2595
     37  O         28.5500   18.6840   58.6580 O.2   113  TYR113     -0.2718
     38  CB        31.2140   19.9480   57.6840 C.3   113  TYR113      0.0548
     39  CG        32.4330   20.0120   56.7950 C.ar  113  TYR113     -0.0200
     40  CD1       33.6910   20.3010   57.3140 C.ar  113  TYR113     -0.0009
     41  CD2       32.3110   19.7970   55.4220 C.ar  113  TYR113     -0.0009
     42  CE1       34.8230   20.3240   56.4830 C.ar  113  TYR113      0.0417
     43  CE2       33.3990   19.8230   54.5920 C.ar  113  TYR113      0.0417
     44  CZ        34.6660   20.0790   55.1130 C.ar  113  TYR113      0.1957
     45  OH        35.7590   20.0860   54.2540 O.3   113  TYR113     -0.2866
     46  N         29.8130   18.9590   60.5150 N.am  114  TYR114     -0.1962
     47  CA        28.7040   19.2460   61.4230 C.3   114  TYR114      0.1774
     48  C         29.1270   20.1660   62.5440 C.2   114  TYR114      0.2659
     49  O         30.2200   20.0040   63.1010 O.2   114  TYR114     -0.2711
     50  CB        28.1780   17.9850   62.0490 C.3   114  TYR114      0.0574
     51  CG        27.3790   18.1630   63.3210 C.ar  114  TYR114     -0.0198
     52  CD1       27.9990   18.1540   64.5310 C.ar  114  TYR114     -0.0009
     53  CD2       26.0230   18.2680   63.3150 C.ar  114  TYR114     -0.0009
     54  CE1       27.3070   18.3050   65.7060 C.ar  114  TYR114      0.0417
     55  CE2       25.3020   18.3840   64.4950 C.ar  114  TYR114      0.0417
     56  CZ        25.9670   18.4180   65.6940 C.ar  114  TYR114      0.1957
     57  OH        25.2940   18.5400   66.8900 O.3   114  TYR114     -0.2866
     58  N         28.2620   21.1230   62.8590 N.am  115  GLY115     -0.1730
     59  CA        28.4090   21.9090   64.0590 C.2   115  GLY115      0.1340
     60  C         27.6470   23.2240   64.0850 C.2   115  GLY115      0.2521
     61  O         27.0160   23.5920   63.1040 O.2   115  GLY115     -0.2816
     62  N         27.6310   26.9730   61.5370 N.3   118  PHE118     -0.1227
     63  CA        28.3880   26.5760   60.3500 C.3   118  PHE118      0.1736
     64  C         28.1520   27.5760   59.2090 C.2   118  PHE118      0.2595
     65  O         29.0320   27.8150   58.4310 O.2   118  PHE118     -0.2718
     66  CB        28.0710   25.1090   59.9650 C.3   118  PHE118      0.0547
     67  CG        29.0170   24.5110   58.9380 C.ar  118  PHE118     -0.0202
     68  CD1       30.3980   24.7760   58.9680 C.ar  118  PHE118     -0.0042
     69  CD2       28.5300   23.6650   57.9550 C.ar  118  PHE118     -0.0042
     70  CE1       31.2580   24.2340   58.0250 C.ar  118  PHE118     -0.0003
     71  CE2       29.4030   23.1030   57.0060 C.ar  118  PHE118     -0.0003
     72  CZ        30.7690   23.4020   57.0350 C.ar  118  PHE118     -0.0000
     73  N         26.9800   28.1950   59.1560 N.am  119  HIS119     -0.1975
     74  CA        26.6890   29.2650   58.1720 C.3   119  HIS119      0.1656
     75  C         27.6570   30.4080   58.2670 C.2   119  HIS119      0.2291
     76  O         28.1420   30.9210   57.2410 O.2   119  HIS119     -0.2864
     77  CB        25.2410   29.7640   58.3470 C.3   119  HIS119      0.0771
     78  CG        24.7360   30.6590   57.2210 C.ar  119  HIS119      0.0820
     79  ND1       25.0500   31.9750   57.1420 N.ar  119  HIS119     -0.2267
     80  CD2       23.8870   30.3900   56.1300 C.ar  119  HIS119      0.1154
     81  CE1       24.4590   32.5110   56.0560 C.ar  119  HIS119      0.1986
     82  NE2       23.7500   31.5410   55.4390 N.ar  119  HIS119     -0.2212
     83  N         17.4800   16.0180   61.0600 N.3   247  LYS247     -0.1231
     84  CA        18.4800   15.3880   60.2300 C.3   247  LYS247      0.1693
     85  C         19.6300   16.3190   59.9830 C.2   247  LYS247      0.2592
     86  O         19.4340   17.5260   59.8710 O.2   247  LYS247     -0.2718
     87  CB        17.8680   14.9540   58.8950 C.3   247  LYS247      0.0285
     88  CG        16.7980   13.8590   59.0480 C.3   247  LYS247      0.0035
     89  CD        16.4870   13.1340   57.7400 C.3   247  LYS247      0.0206
     90  CE        15.6030   11.9140   57.9700 C.3   247  LYS247      0.1093
     91  NZ        16.2460   10.9220   58.8990 N.3   247  LYS247     -0.1314
     92  N         20.8320   15.7460   59.8980 N.am  248  VAL248     -0.1966
     93  CA        21.9980   16.4450   59.4210 C.3   248  VAL248      0.1727
     94  C         22.1140   16.3720   57.9080 C.2   248  VAL248      0.2616
     95  O         21.9450   15.3470   57.3070 O.2   248  VAL248     -0.2715
     96  CB        23.2790   15.8540   60.0050 C.3   248  VAL248      0.0290
     97  CG1       24.4680   16.6710   59.4900 C.3   248  VAL248      0.0023
     98  CG2       23.1830   15.8250   61.5090 C.3   248  VAL248      0.0023
     99  N         22.4350   17.4860   57.2900 N.am  249  ALA249     -0.1963
    100  CA        22.7570   17.5370   55.8530 C.3   249  ALA249      0.1728
    101  C         21.6690   16.9840   54.9270 C.2   249  ALA249      0.2616
    102  O         21.9960   16.3570   53.9550 O.2   249  ALA249     -0.2715
    103  CB        24.0960   16.8400   55.5460 C.3   249  ALA249      0.0334
    104  N         20.4090   17.2920   55.2150 N.am  250  CYS250     -0.1968
    105  CA        19.3040   17.0170   54.3330 C.3   250  CYS250      0.1712
    106  C         19.1600   18.1740   53.3360 C.2   250  CYS250      0.2296
    107  O         18.7760   19.2670   53.7470 O.2   250  CYS250     -0.2864
    108  CB        18.0600   16.9080   55.1900 C.3   250  CYS250      0.0983
    109  SG        16.5210   16.7570   54.3290 S.3   250  CYS250     -0.0798
    110  N         15.8070   20.1890   53.1200 N.3   253  GLU253     -0.1231
    111  CA        15.6120   21.0740   54.2480 C.3   253  GLU253      0.1699
    112  C         16.4510   22.3330   54.1040 C.2   253  GLU253      0.2592
    113  O         16.0030   23.4370   54.4130 O.2   253  GLU253     -0.2718
    114  CB        15.9630   20.3520   55.5400 C.3   253  GLU253      0.0402
    115  CG        16.1190   21.2590   56.7500 C.3   253  GLU253      0.1161
    116  CD        16.1670   20.4870   58.0590 C.2   253  GLU253      0.3649
    117  OE1       16.4880   19.3010   58.0540 O.co2 253  GLU253     -0.2457
    118  OE2       15.9070   21.0770   59.1020 O.co2 253  GLU253     -0.2457
    119  N         17.6830   22.1820   53.6580 N.am  254  ILE254     -0.1980
    120  CA        18.5210   23.3490   53.4650 C.3   254  ILE254      0.1595
    121  C         17.9030   24.2150   52.4000 C.2   254  ILE254      0.2287
    122  O         17.7720   25.4330   52.6020 O.2   254  ILE254     -0.2864
    123  CB        19.9740   22.9910   53.1630 C.3   254  ILE254      0.0276
    124  CG1       20.5710   22.3270   54.4150 C.3   254  ILE254      0.0022
    125  CG2       20.7310   24.2540   52.8150 C.3   254  ILE254      0.0022
    126  CD1       21.9930   21.8800   54.2330 C.3   254  ILE254      0.0001
    127  N         14.8340   26.0560   53.8770 N.3   257  ARG257     -0.1231
    128  CA        15.0980   27.0990   54.8690 C.3   257  ARG257      0.1694
    129  C         15.8150   28.2910   54.2720 C.2   257  ARG257      0.2591
    130  O         15.7320   29.3910   54.8150 O.2   257  ARG257     -0.2718
    131  CB        15.8990   26.5390   56.0540 C.3   257  ARG257      0.0321
    132  CG        15.0930   25.5810   56.8860 C.3   257  ARG257      0.0489
    133  CD        15.8180   25.1300   58.1450 C.3   257  ARG257      0.2205
    134  NE        15.1090   23.9920   58.7250 N.pl3 257  ARG257     -0.0865
    135  CZ        13.9560   24.0650   59.3730 C.cat 257  ARG257      0.5346
    136  NH1       13.3850   25.2400   59.5890 N.pl3 257  ARG257      0.1354
    137  NH2       13.3770   22.9560   59.8320 N.pl3 257  ARG257      0.1354
    138  N         16.5650   28.0720   53.1900 N.am  258  GLN258     -0.1979
    139  CA        17.2150   29.1680   52.4500 C.3   258  GLN258      0.1601
    140  C         16.2390   29.8660   51.5130 C.2   258  GLN258      0.2287
    141  O         16.6170   30.8500   50.8790 O.2   258  GLN258     -0.2864
    142  CB        18.3740   28.6590   51.6120 C.3   258  GLN258      0.0394
    143  CG        19.4640   27.9620   52.3960 C.3   258  GLN258      0.0908
    144  CD        20.5990   28.8650   52.7560 C.2   258  GLN258      0.2608
    145  OE1       20.3890   29.8830   53.3950 O.2   258  GLN258     -0.2717
    146  NE2       21.8160   28.4950   52.3700 N.am  258  GLN258     -0.0878
@<TRIPOS>BOND
     1    13    14    1
     2   141   140    2
     3   140   139    1
     4   142   143    1
     5   142   139    1
     6    14    15    1
     7    14    17    1
     8    21    22    2
     9    21    20    1
    10     1     2    1
    11    26    27    1
    12    15    19   am
    13    15    16    2
    14    19    20    1
    15   146   144   am
    16     3     4    2
    17     3     2    1
    18   143   144    1
    19   121   122    2
    20   121   120    1
    21   139   138    1
    22    18    17    1
    23   144   145    2
    24    20    23    1
    25   125   123    1
    26    23    25    1
    27    23    24    1
    28     2     5    1
    29    28    27    1
    30    28    29    2
    31   110   111    1
    32   123   120    1
    33   123   124    1
    34   138   129   am
    35   106   107    2
    36   106   105    1
    37    27    30    1
    38   120   119    1
    39   119   112   am
    40     5     6    1
    41   127   128    1
    42   102   101    2
    43     7     6   ar
    44     7     9   ar
    45   112   111    1
    46   112   113    2
    47   126   124    1
    48   111   114    1
    49    45    44    1
    50   129   130    2
    51   129   128    1
    52   109   108    1
    53   105   108    1
    54   105   104    1
    55    43    44   ar
    56    43    41   ar
    57    30    31    1
    58     6     8   ar
    59     9    11   ar
    60   128   131    1
    61   101   104   am
    62   101   100    1
    63    44    42   ar
    64    41    39   ar
    65    82    81   ar
    66    82    80   ar
    67   114   115    1
    68   103   100    1
    69   100    99    1
    70     8    10   ar
    71    31    32    1
    72    31    33    1
    73   131   132    1
    74    81    79   ar
    75    11    10   ar
    76    11    12    1
    77    80    78   ar
    78    42    40   ar
    79   115   116    1
    80    39    40   ar
    81    39    38    1
    82   132   133    1
    83    71    72   ar
    84    71    69   ar
    85    72    70   ar
    86    79    78   ar
    87    78    77    1
    88    76    75    2
    89    99    94   am
    90    95    94    2
    91    34    35    1
    92    38    35    1
    93    89    90    1
    94    89    88    1
    95    94    93    1
    96    69    67   ar
    97    90    91    1
    98    70    68   ar
    99   117   116   ar
   100   116   118   ar
   101   133   134    1
   102    74    75    1
   103    74    77    1
   104    74    73    1
   105    35    36    1
   106    65    64    2
   107    37    36    2
   108   134   135    2
   109    87    88    1
   110    87    84    1
   111    67    68   ar
   112    67    66    1
   113    73    64   am
   114    36    46   am
   115    64    63    1
   116   135   136    1
   117   135   137    1
   118    93    92    1
   119    93    96    1
   120    97    96    1
   121    86    85    2
   122    92    85   am
   123    66    63    1
   124    85    84    1
   125    96    98    1
   126    84    83    1
   127    63    62    1
   128    46    47    1
   129    47    50    1
   130    47    48    1
   131    50    51    1
   132    48    58    1
   133    48    49    2
   134    58    59    2
   135    61    60    2
   136    53    51   ar
   137    53    55   ar
   138    51    52   ar
   139    59    60    1
   140    55    56   ar
   141    52    54   ar
   142    56    54   ar
   143    56    57    1
