@<TRIPOS>MOLECULE
tmp/4b45A00.pdb
 186 174 0 0 0
SMALL
GASTEIGER

@<TRIPOS>ATOM
      1  N         -7.6650  -30.2110  -13.6690 N.3     8  VAL8       -0.1231
      2  CA        -8.2650  -31.3150  -14.4150 C.3     8  VAL8        0.1692
      3  C         -7.2630  -32.4630  -14.5400 C.2     8  VAL8        0.2593
      4  O         -6.1900  -32.3070  -15.1220 O.2     8  VAL8       -0.2718
      5  CB        -8.7440  -30.8750  -15.8140 C.3     8  VAL8        0.0266
      6  CG1       -9.3380  -32.0570  -16.5580 C.3     8  VAL8        0.0020
      7  CG2       -9.7760  -29.7630  -15.6970 C.3     8  VAL8        0.0020
      8  N         -7.6000  -33.6140  -13.9770 N.am    9  GLY9       -0.1942
      9  CA        -6.6420  -34.7010  -13.9420 C.3     9  GLY9        0.2014
     10  C         -5.7290  -34.6230  -12.7280 C.2     9  GLY9        0.2639
     11  O         -5.8090  -33.7110  -11.8890 O.2     9  GLY9       -0.2714
     12  N         -4.8290  -35.5870  -12.6400 N.am   10  GLN10      -0.1963
     13  CA        -4.0240  -35.7550  -11.4420 C.3    10  GLN10       0.1733
     14  C         -2.9750  -34.6520  -11.2310 C.2    10  GLN10       0.2616
     15  O         -2.8690  -34.0710  -10.1410 O.2    10  GLN10      -0.2715
     16  CB        -3.3590  -37.1280  -11.4810 C.3    10  GLN10       0.0408
     17  CG        -2.7460  -37.5240  -10.1740 C.3    10  GLN10       0.0908
     18  CD        -1.3350  -37.9780  -10.3510 C.2    10  GLN10       0.2608
     19  OE1       -0.4750  -37.2070  -10.7910 O.2    10  GLN10      -0.2717
     20  NE2       -1.0760  -39.2390  -10.0300 N.am   10  GLN10      -0.0878
     21  N         -2.1850  -34.3820  -12.2610 N.am   11  ALA11      -0.1963
     22  CA        -1.1890  -33.3200  -12.1860 C.3    11  ALA11       0.1728
     23  C         -1.8730  -31.9740  -11.9420 C.2    11  ALA11       0.2616
     24  O         -1.4370  -31.1900  -11.1040 O.2    11  ALA11      -0.2715
     25  CB        -0.3910  -33.2730  -13.4690 C.3    11  ALA11       0.0334
     26  N         -2.9490  -31.7130  -12.6780 N.am   12  GLY12      -0.1955
     27  CA        -3.6720  -30.4550  -12.5450 C.3    12  GLY12       0.1869
     28  C         -4.1800  -30.1960  -11.1340 C.2    12  GLY12       0.2309
     29  O         -4.0980  -29.0770  -10.6200 O.2    12  GLY12      -0.2863
     30  N         -2.9530  -31.4800   -8.4020 N.3    14  LYS14      -0.1231
     31  CA        -1.7860  -31.3090   -7.5480 C.3    14  LYS14       0.1693
     32  C         -1.1990  -29.8920   -7.6620 C.2    14  LYS14       0.2591
     33  O         -0.8780  -29.2560   -6.6580 O.2    14  LYS14      -0.2718
     34  CB        -0.7230  -32.3570   -7.8730 C.3    14  LYS14       0.0285
     35  CG        -0.9310  -33.6940   -7.1670 C.3    14  LYS14       0.0035
     36  CD         0.4010  -34.4480   -7.0450 C.3    14  LYS14       0.0206
     37  CE         0.4280  -35.7220   -7.9030 C.3    14  LYS14       0.1093
     38  NZ         1.8100  -36.2960   -8.0840 N.3    14  LYS14      -0.1314
     39  N         -1.0590  -29.4010   -8.8850 N.am   15  LEU15      -0.1980
     40  CA        -0.5320  -28.0570   -9.0890 C.3    15  LEU15       0.1596
     41  C         -1.5290  -27.0130   -8.5900 C.2    15  LEU15       0.2287
     42  O         -1.1430  -26.0480   -7.9380 O.2    15  LEU15      -0.2864
     43  CB        -0.1690  -27.8280  -10.5610 C.3    15  LEU15       0.0297
     44  CG         0.4220  -26.4630  -10.9440 C.3    15  LEU15       0.0022
     45  CD1        1.5960  -26.1230  -10.0460 C.3    15  LEU15       0.0001
     46  CD2        0.8420  -26.4630  -12.4060 C.3    15  LEU15       0.0001
     47  N        -11.5770  -34.8650  -11.7830 N.3    38  ASN38      -0.1240
     48  CA       -10.8410  -36.0620  -12.1950 C.3    38  ASN38       0.1653
     49  C        -11.7830  -37.2250  -12.4180 C.2    38  ASN38       0.2266
     50  O        -12.9720  -37.1290  -12.1190 O.2    38  ASN38      -0.2867
     51  CB        -9.8210  -36.4530  -11.1340 C.3    38  ASN38       0.1155
     52  CG        -8.6220  -37.1630  -11.7160 C.2    38  ASN38       0.2627
     53  OD1       -8.7040  -37.7970  -12.7680 O.2    38  ASN38      -0.2716
     54  ND2       -7.4890  -37.0410  -11.0400 N.am   38  ASN38      -0.0877
     55  N         -7.1290  -40.0900   -6.6100 N.3    43  ASP43      -0.1239
     56  CA        -6.4620  -38.8060   -6.8040 C.3    43  ASP43       0.1674
     57  C         -7.1570  -37.6820   -6.0600 C.2    43  ASP43       0.2266
     58  O         -6.5120  -36.7930   -5.5090 O.2    43  ASP43      -0.2867
     59  CB        -6.4200  -38.4410   -8.2860 C.3    43  ASP43       0.1410
     60  CG        -5.5150  -39.3520   -9.0830 C.2    43  ASP43       0.3668
     61  OD1       -4.8200  -40.1780   -8.4550 O.co2  43  ASP43      -0.2456
     62  OD2       -5.4960  -39.2340  -10.3320 O.co2  43  ASP43      -0.2456
     63  N         -9.8340  -43.6720  -13.5260 N.3    63  GLY63      -0.1210
     64  CA        -9.0700  -42.9230  -14.5130 C.3    63  GLY63       0.1956
     65  C         -9.2700  -43.4400  -15.9230 C.2    63  GLY63       0.2612
     66  O         -9.9160  -44.4720  -16.1170 O.2    63  GLY63      -0.2717
     67  N         -8.7140  -42.7380  -16.9100 N.am   64  VAL64      -0.1965
     68  CA        -8.8810  -43.1460  -18.3090 C.3    64  VAL64       0.1727
     69  C         -7.6020  -43.6910  -18.9320 C.2    64  VAL64       0.2617
     70  O         -7.5640  -43.9590  -20.1370 O.2    64  VAL64      -0.2715
     71  CB        -9.4450  -42.0100  -19.2010 C.3    64  VAL64       0.0290
     72  CG1      -10.7670  -41.4740  -18.6300 C.3    64  VAL64       0.0023
     73  CG2       -8.4230  -40.8760  -19.3680 C.3    64  VAL64       0.0023
     74  N         -6.5640  -43.8580  -18.1140 N.am   65  GLY65      -0.1940
     75  CA        -5.3580  -44.5710  -18.5200 C.3    65  GLY65       0.2014
     76  C         -4.6830  -44.0280  -19.7660 C.2    65  GLY65       0.2639
     77  O         -4.2360  -44.7880  -20.6280 O.2    65  GLY65      -0.2714
     78  N         -4.6340  -42.7050  -19.8740 N.am   66  GLY66      -0.1954
     79  CA        -3.8570  -42.0500  -20.9130 C.3    66  GLY66       0.1869
     80  C         -4.6220  -41.9670  -22.2100 C.2    66  GLY66       0.2309
     81  O         -4.0680  -41.5810  -23.2290 O.2    66  GLY66      -0.2863
     82  N         -2.0260  -31.2780  -16.6610 N.3   102  GLY102     -0.1225
     83  CA        -0.9290  -31.9850  -17.2870 C.3   102  GLY102      0.1811
     84  C         -1.3530  -32.3270  -18.7000 C.2   102  GLY102      0.2280
     85  O         -2.3290  -33.0410  -18.9030 O.2   102  GLY102     -0.2866
     86  N          0.0460  -34.2020  -20.9590 N.3   104  GLY104     -0.1210
     87  CA         0.3880  -35.5270  -21.4490 C.3   104  GLY104      0.1956
     88  C         -0.5390  -36.6570  -21.0010 C.2   104  GLY104      0.2612
     89  O         -0.5340  -37.7370  -21.5860 O.2   104  GLY104     -0.2717
     90  N         -1.3240  -36.4170  -19.9570 N.am  105  GLY105     -0.1942
     91  CA        -2.1920  -37.4340  -19.3900 C.3   105  GLY105      0.2014
     92  C         -3.3780  -37.7570  -20.2800 C.2   105  GLY105      0.2639
     93  O         -3.3670  -37.4770  -21.4690 O.2   105  GLY105     -0.2714
     94  N         -4.3940  -38.3880  -19.7120 N.am  106  GLY106     -0.1939
     95  CA        -5.5990  -38.6910  -20.4600 C.3   106  GLY106      0.2014
     96  C         -6.6890  -37.7080  -20.0830 C.2   106  GLY106      0.2640
     97  O         -7.3130  -37.1010  -20.9470 O.2   106  GLY106     -0.2714
     98  N         -6.8900  -37.5290  -18.7790 N.am  107  SER107     -0.1935
     99  CA        -7.9750  -36.7010  -18.2690 C.3   107  SER107      0.2055
    100  C         -7.7480  -35.2140  -18.5210 C.2   107  SER107      0.2643
    101  O         -8.6110  -34.5340  -19.0780 O.2   107  SER107     -0.2714
    102  CB        -8.1840  -36.9430  -16.7740 C.3   107  SER107      0.2130
    103  OG        -8.8500  -38.1710  -16.5540 O.3   107  SER107     -0.2179
    104  N         -6.5930  -34.7130  -18.1000 N.am  108  GLY108     -0.1954
    105  CA        -6.2720  -33.3130  -18.2860 C.3   108  GLY108      0.1869
    106  C         -6.1770  -33.0290  -19.7640 C.2   108  GLY108      0.2309
    107  O         -6.8070  -32.1080  -20.2720 O.2   108  GLY108     -0.2863
    108  N          1.0040  -28.2480  -18.1650 N.3   132  ILE132     -0.1245
    109  CA         2.2800  -28.9340  -17.8970 C.3   132  ILE132      0.1561
    110  C          2.7400  -29.7870  -19.0690 C.2   132  ILE132      0.2260
    111  O          2.0640  -30.7460  -19.4760 O.2   132  ILE132     -0.2867
    112  CB         2.2090  -29.8100  -16.6400 C.3   132  ILE132      0.0252
    113  CG1        1.9900  -28.9420  -15.4000 C.3   132  ILE132      0.0019
    114  CG2        3.4840  -30.6320  -16.4770 C.3   132  ILE132      0.0019
    115  CD1        1.2220  -29.6540  -14.2930 C.3   132  ILE132      0.0001
    116  N          5.1010  -32.5430  -20.8060 N.3   134  PRO134     -0.2116
    117  CA         5.7910  -33.7280  -20.2940 C.3   134  PRO134      0.1372
    118  C          7.2830  -33.6220  -20.5300 C.2   134  PRO134      0.2244
    119  O          7.7120  -33.0230  -21.5120 O.2   134  PRO134     -0.2868
    120  CB         5.2290  -34.8660  -21.1590 C.3   134  PRO134      0.0268
    121  CG         4.8260  -34.2060  -22.4320 C.3   134  PRO134      0.0207
    122  CD         4.3330  -32.8310  -22.0300 C.3   134  PRO134      0.0892
    123  N          9.5410  -38.8950  -21.3170 N.3   138  GLU138     -0.1245
    124  CA         8.2370  -39.5480  -21.1520 C.3   138  GLU138      0.1567
    125  C          7.8090  -40.2700  -22.4250 C.2   138  GLU138      0.2260
    126  O          8.2600  -39.9370  -23.5240 O.2   138  GLU138     -0.2867
    127  CB         7.1650  -38.5450  -20.7040 C.3   138  GLU138      0.0388
    128  CG         7.3870  -38.0000  -19.2950 C.3   138  GLU138      0.1160
    129  CD         6.2300  -37.1510  -18.7880 C.2   138  GLU138      0.3649
    130  OE1        5.0640  -37.5220  -19.0320 O.co2 138  GLU138     -0.2457
    131  OE2        6.4850  -36.1080  -18.1440 O.co2 138  GLU138     -0.2457
    132  N          2.3800  -40.0390  -24.1980 N.3   142  TYR142     -0.1241
    133  CA         2.2640  -38.7960  -23.4640 C.3   142  TYR142      0.1605
    134  C          2.6810  -37.6000  -24.3220 C.2   142  TYR142      0.2264
    135  O          2.0980  -36.5140  -24.2140 O.2   142  TYR142     -0.2867
    136  CB         3.0880  -38.8810  -22.1730 C.3   142  TYR142      0.0534
    137  CG         2.7120  -40.0880  -21.3470 C.ar  142  TYR142     -0.0201
    138  CD1        1.5010  -40.1280  -20.6660 C.ar  142  TYR142     -0.0009
    139  CD2        3.5450  -41.2040  -21.2760 C.ar  142  TYR142     -0.0009
    140  CE1        1.1330  -41.2330  -19.9240 C.ar  142  TYR142      0.0417
    141  CE2        3.1920  -42.3120  -20.5230 C.ar  142  TYR142      0.0417
    142  CZ         1.9770  -42.3170  -19.8530 C.ar  142  TYR142      0.1957
    143  OH         1.5910  -43.4010  -19.1030 O.3   142  TYR142     -0.2866
    144  N          4.4080  -24.8770  -18.4130 N.3   163  VAL163     -0.1245
    145  CA         5.4330  -25.3420  -17.5010 C.3   163  VAL163      0.1561
    146  C          6.1080  -26.5610  -18.1040 C.2   163  VAL163      0.2260
    147  O          5.4640  -27.5890  -18.3420 O.2   163  VAL163     -0.2867
    148  CB         4.8090  -25.7860  -16.1650 C.3   163  VAL163      0.0252
    149  CG1        5.8780  -26.3700  -15.2480 C.3   163  VAL163      0.0019
    150  CG2        4.0840  -24.6330  -15.5130 C.3   163  VAL163      0.0019
    151  N          8.2990  -29.5750  -17.3560 N.3   165  ASN165     -0.1240
    152  CA         8.7900  -30.3890  -16.2450 C.3   165  ASN165      0.1653
    153  C         10.2970  -30.5860  -16.2880 C.2   165  ASN165      0.2266
    154  O         10.9630  -30.6410  -15.2530 O.2   165  ASN165     -0.2867
    155  CB         8.0990  -31.7670  -16.2180 C.3   165  ASN165      0.1155
    156  CG         6.7630  -31.7360  -15.4880 C.2   165  ASN165      0.2627
    157  OD1        6.3430  -30.6810  -15.0030 O.2   165  ASN165     -0.2716
    158  ND2        6.0810  -32.9000  -15.4110 N.am  165  ASN165     -0.0877
    159  N          8.2020  -33.9590   -8.4670 N.3   179  TYR179     -0.1241
    160  CA         6.9070  -33.3940   -8.8280 C.3   179  TYR179      0.1605
    161  C          6.4860  -32.3100   -7.8550 C.2   179  TYR179      0.2264
    162  O          6.0270  -31.2570   -8.2730 O.2   179  TYR179     -0.2867
    163  CB         5.8340  -34.4720   -8.8660 C.3   179  TYR179      0.0534
    164  CG         5.8270  -35.3010  -10.1270 C.ar  179  TYR179     -0.0201
    165  CD1        6.0520  -34.7190  -11.3670 C.ar  179  TYR179     -0.0009
    166  CD2        5.5770  -36.6720  -10.0740 C.ar  179  TYR179     -0.0009
    167  CE1        6.0370  -35.4800  -12.5230 C.ar  179  TYR179      0.0417
    168  CE2        5.5630  -37.4360  -11.2160 C.ar  179  TYR179      0.0417
    169  CZ         5.7910  -36.8390  -12.4410 C.ar  179  TYR179      0.1957
    170  OH         5.7770  -37.6080  -13.5830 O.3   179  TYR179     -0.2866
    171  N          8.6040  -29.2370   -8.4740 N.3   182  ILE182     -0.1231
    172  CA         8.1330  -28.4960   -9.6460 C.3   182  ILE182      0.1692
    173  C          6.8860  -27.7000   -9.3120 C.2   182  ILE182      0.2592
    174  O          6.7780  -26.5160   -9.6300 O.2   182  ILE182     -0.2718
    175  CB         7.7690  -29.4210  -10.8060 C.3   182  ILE182      0.0266
    176  CG1        8.9920  -30.2140  -11.2690 C.3   182  ILE182      0.0019
    177  CG2        7.1750  -28.6130  -11.9550 C.3   182  ILE182      0.0020
    178  CD1        8.6460  -31.3380  -12.2390 C.3   182  ILE182      0.0001
    179  N          5.9410  -28.3540   -8.6560 N.am  183  ASN183     -0.1974
    180  CA         4.6930  -27.6950   -8.3220 C.3   183  ASN183      0.1688
    181  C          4.9260  -26.4880   -7.4280 C.2   183  ASN183      0.2292
    182  O          4.2850  -25.4410   -7.5830 O.2   183  ASN183     -0.2864
    183  CB         3.7450  -28.6680   -7.6270 C.3   183  ASN183      0.1181
    184  CG         3.2850  -29.7770   -8.5330 C.2   183  ASN183      0.2629
    185  OD1        3.4100  -29.6960   -9.7620 O.2   183  ASN183     -0.2716
    186  ND2        2.7360  -30.8230   -7.9370 N.am  183  ASN183     -0.0877
@<TRIPOS>BOND
     1   134   135    2
     2   134   133    1
     3   132   133    1
     4   126   125    2
     5   133   136    1
     6    81    80    2
     7   121   122    1
     8   121   120    1
     9   125   124    1
    10    80    79    1
    11   136   137    1
    12   122   116    1
    13    89    88    2
    14   119   118    2
    15    93    92    2
    16    87    88    1
    17    87    86    1
    18   137   139   ar
    19   137   138   ar
    20   123   124    1
    21   139   141   ar
    22   120   117    1
    23   124   127    1
    24    88    90   am
    25    97    96    2
    26    79    78    1
    27   116   117    1
    28   127   128    1
    29   138   140   ar
    30    77    76    2
    31   118   117    1
    32   141   142   ar
    33    95    96    1
    34    95    94    1
    35    92    94   am
    36    92    91    1
    37   107   106    2
    38    70    69    2
    39    96    98   am
    40    90    91    1
    41   140   142   ar
    42    78    76   am
    43   142   143    1
    44    76    75    1
    45   106   105    1
    46   111   110    2
    47    73    71    1
    48   128   129    1
    49    71    72    1
    50    71    68    1
    51   101   100    2
    52   110   109    1
    53   130   129   ar
    54    69    68    1
    55    69    74   am
    56    85    84    2
    57   129   131   ar
    58    98    99    1
    59    84    83    1
    60   100    99    1
    61   100   104   am
    62    75    74    1
    63   144   145    1
    64   147   146    2
    65    68    67    1
    66   105   104    1
    67    99   102    1
    68   108   109    1
    69   146   145    1
    70   109   112    1
    71   145   148    1
    72   151   152    1
    73    83    82    1
    74    67    65   am
    75   102   103    1
    76   112   114    1
    77   112   113    1
    78     6     5    1
    79   153   152    1
    80   153   154    2
    81   152   155    1
    82   155   156    1
    83   148   150    1
    84   148   149    1
    85    66    65    2
    86    65    64    1
    87     5     7    1
    88     5     2    1
    89   156   158   am
    90   156   157    2
    91   113   115    1
    92     4     3    2
    93     3     2    1
    94     3     8   am
    95    64    63    1
    96     2     1    1
    97     8     9    1
    98     9    10    1
    99   170   169    1
   100    25    22    1
   101    53    52    2
   102    10    12   am
   103    10    11    2
   104    26    27    1
   105    26    23   am
   106    12    13    1
   107    27    28    1
   108   167   169   ar
   109   167   165   ar
   110   169   168   ar
   111    49    48    1
   112    49    50    2
   113    46    44    1
   114    21    22    1
   115    21    14   am
   116   178   176    1
   117    48    47    1
   118    48    51    1
   119    22    23    1
   120   177   175    1
   121    23    24    2
   122    52    51    1
   123    52    54   am
   124    16    13    1
   125    16    17    1
   126    13    14    1
   127   165   164   ar
   128   176   175    1
   129    14    15    2
   130   168   166   ar
   131    28    29    2
   132    44    43    1
   133    44    45    1
   134   175   172    1
   135    19    18    2
   136    43    40    1
   137    18    17    1
   138    18    20   am
   139    62    60   ar
   140   164   166   ar
   141   164   163    1
   142   185   184    2
   143   172   173    1
   144   172   171    1
   145   174   173    2
   146   173   179   am
   147    40    39    1
   148    40    41    1
   149    60    61   ar
   150    60    59    1
   151    39    32   am
   152   163   160    1
   153   160   159    1
   154   160   161    1
   155   179   180    1
   156    41    42    2
   157   184   186   am
   158   184   183    1
   159    30    31    1
   160   180   183    1
   161   180   181    1
   162    59    56    1
   163   162   161    2
   164    38    37    1
   165    37    36    1
   166    34    31    1
   167    34    35    1
   168    32    31    1
   169    32    33    2
   170   182   181    2
   171    35    36    1
   172    56    55    1
   173    56    57    1
   174    57    58    2
