@<TRIPOS>MOLECULE
tmp/4b46A00.pdb
 190 180 0 0 0
SMALL
GASTEIGER

@<TRIPOS>ATOM
      1  N        -12.1040   -5.8860   15.1740 N.3     8  PHE8       -0.1227
      2  CA       -11.5450   -4.7820   15.9540 C.3     8  PHE8        0.1736
      3  C        -10.0230   -4.8290   15.8670 C.2     8  PHE8        0.2596
      4  O         -9.4140   -5.8480   16.1960 O.2     8  PHE8       -0.2718
      5  CB       -11.9930   -4.8730   17.4200 C.3     8  PHE8        0.0547
      6  CG       -12.4260   -3.5490   18.0090 C.ar    8  PHE8       -0.0202
      7  CD1      -11.5120   -2.5270   18.2000 C.ar    8  PHE8       -0.0042
      8  CD2      -13.7420   -3.3320   18.3680 C.ar    8  PHE8       -0.0042
      9  CE1      -11.9040   -1.3080   18.7450 C.ar    8  PHE8       -0.0003
     10  CE2      -14.1460   -2.1130   18.9090 C.ar    8  PHE8       -0.0003
     11  CZ       -13.2210   -1.1000   19.0960 C.ar    8  PHE8       -0.0000
     12  N         -9.4060   -3.7330   15.4200 N.am    9  GLY9       -0.1942
     13  CA        -7.9660   -3.7300   15.2090 C.3     9  GLY9        0.2014
     14  C         -7.6220   -4.3410   13.8580 C.2     9  GLY9        0.2639
     15  O         -8.5040   -4.7980   13.1260 O.2     9  GLY9       -0.2714
     16  N         -6.3370   -4.3740   13.5280 N.am   10  GLN10      -0.1963
     17  CA        -5.9220   -4.8110   12.2020 C.3    10  GLN10       0.1733
     18  C         -6.1800   -6.3000   11.9280 C.2    10  GLN10       0.2616
     19  O         -6.6760   -6.6610   10.8590 O.2    10  GLN10      -0.2715
     20  CB        -4.4480   -4.4560   11.9490 C.3    10  GLN10       0.0408
     21  CG        -3.9950   -4.8330   10.5550 C.3    10  GLN10       0.0908
     22  CD        -2.5170   -4.6250   10.3360 C.2    10  GLN10       0.2608
     23  OE1       -1.7560   -4.4440   11.2810 O.2    10  GLN10      -0.2717
     24  NE2       -2.1030   -4.6510    9.0820 N.am   10  GLN10      -0.0878
     25  N         -5.8390   -7.1540   12.8850 N.am   11  ALA11      -0.1963
     26  CA        -6.0640   -8.6000   12.7570 C.3    11  ALA11       0.1728
     27  C         -7.5530   -8.9460   12.6540 C.2    11  ALA11       0.2616
     28  O         -7.9680   -9.6780   11.7570 O.2    11  ALA11      -0.2715
     29  CB        -5.4430   -9.3400   13.9350 C.3    11  ALA11       0.0334
     30  N         -8.3420   -8.4280   13.5890 N.am   12  GLY12      -0.1955
     31  CA        -9.7790   -8.6410   13.5830 C.3    12  GLY12       0.1869
     32  C        -10.3910   -8.2200   12.2640 C.2    12  GLY12       0.2309
     33  O        -11.2520   -8.9120   11.7230 O.2    12  GLY12      -0.2863
     34  N         -8.8820   -8.0290    9.2540 N.3    14  LYS14      -0.1231
     35  CA        -8.4730   -8.9170    8.1670 C.3    14  LYS14       0.1693
     36  C         -9.2180  -10.2540    8.2340 C.2    14  LYS14       0.2591
     37  O         -9.5720  -10.8420    7.2100 O.2    14  LYS14      -0.2718
     38  CB        -6.9530   -9.1410    8.1890 C.3    14  LYS14       0.0285
     39  CG        -6.1470   -7.8970    7.8060 C.3    14  LYS14       0.0035
     40  CD        -4.6770   -8.0430    8.1600 C.3    14  LYS14       0.0206
     41  CE        -4.0230   -9.1840    7.4060 C.3    14  LYS14       0.1093
     42  NZ        -2.5870   -9.3550    7.8020 N.3    14  LYS14      -0.1314
     43  N         -9.4560  -10.7320    9.4430 N.am   15  VAL15      -0.1980
     44  CA       -10.1640  -11.9960    9.6140 C.3    15  VAL15       0.1595
     45  C        -11.6310  -11.8720    9.1940 C.2    15  VAL15       0.2287
     46  O        -12.1430  -12.7250    8.4610 O.2    15  VAL15      -0.2864
     47  CB       -10.0070  -12.5300   11.0520 C.3    15  VAL15       0.0276
     48  CG1      -10.9550  -13.7280   11.3120 C.3    15  VAL15       0.0022
     49  CG2       -8.5370  -12.9210   11.2870 C.3    15  VAL15       0.0022
     50  N        -11.2200    0.4400   13.7220 N.3    38  ASN38      -0.1240
     51  CA        -9.7760    0.5970   13.8940 C.3    38  ASN38       0.1653
     52  C         -9.4270    2.0510   14.1860 C.2    38  ASN38       0.2266
     53  O        -10.2560    2.9470   13.9880 O.2    38  ASN38      -0.2867
     54  CB        -9.0170    0.0750   12.6600 C.3    38  ASN38       0.1155
     55  CG        -7.5970   -0.4250   12.9900 C.2    38  ASN38       0.2627
     56  OD1       -6.9250    0.0880   13.8900 O.2    38  ASN38      -0.2716
     57  ND2       -7.1410   -1.4270   12.2440 N.am   38  ASN38      -0.0877
     58  N         -5.1040    0.7940    7.7500 N.3    43  ASP43      -0.1239
     59  CA        -5.6360   -0.5670    7.8950 C.3    43  ASP43       0.1674
     60  C         -7.0230   -0.7000    7.2860 C.2    43  ASP43       0.2266
     61  O         -7.3110   -1.6750    6.5930 O.2    43  ASP43      -0.2867
     62  CB        -5.6990   -0.9890    9.3720 C.3    43  ASP43       0.1410
     63  CG        -4.3260   -1.0710   10.0190 C.2    43  ASP43       0.3668
     64  OD1       -3.3250   -0.8600    9.3080 O.co2  43  ASP43      -0.2456
     65  OD2       -4.2440   -1.3430   11.2350 O.co2  43  ASP43      -0.2456
     66  N         -0.6490    1.7820   18.4200 N.3    69  GLY69      -0.1225
     67  CA         0.4580    0.8510   18.5400 C.3    69  GLY69       0.1811
     68  C         -0.0110   -0.3300   19.3750 C.2    69  GLY69       0.2280
     69  O         -1.0600   -0.9070   19.1020 O.2    69  GLY69      -0.2866
     70  N         -7.3600   -9.5900   17.5930 N.3   106  GLY106     -0.1225
     71  CA        -6.0980  -10.0660   18.1320 C.3   106  GLY106      0.1811
     72  C         -5.9820   -9.4980   19.5300 C.2   106  GLY106      0.2280
     73  O         -6.4050   -8.3680   19.7790 O.2   106  GLY106     -0.2866
     74  N         -3.0500   -9.3410   21.3140 N.3   108  GLY108     -0.1210
     75  CA        -1.6810   -8.9460   21.6220 C.3   108  GLY108      0.1956
     76  C         -1.3360   -7.4870   21.3660 C.2   108  GLY108      0.2612
     77  O         -0.2760   -7.0270   21.8060 O.2   108  GLY108     -0.2717
     78  N         -2.2170   -6.7630   20.6720 N.am  109  GLY109     -0.1942
     79  CA        -1.9350   -5.3910   20.2600 C.3   109  GLY109      0.2014
     80  C         -2.5610   -4.3140   21.1340 C.2   109  GLY109      0.2639
     81  O         -2.6260   -4.4530   22.3460 O.2   109  GLY109     -0.2714
     82  N         -3.0150   -3.2230   20.5210 N.am  110  GLY110     -0.1939
     83  CA        -3.5670   -2.1160   21.2790 C.3   110  GLY110      0.2014
     84  C         -5.0340   -1.8000   21.0090 C.2   110  GLY110      0.2640
     85  O         -5.8270   -1.6620   21.9350 O.2   110  GLY110     -0.2714
     86  N         -5.3880   -1.6670   19.7380 N.am  111  THR111     -0.1936
     87  CA        -6.7260   -1.2370   19.3610 C.3   111  THR111      0.2028
     88  C         -7.7540   -2.3270   19.6560 C.2   111  THR111      0.2643
     89  O         -8.7190   -2.1030   20.3960 O.2   111  THR111     -0.2714
     90  CB        -6.7630   -0.8320   17.8790 C.3   111  THR111      0.1808
     91  OG1       -5.9580    0.3340   17.7030 O.3   111  THR111     -0.2208
     92  CG2       -8.1750   -0.5010   17.4280 C.3   111  THR111      0.0379
     93  N         -7.5260   -3.5100   19.0960 N.am  112  GLY112     -0.1939
     94  CA        -8.4210   -4.6360   19.3100 C.3   112  GLY112      0.2014
     95  C         -8.3520   -5.1390   20.7390 C.2   112  GLY112      0.2639
     96  O         -9.3680   -5.3940   21.3670 O.2   112  GLY112     -0.2714
     97  N         -7.1320   -5.2720   21.2450 N.am  113  SER113     -0.1949
     98  CA        -6.8900   -5.7560   22.5970 C.3   113  SER113      0.1924
     99  C         -7.6810   -4.9580   23.6420 C.2   113  SER113      0.2314
    100  O         -8.3380   -5.5320   24.5170 O.2   113  SER113     -0.2863
    101  CB        -5.3860   -5.6770   22.8850 C.3   113  SER113      0.2116
    102  OG        -5.0850   -6.0370   24.2170 O.3   113  SER113     -0.2180
    103  N         -7.8140  -13.8500   19.3450 N.3   136  ILE136     -0.1231
    104  CA        -6.6660  -14.4710   18.7100 C.3   136  ILE136      0.1692
    105  C         -5.4030  -14.1830   19.5220 C.2   136  ILE136      0.2592
    106  O         -4.9980  -13.0200   19.6610 O.2   136  ILE136     -0.2718
    107  CB        -6.5050  -13.9590   17.2760 C.3   136  ILE136      0.0266
    108  CG1       -7.7180  -14.3590   16.4330 C.3   136  ILE136      0.0019
    109  CG2       -5.1860  -14.4510   16.6870 C.3   136  ILE136      0.0020
    110  CD1       -7.8440  -13.6030   15.1180 C.3   136  ILE136      0.0001
    111  N         -4.8030  -15.2370   20.0810 N.am  137  LEU137     -0.1966
    112  CA        -3.6350  -15.0930   20.9470 C.3   137  LEU137      0.1713
    113  C         -2.3710  -14.9350   20.1260 C.2   137  LEU137      0.2458
    114  O         -2.2910  -15.4470   19.0080 O.2   137  LEU137     -0.2730
    115  CB        -3.4970  -16.2980   21.8910 C.3   137  LEU137      0.0310
    116  CG        -4.7200  -16.5550   22.7690 C.3   137  LEU137      0.0022
    117  CD1       -4.4730  -17.7210   23.7380 C.3   137  LEU137      0.0001
    118  CD2       -5.1090  -15.2980   23.5120 C.3   137  LEU137      0.0001
    119  N         -1.3690  -14.2270   20.6790 N.am  138  PRO138     -0.2727
    120  CA        -0.1670  -13.9290   19.8990 C.3   138  PRO138      0.1402
    121  C          0.7970  -15.0980   19.8340 C.2   138  PRO138      0.2269
    122  O          0.6890  -16.0490   20.6170 O.2   138  PRO138     -0.2865
    123  CB         0.4820  -12.7720   20.6850 C.3   138  PRO138      0.0296
    124  CG         0.0800  -13.0060   22.0920 C.3   138  PRO138      0.0237
    125  CD        -1.3400  -13.5750   22.0050 C.3   138  PRO138      0.0939
    126  N          6.6050  -13.0100   19.2650 N.3   142  GLU142     -0.1245
    127  CA         6.3300  -11.5850   19.0440 C.3   142  GLU142      0.1567
    128  C          7.0350  -10.6720   20.0270 C.2   142  GLU142      0.2260
    129  O          7.5590   -9.6320   19.6400 O.2   142  GLU142     -0.2867
    130  CB         4.8230  -11.2970   19.0470 C.3   142  GLU142      0.0388
    131  CG         4.0660  -12.0580   17.9790 C.3   142  GLU142      0.1160
    132  CD         2.6260  -11.6050   17.8530 C.2   142  GLU142      0.3649
    133  OE1        2.3780  -10.3870   17.9390 O.co2 142  GLU142     -0.2457
    134  OE2        1.7520  -12.4710   17.6750 O.co2 142  GLU142     -0.2457
    135  N          3.5140   -8.1450   23.8740 N.3   146  TYR146     -0.1241
    136  CA         2.3350   -8.6910   23.2120 C.3   146  TYR146      0.1605
    137  C          1.6950   -9.7880   24.0400 C.2   146  TYR146      0.2264
    138  O          0.4770   -9.8770   24.1120 O.2   146  TYR146     -0.2867
    139  CB         2.6760   -9.1290   21.7850 C.3   146  TYR146      0.0534
    140  CG         3.4420   -8.0180   21.0990 C.ar  146  TYR146     -0.0201
    141  CD1        2.7840   -6.8770   20.6220 C.ar  146  TYR146     -0.0009
    142  CD2        4.8240   -8.0680   21.0010 C.ar  146  TYR146     -0.0009
    143  CE1        3.5000   -5.8250   20.0260 C.ar  146  TYR146      0.0417
    144  CE2        5.5420   -7.0300   20.4150 C.ar  146  TYR146      0.0417
    145  CZ         4.8790   -5.9200   19.9290 C.ar  146  TYR146      0.1957
    146  OH         5.6200   -4.9140   19.3540 O.3   146  TYR146     -0.2866
    147  N         -2.4500  -18.0980   17.8080 N.3   169  ASN169     -0.1240
    148  CA        -1.4030  -18.0230   16.7800 C.3   169  ASN169      0.1653
    149  C         -0.1560  -18.8180   17.1410 C.2   169  ASN169      0.2266
    150  O          0.5340  -19.3230   16.2610 O.2   169  ASN169     -0.2867
    151  CB        -0.9680  -16.5780   16.5080 C.3   169  ASN169      0.1155
    152  CG        -1.9700  -15.8050   15.6670 C.2   169  ASN169      0.2627
    153  OD1       -2.9080  -16.3750   15.0950 O.2   169  ASN169     -0.2716
    154  ND2       -1.7680  -14.4950   15.5820 N.am  169  ASN169     -0.0877
    155  N          0.3670  -14.9250    8.2890 N.3   183  TYR183     -0.1241
    156  CA        -0.9770  -14.4910    8.6730 C.3   183  TYR183      0.1605
    157  C         -2.0200  -14.8340    7.6120 C.2   183  TYR183      0.2264
    158  O         -3.1460  -15.1950    7.9490 O.2   183  TYR183     -0.2867
    159  CB        -1.0200  -12.9910    9.0030 C.3   183  TYR183      0.0534
    160  CG        -0.3700  -12.6290   10.3250 C.ar  183  TYR183     -0.0201
    161  CD1       -0.4760  -13.4700   11.4240 C.ar  183  TYR183     -0.0009
    162  CD2        0.3530  -11.4490   10.4710 C.ar  183  TYR183     -0.0009
    163  CE1        0.1120  -13.1460   12.6360 C.ar  183  TYR183      0.0417
    164  CE2        0.9400  -11.1150   11.6820 C.ar  183  TYR183      0.0417
    165  CZ         0.8200  -11.9760   12.7570 C.ar  183  TYR183      0.1957
    166  OH         1.4050  -11.6650   13.9620 O.3   183  TYR183     -0.2866
    167  N         -2.6930  -18.4640    8.1310 N.3   186  ILE186     -0.1231
    168  CA        -3.4040  -18.6060    9.4040 C.3   186  ILE186      0.1692
    169  C         -4.8570  -18.1350    9.3060 C.2   186  ILE186      0.2592
    170  O         -5.7760  -18.8080    9.7950 O.2   186  ILE186     -0.2718
    171  CB        -2.6870  -17.8790   10.5500 C.3   186  ILE186      0.0266
    172  CG1       -1.3730  -18.5960   10.8870 C.3   186  ILE186      0.0019
    173  CG2       -3.5880  -17.8030   11.7850 C.3   186  ILE186      0.0020
    174  CD1       -0.4230  -17.7860   11.7750 C.3   186  ILE186      0.0001
    175  N         -5.0710  -16.9980    8.6530 N.am  187  ASN187     -0.1974
    176  CA        -6.4340  -16.4870    8.4960 C.3   187  ASN187      0.1688
    177  C         -7.3350  -17.4290    7.6920 C.2   187  ASN187      0.2292
    178  O         -8.5280  -17.5050    7.9540 O.2   187  ASN187     -0.2864
    179  CB        -6.4370  -15.0800    7.8810 C.3   187  ASN187      0.1181
    180  CG        -5.7900  -14.0460    8.7880 C.2   187  ASN187      0.2629
    181  OD1       -5.5470  -14.3060    9.9650 O.2   187  ASN187     -0.2716
    182  ND2       -5.5250  -12.8580    8.2460 N.am  187  ASN187     -0.0877
    183  N         -8.2850  -20.1290   10.1370 N.3   190  ILE190     -0.1245
    184  CA        -9.2850  -19.6200   11.0620 C.3   190  ILE190      0.1561
    185  C        -10.6660  -19.6710   10.4140 C.2   190  ILE190      0.2260
    186  O        -11.6170  -20.2210   10.9760 O.2   190  ILE190     -0.2867
    187  CB        -8.9550  -18.1740   11.4880 C.3   190  ILE190      0.0252
    188  CG1       -7.7210  -18.1580   12.4080 C.3   190  ILE190      0.0019
    189  CG2      -10.1610  -17.5150   12.1320 C.3   190  ILE190      0.0019
    190  CD1       -7.2050  -16.7520   12.7560 C.3   190  ILE190      0.0001
@<TRIPOS>BOND
     1    61    60    2
     2    37    36    2
     3    60    59    1
     4    41    42    1
     5    41    40    1
     6   157   158    2
     7   157   156    1
     8   177   178    2
     9   177   176    1
    10    58    59    1
    11    39    40    1
    12    39    38    1
    13   179   176    1
    14   179   180    1
    15    59    62    1
    16   167   168    1
    17    35    38    1
    18    35    36    1
    19    35    34    1
    20    36    43   am
    21   182   180   am
    22   155   156    1
    23    46    45    2
    24   176   175    1
    25   175   169   am
    26   156   159    1
    27   180   181    2
    28   159   160    1
    29    24    22   am
    30    45    44    1
    31   169   168    1
    32   169   170    2
    33    64    63   ar
    34    62    63    1
    35   168   171    1
    36    43    44    1
    37    44    47    1
    38    63    65   ar
    39   183   184    1
    40   160   162   ar
    41   160   161   ar
    42    22    21    1
    43    22    23    2
    44   185   186    2
    45   185   184    1
    46   162   164   ar
    47   171   172    1
    48   171   173    1
    49    21    20    1
    50    19    18    2
    51   172   174    1
    52    47    49    1
    53    47    48    1
    54   184   187    1
    55   161   163   ar
    56   187   189    1
    57   187   188    1
    58   164   165   ar
    59    33    32    2
    60    28    27    2
    61    18    17    1
    62    18    25   am
    63    20    17    1
    64    17    16    1
    65    57    55   am
    66    32    31    1
    67   188   190    1
    68   163   165   ar
    69    27    26    1
    70    27    30   am
    71    54    55    1
    72    54    51    1
    73   165   166    1
    74    26    25    1
    75    26    29    1
    76    55    56    2
    77    15    14    2
    78    16    14   am
    79    31    30    1
    80    50    51    1
    81    14    13    1
    82    51    52    1
    83    53    52    2
    84   153   152    2
    85   110   108    1
    86     1     2    1
    87    13    12    1
    88    12     3   am
    89   154   152   am
    90   152   151    1
    91     3     2    1
    92     3     4    2
    93     2     5    1
    94   150   149    2
    95   108   107    1
    96   151   148    1
    97   109   107    1
    98   148   149    1
    99   148   147    1
   100   107   104    1
   101     5     6    1
   102    92    90    1
   103    70    71    1
   104   134   132   ar
   105    91    90    1
   106   132   133   ar
   107   132   131    1
   108    90    87    1
   109   131   130    1
   110     6     7   ar
   111     6     8   ar
   112    71    72    1
   113     7     9   ar
   114     8    10   ar
   115    66    67    1
   116    67    68    1
   117   104   103    1
   118   104   105    1
   119     9    11   ar
   120    10    11   ar
   121   114   113    2
   122   127   130    1
   123   127   126    1
   124   127   128    1
   125    93    94    1
   126    93    88   am
   127    69    68    2
   128    94    95    1
   129   146   145    1
   130    87    88    1
   131    87    86    1
   132   105   106    2
   133   105   111   am
   134    72    73    2
   135   129   128    2
   136    88    89    2
   137    86    84   am
   138   121   120    1
   139   121   122    2
   140   120   119    1
   141   120   123    1
   142   145   143   ar
   143   145   144   ar
   144   143   141   ar
   145   111   112    1
   146   113   119   am
   147   113   112    1
   148    79    78    1
   149    79    80    1
   150   144   142   ar
   151    82    80   am
   152    82    83    1
   153   141   140   ar
   154    78    76   am
   155   119   125    1
   156   123   124    1
   157    95    97   am
   158    95    96    2
   159   112   115    1
   160   142   140   ar
   161    84    83    1
   162    84    85    2
   163   140   139    1
   164    80    81    2
   165    97    98    1
   166    74    75    1
   167    76    75    1
   168    76    77    2
   169   139   136    1
   170   115   116    1
   171   125   124    1
   172    98   101    1
   173    98    99    1
   174   116   118    1
   175   116   117    1
   176   101   102    1
   177   136   135    1
   178   136   137    1
   179    99   100    2
   180   137   138    2
