@<TRIPOS>MOLECULE
tmp/4b48A00.pdb
 119 115 0 0 0
SMALL
GASTEIGER

@<TRIPOS>ATOM
      1  N         19.4740   14.4390   42.7830 N.3    80  GLY80      -0.1210
      2  CA        18.9900   14.2590   44.1370 C.3    80  GLY80       0.1956
      3  C         19.2770   12.8890   44.7160 C.2    80  GLY80       0.2612
      4  O         19.8300   12.0180   44.0480 O.2    80  GLY80      -0.2717
      5  N         18.9000   12.7070   45.9750 N.am   81  HIS81      -0.1961
      6  CA        19.0220   11.4200   46.6420 C.3    81  HIS81       0.1787
      7  C         17.9410   10.4820   46.1310 C.2    81  HIS81       0.2620
      8  O         16.9310   10.9260   45.5870 O.2    81  HIS81      -0.2715
      9  CB        18.8960   11.5950   48.1570 C.3    81  HIS81       0.0785
     10  CG        19.0030   10.3200   48.9330 C.ar   81  HIS81       0.0821
     11  ND1       17.9210    9.4960   49.1700 N.ar   81  HIS81      -0.2267
     12  CD2       20.0610    9.7310   49.5410 C.ar   81  HIS81       0.1154
     13  CE1       18.3110    8.4550   49.8800 C.ar   81  HIS81       0.1986
     14  NE2       19.6040    8.5730   50.1210 N.ar   81  HIS81      -0.2212
     15  N         18.1710    9.1840   46.2920 N.am   82  VAL82      -0.1963
     16  CA        17.1650    8.1790   45.9970 C.3    82  VAL82       0.1727
     17  C         15.8720    8.5010   46.7390 C.2    82  VAL82       0.2616
     18  O         15.9110    8.9360   47.8900 O.2    82  VAL82      -0.2715
     19  CB        17.6640    6.7730   46.3970 C.3    82  VAL82       0.0290
     20  CG1       16.5210    5.7690   46.4240 C.3    82  VAL82       0.0023
     21  CG2       18.7660    6.3130   45.4560 C.3    82  VAL82       0.0023
     22  N         14.7430    8.3290   46.0510 N.am   83  ASP83      -0.1971
     23  CA        13.4110    8.4930   46.6400 C.3    83  ASP83       0.1709
     24  C         12.9640    9.9390   46.8260 C.2    83  ASP83       0.2293
     25  O         11.8490   10.1890   47.2780 O.2    83  ASP83      -0.2864
     26  CB        13.2450    7.6870   47.9340 C.3    83  ASP83       0.1436
     27  CG        12.6280    6.3270   47.6940 C.2    83  ASP83       0.3671
     28  OD1       12.6280    5.8720   46.5310 O.co2  83  ASP83      -0.2456
     29  OD2       12.1440    5.7130   48.6660 O.co2  83  ASP83      -0.2456
     30  N         12.1360   12.1720   44.7850 N.3    85  GLY85      -0.1210
     31  CA        11.1020   12.6510   43.8860 C.3    85  GLY85       0.1956
     32  C         11.6080   13.1240   42.5410 C.2    85  GLY85       0.2612
     33  O         10.8800   13.7670   41.7850 O.2    85  GLY85      -0.2717
     34  N         12.8640   12.8060   42.2590 N.am   86  LYS86      -0.1965
     35  CA        13.5020   13.1280   40.9900 C.3    86  LYS86       0.1728
     36  C         12.6380   12.7280   39.8020 C.2    86  LYS86       0.2617
     37  O         12.1950   13.5750   39.0270 O.2    86  LYS86      -0.2715
     38  CB        14.8440   12.4090   40.9110 C.3    86  LYS86       0.0311
     39  CG        15.6210   12.6500   39.6420 C.3    86  LYS86       0.0038
     40  CD        16.9200   11.8590   39.6420 C.3    86  LYS86       0.0206
     41  CE        17.8030   12.2120   40.8330 C.3    86  LYS86       0.1093
     42  NZ        17.5830   11.3420   42.0240 N.3    86  LYS86      -0.1314
     43  N         12.4100   11.4270   39.6700 N.am   87  THR87      -0.1937
     44  CA        11.6590   10.8730   38.5520 C.3    87  THR87       0.2028
     45  C         10.2550   11.4520   38.4260 C.2    87  THR87       0.2642
     46  O          9.8310   11.8190   37.3320 O.2    87  THR87      -0.2714
     47  CB        11.5650    9.3450   38.6590 C.3    87  THR87       0.1808
     48  OG1       12.8830    8.7930   38.7510 O.3    87  THR87      -0.2208
     49  CG2       10.8650    8.7690   37.4440 C.3    87  THR87       0.0379
     50  N          9.5390   11.5360   39.5410 N.am   88  THR88      -0.1950
     51  CA         8.1790   12.0610   39.5240 C.3    88  THR88       0.1897
     52  C          8.1630   13.4950   39.0160 C.2    88  THR88       0.2313
     53  O          7.2490   13.9000   38.3010 O.2    88  THR88      -0.2863
     54  CB         7.5270   12.0120   40.9140 C.3    88  THR88       0.1794
     55  OG1        7.6740   10.6970   41.4630 O.3    88  THR88      -0.2208
     56  CG2        6.0510   12.3530   40.8240 C.3    88  THR88       0.0378
     57  N         21.1670    8.4590   38.0390 N.3   130  HIS130     -0.1241
     58  CA        21.9450    8.5510   39.2540 C.3   130  HIS130      0.1621
     59  C         23.3020    9.1820   38.9540 C.2   130  HIS130      0.2264
     60  O         23.9420    9.7280   39.8540 O.2   130  HIS130     -0.2867
     61  CB        22.2030    7.1140   39.6620 C.3   130  HIS130      0.0745
     62  CG        22.3140    6.1960   38.4840 C.ar  130  HIS130      0.0817
     63  ND1       23.3950    6.2120   37.6270 N.ar  130  HIS130     -0.2268
     64  CD2       21.4530    5.2810   37.9800 C.ar  130  HIS130      0.1154
     65  CE1       23.2080    5.3280   36.6660 C.ar  130  HIS130      0.1986
     66  NE2       22.0370    4.7470   36.8560 N.ar  130  HIS130     -0.2212
     67  N         11.1900   19.3520   47.9570 N.3   174  ASN174     -0.1225
     68  CA        10.0770   18.6240   47.3780 C.3   174  ASN174      0.1785
     69  C          9.2630   17.9810   48.4870 C.2   174  ASN174      0.2597
     70  O          9.6290   18.0780   49.6550 O.2   174  ASN174     -0.2718
     71  CB        10.6180   17.5570   46.4210 C.3   174  ASN174      0.1169
     72  CG         9.5260   16.8500   45.6440 C.2   174  ASN174      0.2627
     73  OD1        8.4660   17.4160   45.3840 O.2   174  ASN174     -0.2716
     74  ND2        9.7750   15.5970   45.2870 N.am  174  ASN174     -0.0877
     75  N          8.1710   17.3190   48.1160 N.am  175  LYS175     -0.1980
     76  CA         7.3040   16.6320   49.0630 C.3   175  LYS175      0.1596
     77  C          6.8270   17.5670   50.1620 C.2   175  LYS175      0.2287
     78  O          6.8270   17.2120   51.3380 O.2   175  LYS175     -0.2864
     79  CB         8.0160   15.4190   49.6630 C.3   175  LYS175      0.0298
     80  CG         8.4580   14.4010   48.6310 C.3   175  LYS175      0.0038
     81  CD         9.1270   13.2070   49.2800 C.3   175  LYS175      0.0206
     82  CE         9.4990   12.1670   48.2430 C.3   175  LYS175      0.1093
     83  NZ        10.1980   11.0030   48.8500 N.3   175  LYS175     -0.1314
     84  N          3.8790   18.5460   50.4060 N.3   177  ASP177     -0.1225
     85  CA         2.4890   18.1970   50.6610 C.3   177  ASP177      0.1805
     86  C          2.3470   17.3430   51.9180 C.2   177  ASP177      0.2597
     87  O          1.2770   17.2830   52.5220 O.2   177  ASP177     -0.2718
     88  CB         1.9040   17.4680   49.4530 C.3   177  ASP177      0.1424
     89  CG         2.7840   16.3310   48.9820 C.2   177  ASP177      0.3668
     90  OD1        3.7560   16.5960   48.2430 O.co2 177  ASP177     -0.2456
     91  OD2        2.5050   15.1720   49.3500 O.co2 177  ASP177     -0.2456
     92  N          3.4320   16.6830   52.3040 N.am  178  LEU178     -0.1979
     93  CA         3.4280   15.8180   53.4760 C.3   178  LEU178      0.1596
     94  C          3.2960   16.6230   54.7610 C.2   178  LEU178      0.2287
     95  O          3.8200   17.7290   54.8600 O.2   178  LEU178     -0.2864
     96  CB         4.7100   14.9890   53.5210 C.3   178  LEU178      0.0297
     97  CG         4.9600   14.0870   52.3160 C.3   178  LEU178      0.0022
     98  CD1        6.2640   13.3330   52.4840 C.3   178  LEU178      0.0001
     99  CD2        3.8000   13.1280   52.1330 C.3   178  LEU178      0.0001
    100  N          6.0010   20.5180   44.8560 N.3   210  SER210     -0.1202
    101  CA         5.4990   19.1680   45.0500 C.3   210  SER210      0.2020
    102  C          5.3930   18.4510   43.7120 C.2   210  SER210      0.2619
    103  O          4.6100   18.8450   42.8500 O.2   210  SER210     -0.2717
    104  CB         4.1380   19.1940   45.7420 C.3   210  SER210      0.2103
    105  OG         3.7150   17.8840   46.0690 O.3   210  SER210     -0.2182
    106  N          6.1820   17.3950   43.5440 N.am  211  ALA211     -0.1965
    107  CA         6.1450   16.6070   42.3190 C.3   211  ALA211      0.1728
    108  C          4.8180   15.8700   42.2220 C.2   211  ALA211      0.2616
    109  O          4.4080   15.4350   41.1470 O.2   211  ALA211     -0.2715
    110  CB         7.3030   15.6270   42.2840 C.3   211  ALA211      0.0334
    111  N          4.1530   15.7370   43.3610 N.am  212  LYS212     -0.1977
    112  CA         2.8390   15.1250   43.4210 C.3   212  LYS212      0.1596
    113  C          1.8030   16.1190   42.9200 C.2   212  LYS212      0.2287
    114  O          1.1430   15.8930   41.9070 O.2   212  LYS212     -0.2864
    115  CB         2.5250   14.6960   44.8530 C.3   212  LYS212      0.0298
    116  CG         1.6200   13.4830   44.9520 C.3   212  LYS212      0.0038
    117  CD         2.0030   12.6140   46.1380 C.3   212  LYS212      0.0206
    118  CE         1.1600   11.3530   46.2000 C.3   212  LYS212      0.1093
    119  NZ         1.6360   10.4330   47.2690 N.3   212  LYS212     -0.1314
@<TRIPOS>BOND
     1    65    66   ar
     2    65    63   ar
     3    66    64   ar
     4    46    45    2
     5    49    47    1
     6    63    62   ar
     7    64    62   ar
     8    57    58    1
     9    53    52    2
    10    45    44    1
    11    45    50   am
    12    62    61    1
    13    44    47    1
    14    44    43    1
    15    47    48    1
    16    59    58    1
    17    59    60    2
    18    52    51    1
    19    37    36    2
    20    58    61    1
    21    51    50    1
    22    51    54    1
    23    39    40    1
    24    39    38    1
    25    40    41    1
    26    43    36   am
    27    36    35    1
    28    56    54    1
    29    41    42    1
    30    38    35    1
    31    54    55    1
    32    35    34    1
    33   109   108    2
    34    33    32    2
    35   114   113    2
    36   108   107    1
    37   108   111   am
    38    34    32   am
    39   110   107    1
    40   107   106    1
    41    32    31    1
    42     1     2    1
    43   103   102    2
    44   113   112    1
    45   111   112    1
    46   112   115    1
    47   106   102   am
    48   102   101    1
    49    31    30    1
    50     4     3    2
    51     2     3    1
    52     3     5   am
    53   115   116    1
    54   100   101    1
    55   116   117    1
    56   101   104    1
    57    74    72   am
    58    73    72    2
    59    21    19    1
    60     8     7    2
    61    72    71    1
    62   104   105    1
    63     5     6    1
    64    16    15    1
    65    16    19    1
    66    16    17    1
    67    22    23    1
    68    22    17   am
    69     7    15   am
    70     7     6    1
    71   117   118    1
    72   118   119    1
    73    19    20    1
    74    71    68    1
    75    28    27   ar
    76    23    24    1
    77    23    26    1
    78     6     9    1
    79    17    18    2
    80    24    25    2
    81    68    67    1
    82    68    69    1
    83    27    26    1
    84    27    29   ar
    85    75    69   am
    86    75    76    1
    87     9    10    1
    88    82    83    1
    89    82    81    1
    90    90    89   ar
    91    69    70    2
    92    80    81    1
    93    80    79    1
    94    10    11   ar
    95    10    12   ar
    96    89    91   ar
    97    89    88    1
    98    76    79    1
    99    76    77    1
   100    11    13   ar
   101    88    85    1
   102    12    14   ar
   103    13    14   ar
   104    77    78    2
   105    84    85    1
   106    85    86    1
   107    86    92   am
   108    86    87    2
   109    99    97    1
   110    92    93    1
   111    97    98    1
   112    97    96    1
   113    93    96    1
   114    93    94    1
   115    94    95    2
