@<TRIPOS>MOLECULE
tmp/4b4aA00.pdb
 89 87 0 0 0
SMALL
GASTEIGER

@<TRIPOS>ATOM
      1  N          7.7660   42.9820   32.6830 N.3    23  ILE23      -0.1231
      2  CA         8.1940   44.1800   33.4120 C.3    23  ILE23       0.1692
      3  C          8.0500   45.3380   32.4300 C.2    23  ILE23       0.2591
      4  O          7.3580   46.3090   32.7330 O.2    23  ILE23      -0.2718
      5  CB         9.6690   44.0350   33.8980 C.3    23  ILE23       0.0266
      6  CG1        9.7890   43.0100   35.0520 C.3    23  ILE23       0.0019
      7  CG2       10.2980   45.4020   34.2590 C.3    23  ILE23       0.0020
      8  CD1       11.1790   42.3320   35.1930 C.3    23  ILE23       0.0001
      9  N          8.6580   45.1880   31.2270 N.am   24  ALA24      -0.1980
     10  CA         8.6380   46.1600   30.1360 C.3    24  ALA24       0.1597
     11  C          7.2100   46.5340   29.7540 C.2    24  ALA24       0.2287
     12  O          6.9610   47.6900   29.4320 O.2    24  ALA24      -0.2864
     13  CB         9.3880   45.6180   28.9290 C.3    24  ALA24       0.0319
     14  N          4.4920   46.5760   31.8280 N.3    26  TYR26      -0.1227
     15  CA         3.9050   47.4380   32.8410 C.3    26  TYR26       0.1736
     16  C          4.2620   48.9270   32.6540 C.2    26  TYR26       0.2595
     17  O          3.3500   49.7450   32.4520 O.2    26  TYR26      -0.2718
     18  CB         4.1240   46.8830   34.2640 C.3    26  TYR26       0.0548
     19  CG         3.6070   47.7860   35.3590 C.ar   26  TYR26      -0.0200
     20  CD1        2.2780   48.2030   35.3800 C.ar   26  TYR26      -0.0009
     21  CD2        4.4530   48.2520   36.3580 C.ar   26  TYR26      -0.0009
     22  CE1        1.8150   49.0990   36.3460 C.ar   26  TYR26       0.0417
     23  CE2        4.0000   49.1400   37.3360 C.ar   26  TYR26       0.0417
     24  CZ         2.6790   49.5600   37.3290 C.ar   26  TYR26       0.1957
     25  OH         2.2360   50.4390   38.2940 O.3    26  TYR26      -0.2866
     26  N          5.5760   49.2530   32.6090 N.am   27  PHE27      -0.1976
     27  CA         6.0800   50.6220   32.3960 C.3    27  PHE27       0.1639
     28  C          6.3490   50.9150   30.8930 C.2    27  PHE27       0.2290
     29  O          7.3210   51.6000   30.5670 O.2    27  PHE27      -0.2864
     30  CB         7.3510   50.8900   33.2200 C.3    27  PHE27       0.0560
     31  CG         7.5570   50.1160   34.5020 C.ar   27  PHE27      -0.0200
     32  CD1        8.2450   48.9070   34.5010 C.ar   27  PHE27      -0.0042
     33  CD2        7.1640   50.6450   35.7250 C.ar   27  PHE27      -0.0042
     34  CE1        8.4790   48.2160   35.6950 C.ar   27  PHE27      -0.0003
     35  CE2        7.4400   49.9750   36.9200 C.ar   27  PHE27      -0.0003
     36  CZ         8.0680   48.7510   36.8950 C.ar   27  PHE27      -0.0000
     37  N          4.2320   52.6300   28.7820 N.3    29  LYS29      -0.1231
     38  CA         3.7750   53.9830   28.4280 C.3    29  LYS29       0.1693
     39  C          4.8730   55.0230   28.6600 C.2    29  LYS29       0.2592
     40  O          4.9870   55.9740   27.8910 O.2    29  LYS29      -0.2718
     41  CB         2.4460   54.3580   29.1160 C.3    29  LYS29       0.0285
     42  CG         1.2180   54.0390   28.2510 C.3    29  LYS29       0.0035
     43  CD        -0.0970   54.3380   28.9680 C.3    29  LYS29       0.0206
     44  CE        -1.2690   53.6620   28.2940 C.3    29  LYS29       0.1093
     45  NZ        -2.5550   53.9620   28.9770 N.3    29  LYS29      -0.1314
     46  N          5.7200   54.7920   29.6580 N.am   30  TYR30      -0.1962
     47  CA         6.8490   55.6590   29.9290 C.3    30  TYR30       0.1771
     48  C          8.0070   55.4000   28.9320 C.2    30  TYR30       0.2619
     49  O          8.7210   56.3480   28.5790 O.2    30  TYR30      -0.2715
     50  CB         7.2890   55.4880   31.3820 C.3    30  TYR30       0.0574
     51  CG         8.7440   55.7970   31.6390 C.ar   30  TYR30      -0.0198
     52  CD1        9.7260   54.8310   31.4400 C.ar   30  TYR30      -0.0009
     53  CD2        9.1470   57.0700   32.0370 C.ar   30  TYR30      -0.0009
     54  CE1       11.0710   55.1180   31.6300 C.ar   30  TYR30       0.0417
     55  CE2       10.4920   57.3610   32.2640 C.ar   30  TYR30       0.0417
     56  CZ        11.4520   56.3740   32.0700 C.ar   30  TYR30       0.1957
     57  OH        12.7930   56.6200   32.2710 O.3    30  TYR30      -0.2866
     58  N          8.2320   54.1110   28.5370 N.am   31  VAL31      -0.1977
     59  CA         9.2710   53.6980   27.5660 C.3    31  VAL31       0.1596
     60  C          8.9160   54.2830   26.1720 C.2    31  VAL31       0.2287
     61  O          9.8050   54.7290   25.4360 O.2    31  VAL31      -0.2864
     62  CB         9.5040   52.1610   27.5500 C.3    31  VAL31       0.0276
     63  CG1       10.2610   51.7240   26.3090 C.3    31  VAL31       0.0022
     64  CG2       10.2400   51.7070   28.7990 C.3    31  VAL31       0.0022
     65  N          7.5650   57.1040   25.7270 N.3    33  GLU33      -0.1182
     66  CA         7.9620   58.5160   25.8680 C.3    33  GLU33       0.1915
     67  C          9.4480   58.6950   25.5070 C.2    33  GLU33       0.2634
     68  O          9.7870   59.6700   24.8320 O.2    33  GLU33      -0.2714
     69  CB         7.7530   59.0320   27.3150 C.2    33  GLU33       0.0085
     70  CG         6.3240   59.0500   27.8510 C.2    33  GLU33       0.0835
     71  CD         6.1730   59.2040   29.3640 C.2    33  GLU33       0.3877
     72  OE1        7.2000   59.3670   30.0670 O.co2  33  GLU33      -0.2406
     73  OE2        5.0180   59.1430   29.8500 O.co2  33  GLU33      -0.2406
     74  N         10.3380   57.7920   26.0050 N.am   34  ILE34      -0.1977
     75  CA        11.7900   57.8200   25.7380 C.3    34  ILE34       0.1596
     76  C         12.0210   57.6490   24.2310 C.2    34  ILE34       0.2287
     77  O         12.8780   58.3000   23.6360 O.2    34  ILE34      -0.2864
     78  CB        12.5510   56.7220   26.5450 C.3    34  ILE34       0.0276
     79  CG1       12.3210   56.8480   28.0710 C.3    34  ILE34       0.0022
     80  CG2       14.0540   56.6810   26.1860 C.3    34  ILE34       0.0022
     81  CD1       13.0880   55.7520   28.9400 C.3    34  ILE34       0.0001
     82  N         16.4870   44.0010   29.2310 N.3    71  ILE71      -0.1245
     83  CA        16.3830   43.6850   30.6610 C.3    71  ILE71       0.1561
     84  C         17.0090   42.2810   30.8430 C.2    71  ILE71       0.2260
     85  O         17.8120   42.0860   31.7600 O.2    71  ILE71      -0.2867
     86  CB        14.8880   43.7620   31.1780 C.3    71  ILE71       0.0252
     87  CG1       14.3720   45.2150   31.2340 C.3    71  ILE71       0.0019
     88  CG2       14.6850   43.0660   32.5450 C.3    71  ILE71       0.0019
     89  CD1       12.8490   45.3550   31.1950 C.3    71  ILE71       0.0001
@<TRIPOS>BOND
     1    77    76    2
     2    76    75    1
     3    68    67    2
     4    61    60    2
     5    67    66    1
     6    67    74   am
     7    65    66    1
     8    75    74    1
     9    75    78    1
    10    66    69    1
    11    60    59    1
    12    80    78    1
    13    63    62    1
    14    78    79    1
    15    69    70    2
    16    62    59    1
    17    62    64    1
    18    59    58    1
    19    70    71    1
    20    40    39    2
    21    79    81    1
    22    42    43    1
    23    42    41    1
    24    44    43    1
    25    44    45    1
    26    38    39    1
    27    38    37    1
    28    38    41    1
    29    58    48   am
    30    49    48    2
    31    39    46   am
    32    13    10    1
    33    48    47    1
    34    82    83    1
    35    71    73   ar
    36    71    72   ar
    37    12    11    2
    38    46    47    1
    39    11    10    1
    40    47    50    1
    41    10     9    1
    42    29    28    2
    43    83    84    1
    44    83    86    1
    45    84    85    2
    46    28    27    1
    47    86    87    1
    48    86    88    1
    49    89    87    1
    50     9     3   am
    51    50    51    1
    52    52    54   ar
    53    52    51   ar
    54    54    56   ar
    55    51    53   ar
    56    14    15    1
    57    53    55   ar
    58    56    55   ar
    59    56    57    1
    60    27    26    1
    61    27    30    1
    62     3     4    2
    63     3     2    1
    64    17    16    2
    65    26    16   am
    66    16    15    1
    67     1     2    1
    68    15    18    1
    69    30    31    1
    70     2     5    1
    71     5     7    1
    72     5     6    1
    73    18    19    1
    74    32    31   ar
    75    32    34   ar
    76    31    33   ar
    77     6     8    1
    78    19    20   ar
    79    19    21   ar
    80    20    22   ar
    81    34    36   ar
    82    33    35   ar
    83    22    24   ar
    84    21    23   ar
    85    36    35   ar
    86    24    23   ar
    87    24    25    1
