@<TRIPOS>MOLECULE
tmp/4b4bB00.pdb
 109 106 0 0 0
SMALL
GASTEIGER

@<TRIPOS>ATOM
      1  N         27.7450  -22.5150   51.6820 N.3    45  LEU45      -0.1245
      2  CA        28.1090  -23.3400   52.8330 C.3    45  LEU45       0.1561
      3  C         27.2270  -24.5500   52.9690 C.2    45  LEU45       0.2260
      4  O         27.6370  -25.5380   53.5550 O.2    45  LEU45      -0.2867
      5  CB        28.0610  -22.5340   54.1270 C.3    45  LEU45       0.0270
      6  CG        29.2000  -21.5260   54.2910 C.3    45  LEU45       0.0019
      7  CD1       28.8470  -20.3940   55.2880 C.3    45  LEU45       0.0001
      8  CD2       30.4850  -22.2960   54.6330 C.3    45  LEU45       0.0001
      9  N         25.8480  -16.1690   61.2740 N.3   114  TYR114     -0.1227
     10  CA        27.2050  -16.3930   61.7360 C.3   114  TYR114      0.1736
     11  C         27.1650  -17.4140   62.8690 C.2   114  TYR114      0.2596
     12  O         26.3080  -17.3500   63.7590 O.2   114  TYR114     -0.2718
     13  CB        27.8430  -15.0520   62.1810 C.3   114  TYR114      0.0548
     14  CG        29.0500  -15.2420   63.0560 C.ar  114  TYR114     -0.0200
     15  CD1       30.2830  -15.5220   62.5140 C.ar  114  TYR114     -0.0009
     16  CD2       28.9210  -15.2410   64.4480 C.ar  114  TYR114     -0.0009
     17  CE1       31.3880  -15.7550   63.3330 C.ar  114  TYR114      0.0417
     18  CE2       29.9850  -15.4410   65.2710 C.ar  114  TYR114      0.0417
     19  CZ        31.2360  -15.7050   64.7010 C.ar  114  TYR114      0.1957
     20  OH        32.2850  -15.9240   65.5330 O.3   114  TYR114     -0.2866
     21  N         28.1240  -18.3300   62.8690 N.am  115  GLY115     -0.1957
     22  CA        28.3550  -19.1790   64.0250 C.3   115  GLY115      0.1869
     23  C         29.1370  -20.4080   63.6700 C.2   115  GLY115      0.2309
     24  O         29.6280  -20.5170   62.5350 O.2   115  GLY115     -0.2863
     25  N         28.9770  -24.1030   60.8150 N.3   118  PHE118     -0.1227
     26  CA        27.7810  -23.6520   60.1240 C.3   118  PHE118      0.1736
     27  C         27.6200  -24.4930   58.8830 C.2   118  PHE118      0.2595
     28  O         26.5130  -24.8870   58.5160 O.2   118  PHE118     -0.2718
     29  CB        27.8690  -22.1590   59.7990 C.3   118  PHE118      0.0547
     30  CG        26.5680  -21.5650   59.3510 C.ar  118  PHE118     -0.0202
     31  CD1       25.4030  -21.7370   60.0970 C.ar  118  PHE118     -0.0042
     32  CD2       26.5050  -20.8500   58.1820 C.ar  118  PHE118     -0.0042
     33  CE1       24.2040  -21.2070   59.6740 C.ar  118  PHE118     -0.0003
     34  CE2       25.3120  -20.3090   57.7520 C.ar  118  PHE118     -0.0003
     35  CZ        24.1600  -20.4860   58.4940 C.ar  118  PHE118     -0.0000
     36  N         28.7550  -24.8010   58.2690 N.am  119  HIS119     -0.1975
     37  CA        28.8380  -25.8000   57.2110 C.3   119  HIS119      0.1656
     38  C         28.1340  -27.1080   57.5660 C.2   119  HIS119      0.2291
     39  O         27.4650  -27.7080   56.7340 O.2   119  HIS119     -0.2864
     40  CB        30.3280  -26.0180   56.9000 C.3   119  HIS119      0.0771
     41  CG        30.6170  -27.2480   56.0730 C.ar  119  HIS119      0.0820
     42  ND1       30.7550  -28.4690   56.6270 N.ar  119  HIS119     -0.2267
     43  CD2       30.8010  -27.4130   54.7000 C.ar  119  HIS119      0.1154
     44  CE1       31.0100  -29.3740   55.6670 C.ar  119  HIS119      0.1986
     45  NE2       31.0410  -28.7280   54.4830 N.ar  119  HIS119     -0.2212
     46  N         37.5480  -13.2000   57.4890 N.3   247  LYS247     -0.1231
     47  CA        36.3730  -12.5070   56.9850 C.3   247  LYS247      0.1693
     48  C         35.1420  -13.3830   57.1750 C.2   247  LYS247      0.2592
     49  O         35.2170  -14.6010   57.1530 O.2   247  LYS247     -0.2718
     50  CB        36.5610  -12.0810   55.5380 C.3   247  LYS247      0.0285
     51  CG        37.3700  -10.8160   55.4160 C.3   247  LYS247      0.0035
     52  CD        37.4230  -10.3170   53.9830 C.3   247  LYS247      0.0206
     53  CE        38.3330   -9.1040   53.8450 C.3   247  LYS247      0.1093
     54  NZ        38.0800   -8.0470   54.8550 N.3   247  LYS247     -0.1314
     55  N         34.0060  -12.7310   57.3360 N.am  248  VAL248     -0.1966
     56  CA        32.7050  -13.3950   57.2510 C.3   248  VAL248      0.1727
     57  C         32.1770  -13.2790   55.8080 C.2   248  VAL248      0.2616
     58  O         32.0780  -12.1800   55.2490 O.2   248  VAL248     -0.2715
     59  CB        31.6900  -12.7370   58.2370 C.3   248  VAL248      0.0290
     60  CG1       30.3450  -13.5050   58.2020 C.3   248  VAL248      0.0023
     61  CG2       32.2710  -12.6710   59.6570 C.3   248  VAL248      0.0023
     62  N         31.7880  -14.4000   55.2290 N.am  249  ALA249     -0.1963
     63  CA        31.0310  -14.4110   53.9600 C.3   249  ALA249      0.1728
     64  C         31.8350  -13.9070   52.7890 C.2   249  ALA249      0.2616
     65  O         31.3630  -13.0890   52.0290 O.2   249  ALA249     -0.2715
     66  CB        29.7380  -13.6150   54.0840 C.3   249  ALA249      0.0334
     67  N         33.0820  -14.3730   52.6870 N.am  250  CYS250     -0.1968
     68  CA        33.9380  -14.1140   51.5390 C.3   250  CYS250      0.1712
     69  C         33.7640  -15.2740   50.6030 C.2   250  CYS250      0.2296
     70  O         34.2260  -16.3870   50.9040 O.2   250  CYS250     -0.2864
     71  CB        35.4000  -14.0100   52.0220 C.3   250  CYS250      0.0983
     72  SG        36.5810  -13.9410   50.6960 S.3   250  CYS250     -0.0798
     73  N         36.9360  -17.2800   49.3810 N.3   253  GLU253     -0.1231
     74  CA        37.3500  -18.1550   50.4560 C.3   253  GLU253      0.1699
     75  C         36.5300  -19.3910   50.5900 C.2   253  GLU253      0.2592
     76  O         37.0750  -20.4860   50.6980 O.2   253  GLU253     -0.2718
     77  CB        37.3860  -17.4090   51.7850 C.3   253  GLU253      0.0402
     78  CG        37.7720  -18.3220   52.9180 C.3   253  GLU253      0.1161
     79  CD        37.9980  -17.6190   54.2430 C.2   253  GLU253      0.3649
     80  OE1       37.5570  -16.4410   54.4330 O.co2 253  GLU253     -0.2457
     81  OE2       38.6190  -18.2960   55.1030 O.co2 253  GLU253     -0.2457
     82  N         35.2000  -19.2420   50.5740 N.am  254  ILE254     -0.1980
     83  CA        34.3610  -20.3680   50.7380 C.3   254  ILE254      0.1595
     84  C         34.4990  -21.3440   49.5780 C.2   254  ILE254      0.2287
     85  O         34.5420  -22.5580   49.7880 O.2   254  ILE254     -0.2864
     86  CB        32.8680  -19.9780   50.9900 C.3   254  ILE254      0.0276
     87  CG1       32.7660  -19.2790   52.3740 C.3   254  ILE254      0.0022
     88  CG2       32.0380  -21.2590   50.9380 C.3   254  ILE254      0.0022
     89  CD1       31.4710  -18.5350   52.7040 C.3   254  ILE254      0.0001
     90  N         37.9110  -23.2050   50.0950 N.3   257  ARG257     -0.1231
     91  CA        37.8010  -24.2280   51.1480 C.3   257  ARG257      0.1694
     92  C         36.8650  -25.3640   50.7800 C.2   257  ARG257      0.2591
     93  O         37.0370  -26.4860   51.2770 O.2   257  ARG257     -0.2718
     94  CB        37.3820  -23.6260   52.4960 C.3   257  ARG257      0.0321
     95  CG        38.3520  -22.5610   52.9730 C.3   257  ARG257      0.0489
     96  CD        38.2060  -22.2460   54.4500 C.3   257  ARG257      0.2205
     97  NE        39.0330  -21.0900   54.7500 N.pl3 257  ARG257     -0.0865
     98  CZ        40.3630  -21.1260   54.8770 C.cat 257  ARG257      0.5346
     99  NH1       41.0180  -22.2600   54.7570 N.pl3 257  ARG257      0.1354
    100  NH2       41.0320  -20.0110   55.1520 N.pl3 257  ARG257      0.1354
    101  N         35.8710  -25.1040   49.9390 N.am  258  GLN258     -0.1979
    102  CA        34.9690  -26.2020   49.4660 C.3   258  GLN258      0.1601
    103  C         35.6050  -27.0630   48.3580 C.2   258  GLN258      0.2287
    104  O         35.0380  -28.0800   47.9610 O.2   258  GLN258     -0.2864
    105  CB        33.6460  -25.6370   48.9350 C.3   258  GLN258      0.0394
    106  CG        32.7060  -25.0370   49.9840 C.3   258  GLN258      0.0908
    107  CD        31.8500  -26.0640   50.6590 C.2   258  GLN258      0.2608
    108  OE1       32.3320  -27.1430   51.0640 O.2   258  GLN258     -0.2717
    109  NE2       30.5600  -25.7470   50.7940 N.am  258  GLN258     -0.0878
@<TRIPOS>BOND
     1   104   103    2
     2   103   102    1
     3   105   102    1
     4   105   106    1
     5    73    74    1
     6   102   101    1
     7    84    85    2
     8    84    83    1
     9   101    92   am
    10   106   107    1
    11    90    91    1
    12    74    75    1
    13    74    77    1
    14    82    75   am
    15    82    83    1
    16    75    76    2
    17    69    70    2
    18    69    68    1
    19   107   109   am
    20   107   108    2
    21    72    71    1
    22    83    86    1
    23    92    91    1
    24    92    93    2
    25    88    86    1
    26    86    87    1
    27    91    94    1
    28    68    71    1
    29    68    67    1
    30     1     2    1
    31    77    78    1
    32    65    64    2
    33    87    89    1
    34    94    95    1
    35    67    64   am
    36    64    63    1
    37     2     3    1
    38     2     5    1
    39    78    79    1
    40     3     4    2
    41    95    96    1
    42    53    52    1
    43    53    54    1
    44    63    66    1
    45    63    62    1
    46    52    51    1
    47     5     6    1
    48    79    80   ar
    49    79    81   ar
    50     6     8    1
    51     6     7    1
    52    96    97    1
    53    45    43   ar
    54    45    44   ar
    55    43    41   ar
    56    97    98    2
    57    99    98    1
    58    98   100    1
    59    62    57   am
    60    58    57    2
    61    51    50    1
    62    50    47    1
    63    44    42   ar
    64    57    56    1
    65    41    42   ar
    66    41    40    1
    67    39    38    2
    68    40    37    1
    69    47    48    1
    70    47    46    1
    71    49    48    2
    72    48    55   am
    73    37    38    1
    74    37    36    1
    75    56    55    1
    76    56    59    1
    77    34    32   ar
    78    34    35   ar
    79    32    30   ar
    80    60    59    1
    81    59    61    1
    82    36    27   am
    83    35    33   ar
    84    28    27    2
    85    27    26    1
    86    30    29    1
    87    30    31   ar
    88    33    31   ar
    89    29    26    1
    90    26    25    1
    91     9    10    1
    92    10    13    1
    93    10    11    1
    94    13    14    1
    95    15    14   ar
    96    15    17   ar
    97    24    23    2
    98    11    21   am
    99    11    12    2
   100    21    22    1
   101    14    16   ar
   102    17    19   ar
   103    23    22    1
   104    16    18   ar
   105    19    18   ar
   106    19    20    1
