@<TRIPOS>MOLECULE
tmp/4b4dA00.pdb
 211 207 0 0 0
SMALL
GASTEIGER

@<TRIPOS>ATOM
      1  N         12.5880   33.9670   16.1880 N.3    17  TYR17      -0.1241
      2  CA        13.5830   33.0270   15.6730 C.3    17  TYR17       0.1605
      3  C         13.9210   33.2560   14.2150 C.2    17  TYR17       0.2264
      4  O         13.0410   33.4990   13.3810 O.2    17  TYR17      -0.2867
      5  CB        13.1010   31.5800   15.7910 C.3    17  TYR17       0.0534
      6  CG        12.6480   31.1540   17.1590 C.ar   17  TYR17      -0.0201
      7  CD1       13.5660   30.8940   18.1680 C.ar   17  TYR17      -0.0009
      8  CD2       11.2940   30.9900   17.4330 C.ar   17  TYR17      -0.0009
      9  CE1       13.1470   30.4820   19.4210 C.ar   17  TYR17       0.0417
     10  CE2       10.8580   30.5770   18.6760 C.ar   17  TYR17       0.0417
     11  CZ        11.7870   30.3280   19.6660 C.ar   17  TYR17       0.1957
     12  OH        11.3560   29.9140   20.9010 O.3    17  TYR17      -0.2866
     13  N         29.6710   24.0530   19.7900 N.3    35  PHE35      -0.1241
     14  CA        29.3870   25.4800   19.6650 C.3    35  PHE35       0.1605
     15  C         30.6650   26.2730   19.4640 C.2    35  PHE35       0.2264
     16  O         31.7590   25.7890   19.7450 O.2    35  PHE35      -0.2867
     17  CB        28.5630   26.0120   20.8630 C.3    35  PHE35       0.0534
     18  CG        29.3280   26.1330   22.1710 C.ar   35  PHE35      -0.0203
     19  CD1       30.0010   27.3200   22.5020 C.ar   35  PHE35      -0.0042
     20  CD2       29.3190   25.1000   23.1050 C.ar   35  PHE35      -0.0042
     21  CE1       30.6500   27.4440   23.7320 C.ar   35  PHE35      -0.0003
     22  CE2       29.9810   25.2220   24.3250 C.ar   35  PHE35      -0.0003
     23  CZ        30.6350   26.3980   24.6360 C.ar   35  PHE35      -0.0000
     24  N         29.1390   36.0930   21.1710 N.3    49  ARG49      -0.1231
     25  CA        28.2910   35.1620   21.9230 C.3    49  ARG49       0.1694
     26  C         28.4980   33.7270   21.4610 C.2    49  ARG49       0.2592
     27  O         28.7460   33.4830   20.2770 O.2    49  ARG49      -0.2718
     28  CB        26.8060   35.4970   21.7180 C.3    49  ARG49       0.0321
     29  CG        26.3790   36.8690   22.2040 C.3    49  ARG49       0.0489
     30  CD        26.3520   36.9690   23.7160 C.3    49  ARG49       0.2205
     31  NE        25.8180   38.2760   24.1220 N.pl3  49  ARG49      -0.0865
     32  CZ        26.5390   39.3880   24.2550 C.cat  49  ARG49       0.5346
     33  NH1       27.8540   39.3880   24.0420 N.pl3  49  ARG49       0.1354
     34  NH2       25.9330   40.5160   24.6170 N.pl3  49  ARG49       0.1354
     35  N         28.3670   32.7870   22.3890 N.am   50  ALA50      -0.1966
     36  CA        28.3660   31.3560   22.0540 C.3    50  ALA50       0.1728
     37  C         27.1300   30.9550   21.2350 C.2    50  ALA50       0.2616
     38  O         25.9930   31.3030   21.5880 O.2    50  ALA50      -0.2715
     39  CB        28.4410   30.5230   23.3210 C.3    50  ALA50       0.0334
     40  N         27.3610   30.2070   20.1520 N.am   51  TYR51      -0.1960
     41  CA        26.3010   29.6780   19.2640 C.3    51  TYR51       0.1771
     42  C         26.5890   28.2530   18.8700 C.2    51  TYR51       0.2620
     43  O         27.7070   27.9400   18.4830 O.2    51  TYR51      -0.2715
     44  CB        26.2210   30.4910   17.9670 C.3    51  TYR51       0.0574
     45  CG        25.1940   31.5870   18.0350 C.ar   51  TYR51      -0.0198
     46  CD1       25.4280   32.7310   18.8060 C.ar   51  TYR51      -0.0009
     47  CD2       23.9700   31.4670   17.3800 C.ar   51  TYR51      -0.0009
     48  CE1       24.4810   33.7390   18.9070 C.ar   51  TYR51       0.0417
     49  CE2       23.0170   32.4670   17.4760 C.ar   51  TYR51       0.0417
     50  CZ        23.2710   33.6020   18.2390 C.ar   51  TYR51       0.1957
     51  OH        22.3160   34.5940   18.3310 O.3    51  TYR51      -0.2866
     52  N         25.5900   27.3810   18.9410 N.am   52  SER52      -0.1950
     53  CA        25.7290   26.0340   18.3740 C.3    52  SER52       0.1924
     54  C         25.9740   26.1350   16.8670 C.2    52  SER52       0.2314
     55  O         25.4280   27.0240   16.2130 O.2    52  SER52      -0.2863
     56  CB        24.4650   25.2280   18.6030 C.3    52  SER52       0.2116
     57  OG        24.2860   24.9530   19.9750 O.3    52  SER52      -0.2180
     58  N         21.1770   28.9630   14.1280 N.3    65  PHE65      -0.1227
     59  CA        19.7510   29.1080   14.4260 C.3    65  PHE65       0.1736
     60  C         19.6870   30.0020   15.6580 C.2    65  PHE65       0.2596
     61  O         20.1900   29.6370   16.7180 O.2    65  PHE65      -0.2718
     62  CB        19.1390   27.7180   14.6750 C.3    65  PHE65       0.0547
     63  CG        17.6790   27.7310   15.0530 C.ar   65  PHE65      -0.0202
     64  CD1       16.7890   28.6240   14.4650 C.ar   65  PHE65      -0.0042
     65  CD2       17.1900   26.8230   15.9930 C.ar   65  PHE65      -0.0042
     66  CE1       15.4370   28.6310   14.8270 C.ar   65  PHE65      -0.0003
     67  CE2       15.8490   26.8250   16.3500 C.ar   65  PHE65      -0.0003
     68  CZ        14.9730   27.7300   15.7710 C.ar   65  PHE65      -0.0000
     69  N         19.0620   31.1670   15.5000 N.am   66  SER66      -0.1938
     70  CA        19.1960   32.2600   16.4610 C.3    66  SER66       0.2055
     71  C         17.8910   32.7740   17.0600 C.2    66  SER66       0.2642
     72  O         16.8740   32.9050   16.3640 O.2    66  SER66      -0.2714
     73  CB        19.9280   33.4310   15.7940 C.3    66  SER66       0.2130
     74  OG        20.1880   34.4490   16.7390 O.3    66  SER66      -0.2179
     75  N         17.9460   33.0760   18.3570 N.am   67  ILE67      -0.1977
     76  CA        16.9340   33.8720   19.0340 C.3    67  ILE67       0.1596
     77  C         16.9790   35.3260   18.5410 C.2    67  ILE67       0.2287
     78  O         17.9820   35.7750   17.9810 O.2    67  ILE67      -0.2864
     79  CB        17.1530   33.8360   20.5760 C.3    67  ILE67       0.0276
     80  CG1       15.8980   34.2860   21.3320 C.3    67  ILE67       0.0022
     81  CG2       18.4170   34.6140   20.9840 C.3    67  ILE67       0.0022
     82  CD1       14.7640   33.2920   21.2340 C.3    67  ILE67       0.0001
     83  N         16.2770   38.6840   20.6210 N.3    69  VAL69      -0.1245
     84  CA        15.9560   39.3530   21.8790 C.3    69  VAL69       0.1561
     85  C         15.8840   40.8630   21.5980 C.2    69  VAL69       0.2260
     86  O         16.8790   41.4540   21.1990 O.2    69  VAL69      -0.2867
     87  CB        17.0240   39.0580   22.9590 C.3    69  VAL69       0.0252
     88  CG1       16.6180   39.6680   24.2920 C.3    69  VAL69       0.0019
     89  CG2       17.2430   37.5550   23.1080 C.3    69  VAL69       0.0019
     90  N         16.0450   43.7680   23.0440 N.3    71  ASP71      -0.1225
     91  CA        17.0800   44.6470   23.5710 C.3    71  ASP71       0.1805
     92  C         18.3690   43.8750   23.8450 C.2    71  ASP71       0.2598
     93  O         19.2440   44.3480   24.5670 O.2    71  ASP71      -0.2718
     94  CB        16.5880   45.3490   24.8500 C.3    71  ASP71       0.1424
     95  CG        16.3150   44.3760   25.9910 C.2    71  ASP71       0.3668
     96  OD1       16.3210   43.1400   25.7660 O.co2  71  ASP71      -0.2456
     97  OD2       16.0850   44.8460   27.1260 O.co2  71  ASP71      -0.2456
     98  N         18.4820   42.6750   23.2750 N.am   72  GLY72      -0.1943
     99  CA        19.7110   41.9010   23.4150 C.3    72  GLY72       0.1998
    100  C         20.8520   42.5390   22.6390 C.2    72  GLY72       0.2481
    101  O         20.7060   42.8320   21.4530 O.2    72  GLY72      -0.2729
    102  N         22.0100   42.7560   23.2960 N.am   73  PRO73      -0.2715
    103  CA        23.0730   43.4710   22.5960 C.3    73  PRO73       0.1536
    104  C         23.4640   42.8580   21.2440 C.2    73  PRO73       0.2598
    105  O         23.5900   43.5840   20.2590 O.2    73  PRO73      -0.2715
    106  CB        24.2330   43.4320   23.5910 C.3    73  PRO73       0.0310
    107  CG        23.5560   43.3940   24.9150 C.3    73  PRO73       0.0237
    108  CD        22.3320   42.5440   24.7180 C.3    73  PRO73       0.0939
    109  N         23.6240   41.5390   21.1720 N.am   74  LEU74      -0.1964
    110  CA        23.9890   40.9350   19.8920 C.3    74  LEU74       0.1728
    111  C         22.8070   40.8200   18.9540 C.2    74  LEU74       0.2616
    112  O         22.8880   41.2600   17.8140 O.2    74  LEU74      -0.2715
    113  CB        24.6980   39.5730   20.0370 C.3    74  LEU74       0.0311
    114  CG        24.9670   38.8970   18.6800 C.3    74  LEU74       0.0022
    115  CD1       26.0320   39.6370   17.8740 C.3    74  LEU74       0.0001
    116  CD2       25.3470   37.4400   18.8420 C.3    74  LEU74       0.0001
    117  N         21.7180   40.2140   19.4260 N.am   75  THR75      -0.1951
    118  CA        20.6530   39.8310   18.5020 C.3    75  THR75       0.1897
    119  C         19.7500   40.9800   18.0720 C.2    75  THR75       0.2313
    120  O         19.0710   40.8640   17.0580 O.2    75  THR75      -0.2863
    121  CB        19.8640   38.5820   18.9610 C.3    75  THR75       0.1794
    122  OG1       19.1740   38.8460   20.1830 O.3    75  THR75      -0.2208
    123  CG2       20.8100   37.4060   19.1760 C.3    75  THR75       0.0378
    124  N         13.1770   25.4400   21.8790 N.3   114  GLY114     -0.1210
    125  CA        13.5550   26.7030   21.2230 C.3   114  GLY114      0.1956
    126  C         14.7880   26.4970   20.3620 C.2   114  GLY114      0.2612
    127  O         14.8520   25.5530   19.5770 O.2   114  GLY114     -0.2717
    128  N         15.7870   27.3530   20.5590 N.am  115  THR115     -0.1952
    129  CA        17.0330   27.2760   19.7770 C.3   115  THR115      0.1897
    130  C         17.9210   26.0810   20.1220 C.2   115  THR115      0.2313
    131  O         18.9100   25.8310   19.4270 O.2   115  THR115     -0.2863
    132  CB        17.8530   28.5760   19.8720 C.3   115  THR115      0.1794
    133  OG1       18.1360   28.8510   21.2500 O.3   115  THR115     -0.2208
    134  CG2       17.0790   29.7370   19.2700 C.3   115  THR115      0.0378
    135  N         19.1150   23.7650   17.5030 N.3   118  ALA118     -0.1245
    136  CA        20.2950   24.0370   16.6700 C.3   118  ALA118      0.1562
    137  C         21.3480   22.9040   16.5700 C.2   118  ALA118      0.2260
    138  O         21.7000   22.5070   15.4620 O.2   118  ALA118     -0.2867
    139  CB        20.9350   25.3710   17.0670 C.3   118  ALA118      0.0290
    140  N          6.5580   26.9330   22.3120 N.3   143  ARG143     -0.1245
    141  CA         5.3220   27.4130   22.9380 C.3   143  ARG143      0.1563
    142  C          4.0820   27.2510   22.0560 C.2   143  ARG143      0.2260
    143  O          3.0540   26.7620   22.5170 O.2   143  ARG143     -0.2867
    144  CB         5.4840   28.8570   23.4090 C.3   143  ARG143      0.0307
    145  CG         6.5030   28.9780   24.5250 C.3   143  ARG143      0.0489
    146  CD         6.8840   30.4100   24.8440 C.3   143  ARG143      0.2205
    147  NE         7.9930   30.4280   25.7950 N.pl3 143  ARG143     -0.0865
    148  CZ         9.2780   30.5620   25.4640 C.cat 143  ARG143      0.5346
    149  NH1        9.6360   30.7470   24.1990 N.pl3 143  ARG143      0.1354
    150  NH2       10.2120   30.5560   26.4070 N.pl3 143  ARG143      0.1354
    151  N         23.5670   20.4840   27.5280 N.3   250  GLU250     -0.1231
    152  CA        24.1950   21.7930   27.4510 C.3   250  GLU250      0.1699
    153  C         23.1410   22.8750   27.4360 C.2   250  GLU250      0.2592
    154  O         22.1220   22.7500   26.7330 O.2   250  GLU250     -0.2718
    155  CB        25.0610   21.8500   26.1890 C.3   250  GLU250      0.0402
    156  CG        25.7480   23.1670   25.8820 C.3   250  GLU250      0.1161
    157  CD        26.6640   23.0300   24.6680 C.2   250  GLU250      0.3649
    158  OE1       27.8180   22.6060   24.8930 O.co2 250  GLU250     -0.2457
    159  OE2       26.2220   23.2950   23.5180 O.co2 250  GLU250     -0.2457
    160  N         23.3760   23.9180   28.2330 N.am  251  ARG251     -0.1966
    161  CA        22.5600   25.1310   28.2220 C.3   251  ARG251      0.1729
    162  C         22.3870   25.6860   26.8100 C.2   251  ARG251      0.2616
    163  O         23.3650   25.8710   26.0780 O.2   251  ARG251     -0.2715
    164  CB        23.1760   26.1990   29.1390 C.3   251  ARG251      0.0348
    165  CG        24.5870   26.6090   28.7260 C.3   251  ARG251      0.0492
    166  CD        25.4690   27.0310   29.8980 C.3   251  ARG251      0.2205
    167  NE        26.8120   27.3580   29.4020 N.pl3 251  ARG251     -0.0865
    168  CZ        27.7360   26.4610   29.0550 C.cat 251  ARG251      0.5346
    169  NH1       27.4940   25.1530   29.1700 N.pl3 251  ARG251      0.1354
    170  NH2       28.9110   26.8700   28.5900 N.pl3 251  ARG251      0.1354
    171  N         21.1450   25.9200   26.4010 N.am  252  ALA252     -0.1963
    172  CA        20.8900   26.5740   25.1120 C.3   252  ALA252      0.1728
    173  C         21.1140   28.0850   25.2230 C.2   252  ALA252      0.2616
    174  O         21.2760   28.7720   24.2260 O.2   252  ALA252     -0.2715
    175  CB        19.4630   26.2940   24.6520 C.3   252  ALA252      0.0334
    176  N         21.0830   28.5710   26.4640 N.am  253  PHE253     -0.1960
    177  CA        21.2380   29.9770   26.8290 C.3   253  PHE253      0.1771
    178  C         21.2380   30.0420   28.3470 C.2   253  PHE253      0.2619
    179  O         20.9720   29.0350   29.0200 O.2   253  PHE253     -0.2715
    180  CB        20.1370   30.8750   26.2200 C.3   253  PHE253      0.0574
    181  CG        18.7610   30.6540   26.7930 C.ar  253  PHE253     -0.0200
    182  CD1       17.9160   29.6790   26.2630 C.ar  253  PHE253     -0.0042
    183  CD2       18.3050   31.4160   27.8690 C.ar  253  PHE253     -0.0042
    184  CE1       16.6430   29.4810   26.7880 C.ar  253  PHE253     -0.0003
    185  CE2       17.0310   31.2160   28.3980 C.ar  253  PHE253     -0.0003
    186  CZ        16.2050   30.2450   27.8580 C.ar  253  PHE253     -0.0000
    187  N         21.5570   31.2200   28.8700 N.am  254  VAL254     -0.1963
    188  CA        21.5300   31.4710   30.2930 C.3   254  VAL254      0.1727
    189  C         20.5830   32.6520   30.5370 C.2   254  VAL254      0.2616
    190  O         20.5240   33.5760   29.7210 O.2   254  VAL254     -0.2715
    191  CB        22.9670   31.7410   30.7950 C.3   254  VAL254      0.0290
    192  CG1       22.9780   32.4920   32.1160 C.3   254  VAL254      0.0023
    193  CG2       23.7300   30.4190   30.8950 C.3   254  VAL254      0.0023
    194  N         19.8110   32.5750   31.6240 N.am  255  GLU255     -0.1963
    195  CA        18.9830   33.7000   32.0460 C.3   255  GLU255      0.1733
    196  C         19.8620   34.7150   32.7610 C.2   255  GLU255      0.2616
    197  O         20.1970   34.5510   33.9380 O.2   255  GLU255     -0.2715
    198  CB        17.8170   33.2480   32.9300 C.3   255  GLU255      0.0429
    199  CG        16.6610   32.5810   32.1840 C.3   255  GLU255      0.1163
    200  CD        15.9390   33.4920   31.1860 C.2   255  GLU255      0.3649
    201  OE1       16.1900   34.7170   31.1640 O.co2 255  GLU255     -0.2457
    202  OE2       15.1020   32.9720   30.4070 O.co2 255  GLU255     -0.2457
    203  N         20.2280   35.7610   32.0370 N.am  256  LYS256     -0.1977
    204  CA        21.1950   36.7310   32.5290 C.3   256  LYS256      0.1596
    205  C         20.5550   37.7460   33.4620 C.2   256  LYS256      0.2287
    206  O         19.3650   38.0620   33.3530 O.2   256  LYS256     -0.2864
    207  CB        21.9040   37.3980   31.3550 C.3   256  LYS256      0.0298
    208  CG        22.6770   36.3710   30.5410 C.3   256  LYS256      0.0038
    209  CD        23.3740   36.9800   29.3540 C.3   256  LYS256      0.0206
    210  CE        24.1340   35.8820   28.6160 C.3   256  LYS256      0.1093
    211  NZ        24.9190   36.4280   27.4810 N.3   256  LYS256     -0.1314
@<TRIPOS>BOND
     1     4     3    2
     2    58    59    1
     3     3     2    1
     4    59    62    1
     5    59    60    1
     6    64    66   ar
     7    64    63   ar
     8    62    63    1
     9    66    68   ar
    10    63    65   ar
    11   138   137    2
    12    69    60   am
    13    69    70    1
    14    60    61    2
    15     2     5    1
    16     2     1    1
    17    68    67   ar
    18     5     6    1
    19    73    70    1
    20    73    74    1
    21    65    67   ar
    22    55    54    2
    23    72    71    2
    24    70    71    1
    25   137   136    1
    26   136   139    1
    27   136   135    1
    28    54    53    1
    29   120   119    2
    30    71    75   am
    31     6     8   ar
    32     6     7   ar
    33    47    49   ar
    34    47    45   ar
    35     8    10   ar
    36    49    50   ar
    37   112   111    2
    38   115   114    1
    39    44    45    1
    40    44    41    1
    41    78    77    2
    42    45    46   ar
    43   119   118    1
    44     7     9   ar
    45    50    51    1
    46    50    48   ar
    47    75    76    1
    48    53    56    1
    49    53    52    1
    50    43    42    2
    51   118   121    1
    52   118   117    1
    53    77    76    1
    54    56    57    1
    55    10    11   ar
    56   114   116    1
    57   114   113    1
    58    46    48   ar
    59    42    52   am
    60    42    41    1
    61   111   117   am
    62   111   110    1
    63   121   123    1
    64   121   122    1
    65    76    79    1
    66    41    40    1
    67   134   132    1
    68     9    11   ar
    69   131   130    2
    70    15    14    1
    71    15    16    2
    72   127   126    2
    73    14    13    1
    74    14    17    1
    75    11    12    1
    76   129   132    1
    77   129   130    1
    78   129   128    1
    79   132   133    1
    80   110   113    1
    81   110   109    1
    82    40    37   am
    83   105   104    2
    84    27    26    2
    85   126   128   am
    86   126   125    1
    87    79    81    1
    88    79    80    1
    89    83    84    1
    90    17    18    1
    91    24    25    1
    92   109   104   am
    93    86    85    2
    94   125   124    1
    95    82    80    1
    96    37    38    2
    97    37    36    1
    98   104   103    1
    99   101   100    2
   100    26    25    1
   101    26    35   am
   102    85    84    1
   103    28    25    1
   104    28    29    1
   105    84    87    1
   106    36    35    1
   107    36    39    1
   108   142   143    2
   109   142   141    1
   110    18    19   ar
   111    18    20   ar
   112    29    30    1
   113   140   141    1
   114    19    21   ar
   115   103   102    1
   116   103   106    1
   117   100   102   am
   118   100    99    1
   119   141   144    1
   120    87    89    1
   121    87    88    1
   122    90    91    1
   123    20    22   ar
   124    98    99    1
   125    98    92   am
   126   102   108    1
   127   144   145    1
   128   159   157   ar
   129    91    92    1
   130    91    94    1
   131   106   107    1
   132    30    31    1
   133    21    23   ar
   134    92    93    2
   135    33    32    1
   136    31    32    2
   137   149   148    1
   138   174   173    2
   139    32    34    1
   140    22    23   ar
   141   145   146    1
   142   175   172    1
   143   157   158   ar
   144   157   156    1
   145   108   107    1
   146   146   147    1
   147    94    95    1
   148   172   173    1
   149   172   171    1
   150   173   176   am
   151   148   147    2
   152   148   150    1
   153    96    95   ar
   154   156   155    1
   155    95    97   ar
   156   163   162    2
   157   155   152    1
   158   180   181    1
   159   180   177    1
   160   182   184   ar
   161   182   181   ar
   162   171   162   am
   163   176   177    1
   164   154   153    2
   165   184   186   ar
   166   181   183   ar
   167   162   161    1
   168   177   178    1
   169   153   152    1
   170   153   160   am
   171   152   151    1
   172   211   210    1
   173   186   185   ar
   174   183   185   ar
   175   161   160    1
   176   161   164    1
   177   178   187   am
   178   178   179    2
   179   170   168    1
   180   210   209    1
   181   165   164    1
   182   165   166    1
   183   187   188    1
   184   168   169    1
   185   168   167    2
   186   209   208    1
   187   167   166    1
   188   190   189    2
   189   188   189    1
   190   188   191    1
   191   202   200   ar
   192   189   194   am
   193   208   207    1
   194   191   193    1
   195   191   192    1
   196   201   200   ar
   197   200   199    1
   198   207   204    1
   199   194   195    1
   200   203   204    1
   201   203   196   am
   202   195   196    1
   203   195   198    1
   204   199   198    1
   205   204   205    1
   206   196   197    2
   207   206   205    2
