@<TRIPOS>MOLECULE
tmp/4b4eA01.pdb
 111 111 0 0 0
SMALL
GASTEIGER

@<TRIPOS>ATOM
      1  N         17.2760    9.4320   -3.9090 N.3    52  ASP52      -0.1239
      2  CA        17.5070    8.0760   -3.4330 C.3    52  ASP52       0.1674
      3  C         16.4290    7.6930   -2.4250 C.2    52  ASP52       0.2266
      4  O         16.0390    8.5110   -1.5880 O.2    52  ASP52      -0.2867
      5  CB        18.8510    7.9910   -2.7220 C.3    52  ASP52       0.1410
      6  CG        20.0170    8.2390   -3.6210 C.2    52  ASP52       0.3668
      7  OD1       19.9470    7.9450   -4.8240 O.co2  52  ASP52      -0.2456
      8  OD2       21.0360    8.7380   -3.1040 O.co2  52  ASP52      -0.2456
      9  N         18.0660    0.9540    1.0730 N.3    56  LEU56      -0.1231
     10  CA        19.2940    0.8810    0.2950 C.3    56  LEU56       0.1693
     11  C         19.4420    2.0650   -0.6640 C.2    56  LEU56       0.2592
     12  O         20.2800    2.0410   -1.5600 O.2    56  LEU56      -0.2718
     13  CB        19.4080   -0.4680   -0.4140 C.3    56  LEU56       0.0284
     14  CG        19.7670   -1.6300    0.5060 C.3    56  LEU56       0.0019
     15  CD1       19.5250   -2.9580   -0.1940 C.3    56  LEU56       0.0001
     16  CD2       21.2050   -1.5410    0.9950 C.3    56  LEU56       0.0001
     17  N         18.6560    3.1180   -0.4590 N.am   57  GLN57      -0.1966
     18  CA        18.9000    4.3990   -1.1250 C.3    57  GLN57       0.1733
     19  C         19.0910    4.2390   -2.6370 C.2    57  GLN57       0.2616
     20  O         20.0900    4.6610   -3.2230 O.2    57  GLN57      -0.2715
     21  CB        20.0540    5.1290   -0.4480 C.3    57  GLN57       0.0408
     22  CG        19.6940    5.6250    0.9340 C.3    57  GLN57       0.0908
     23  CD        18.6860    6.7510    0.8740 C.2    57  GLN57       0.2608
     24  OE1       19.0290    7.8880    0.5670 O.2    57  GLN57      -0.2717
     25  NE2       17.4220    6.4350    1.1160 N.am   57  GLN57      -0.0878
     26  N         18.0650    3.6680   -3.2430 N.am   58  ILE58      -0.1963
     27  CA        18.0390    3.3760   -4.6690 C.3    58  ILE58       0.1727
     28  C         17.5970    4.6130   -5.4480 C.2    58  ILE58       0.2616
     29  O         16.6490    5.3050   -5.0710 O.2    58  ILE58      -0.2715
     30  CB        17.1320    2.1690   -4.9140 C.3    58  ILE58       0.0290
     31  CG1       17.8010    0.9270   -4.3110 C.3    58  ILE58       0.0022
     32  CG2       16.7800    2.0210   -6.3870 C.3    58  ILE58       0.0023
     33  CD1       16.9370   -0.3150   -4.3190 C.3    58  ILE58       0.0001
     34  N         18.3130    4.8980   -6.5290 N.am   59  ASN59      -0.1972
     35  CA        18.2150    6.1760   -7.2190 C.3    59  ASN59       0.1688
     36  C         17.1760    6.2150   -8.3420 C.2    59  ASN59       0.2292
     37  O         17.0220    5.2810   -9.1350 O.2    59  ASN59      -0.2864
     38  CB        19.5990    6.5420   -7.7650 C.3    59  ASN59       0.1181
     39  CG        19.6620    7.9460   -8.3210 C.2    59  ASN59       0.2629
     40  OD1       19.5830    8.1550   -9.5330 O.2    59  ASN59      -0.2716
     41  ND2       19.7990    8.9190   -7.4370 N.am   59  ASN59      -0.0877
     42  N         18.0210    5.9160  -12.6830 N.3    62  TRP62      -0.1227
     43  CA        18.1040    4.6260  -13.3710 C.3    62  TRP62       0.1737
     44  C         17.0380    3.6370  -12.9790 C.2    62  TRP62       0.2595
     45  O         16.5850    2.8510  -13.8230 O.2    62  TRP62      -0.2718
     46  CB        19.4620    3.9740  -13.1130 C.3    62  TRP62       0.0564
     47  CG        20.6560    4.8160  -13.4970 C.ar   62  TRP62       0.0003
     48  CD1       21.6880    5.2580  -12.6710 C.ar   62  TRP62       0.0946
     49  CD2       20.9920    5.3310  -14.8250 C.ar   62  TRP62       0.0152
     50  NE1       22.6000    5.9970  -13.3750 N.ar   62  TRP62      -0.2442
     51  CE2       22.2450    6.0780  -14.6700 C.ar   62  TRP62       0.0810
     52  CE3       20.4030    5.2600  -16.0790 C.ar   62  TRP62       0.0012
     53  CZ2       22.8580    6.7110  -15.7360 C.ar   62  TRP62       0.0191
     54  CZ3       21.0360    5.9010  -17.1490 C.ar   62  TRP62       0.0001
     55  CH2       22.2300    6.6130  -16.9770 C.ar   62  TRP62       0.0015
     56  N         16.6520    3.6230  -11.6930 N.am   63  TRP63      -0.1976
     57  CA        16.0330    2.4150  -11.1420 C.3    63  TRP63       0.1640
     58  C         14.5530    2.4490  -10.8570 C.2    63  TRP63       0.2290
     59  O         13.8940    1.4370  -10.9840 O.2    63  TRP63      -0.2864
     60  CB        16.7960    1.9590   -9.8930 C.3    63  TRP63       0.0576
     61  CG        18.2490    1.7910  -10.1940 C.ar   63  TRP63       0.0006
     62  CD1       19.2750    2.6240   -9.8100 C.ar   63  TRP63       0.0946
     63  CD2       18.8630    0.7740  -11.0340 C.ar   63  TRP63       0.0152
     64  NE1       20.4620    2.1820  -10.3150 N.ar   63  TRP63      -0.2442
     65  CE2       20.2820    1.0770  -11.0580 C.ar   63  TRP63       0.0810
     66  CE3       18.4020   -0.3440  -11.6890 C.ar   63  TRP63       0.0012
     67  CZ2       21.1860    0.2990  -11.7530 C.ar   63  TRP63       0.0191
     68  CZ3       19.3220   -1.1220  -12.3950 C.ar   63  TRP63       0.0001
     69  CH2       20.6780   -0.8040  -12.4220 C.ar   63  TRP63       0.0015
     70  N         20.5160   -4.0880   -9.3040 N.3    98  ILE98      -0.1245
     71  CA        21.6140   -3.1320   -9.2270 C.3    98  ILE98       0.1561
     72  C         22.9570   -3.8400   -9.0270 C.2    98  ILE98       0.2260
     73  O         23.9320   -3.5350   -9.7150 O.2    98  ILE98      -0.2867
     74  CB        21.3620   -2.1270   -8.0880 C.3    98  ILE98       0.0252
     75  CG1       20.1190   -1.2730   -8.3990 C.3    98  ILE98       0.0019
     76  CG2       22.5830   -1.2480   -7.8590 C.3    98  ILE98       0.0019
     77  CD1       19.5950   -0.4810   -7.2120 C.3    98  ILE98       0.0001
     78  N         24.6240   -5.3440  -12.0520 N.3   101  ASP101     -0.1239
     79  CA        24.8440   -4.4150  -13.1740 C.3   101  ASP101      0.1674
     80  C         26.2930   -4.3660  -13.6580 C.2   101  ASP101      0.2266
     81  O         26.5540   -3.8340  -14.7290 O.2   101  ASP101     -0.2867
     82  CB        24.3700   -3.0110  -12.7740 C.3   101  ASP101      0.1410
     83  CG        24.4080   -2.0140  -13.9050 C.2   101  ASP101      0.3668
     84  OD1       23.6760   -2.2140  -14.8860 O.co2 101  ASP101     -0.2456
     85  OD2       25.1410   -1.0090  -13.7770 O.co2 101  ASP101     -0.2456
     86  N         28.2550    0.0020   -6.4290 N.3   107  ALA107     -0.1231
     87  CA        27.1300    0.8790   -6.7100 C.3   107  ALA107      0.1694
     88  C         26.7010    1.7140   -5.5100 C.2   107  ALA107      0.2592
     89  O         26.2070    2.8240   -5.6770 O.2   107  ALA107     -0.2718
     90  CB        25.9520    0.0630   -7.2110 C.3   107  ALA107      0.0304
     91  N         26.8490    1.1650   -4.3090 N.am  108  TRP108     -0.1962
     92  CA        26.5240    1.8770   -3.0720 C.3   108  TRP108      0.1771
     93  C         27.7560    2.5550   -2.5130 C.2   108  TRP108      0.2619
     94  O         28.6950    1.9020   -2.0430 O.2   108  TRP108     -0.2715
     95  CB        25.9400    0.9100   -2.0380 C.3   108  TRP108      0.0590
     96  CG        24.5550    0.4700   -2.3860 C.ar  108  TRP108      0.0006
     97  CD1       23.3890    1.1210   -2.0780 C.ar  108  TRP108      0.0946
     98  CD2       24.1640   -0.6980   -3.1470 C.ar  108  TRP108      0.0152
     99  NE1       22.3150    0.4560   -2.5760 N.ar  108  TRP108     -0.2442
    100  CE2       22.7240   -0.6550   -3.2390 C.ar  108  TRP108      0.0810
    101  CE3       24.8500   -1.7470   -3.7430 C.ar  108  TRP108      0.0012
    102  CZ2       22.0080   -1.6320   -3.9030 C.ar  108  TRP108      0.0191
    103  CZ3       24.1260   -2.7300   -4.4120 C.ar  108  TRP108      0.0001
    104  CH2       22.7300   -2.6730   -4.4870 C.ar  108  TRP108      0.0015
    105  N         27.7710    3.8780   -2.5910 N.am  109  VAL109     -0.1977
    106  CA        28.9200    4.6650   -2.1410 C.3   109  VAL109      0.1596
    107  C         29.2450    4.3790   -0.6830 C.2   109  VAL109      0.2287
    108  O         30.4140    4.1920   -0.3310 O.2   109  VAL109     -0.2864
    109  CB        28.6830    6.1760   -2.3680 C.3   109  VAL109      0.0276
    110  CG1       29.8350    6.9880   -1.8040 C.3   109  VAL109      0.0022
    111  CG2       28.4980    6.4690   -3.8480 C.3   109  VAL109      0.0022
@<TRIPOS>BOND
     1    54    55   ar
     2    54    52   ar
     3    55    53   ar
     4    52    49   ar
     5    53    51   ar
     6    84    83   ar
     7    49    51   ar
     8    49    47   ar
     9    81    80    2
    10    51    50   ar
    11    83    85   ar
    12    83    82    1
    13    45    44    2
    14    80    79    1
    15    47    46    1
    16    47    48   ar
    17    50    48   ar
    18    43    46    1
    19    43    44    1
    20    43    42    1
    21    79    82    1
    22    79    78    1
    23    44    56   am
    24    69    68   ar
    25    69    67   ar
    26    68    66   ar
    27    67    65   ar
    28    56    57    1
    29    66    63   ar
    30    57    58    1
    31    57    60    1
    32    65    63   ar
    33    65    64   ar
    34    63    61   ar
    35    59    58    2
    36    64    62   ar
    37    61    60    1
    38    61    62   ar
    39    73    72    2
    40    40    39    2
    41    70    71    1
    42    71    72    1
    43    71    74    1
    44    37    36    2
    45    75    74    1
    46    75    77    1
    47    36    35    1
    48    39    38    1
    49    39    41   am
    50    74    76    1
    51    38    35    1
    52    35    34    1
    53    90    87    1
    54    87    86    1
    55    87    88    1
    56    34    28   am
    57    32    30    1
    58    89    88    2
    59    88    91   am
    60    28    29    2
    61    28    27    1
    62    30    27    1
    63    30    31    1
    64     7     6   ar
    65    27    26    1
    66   104   103   ar
    67   104   102   ar
    68   103   101   ar
    69    33    31    1
    70    91    92    1
    71     1     2    1
    72   102   100   ar
    73   111   109    1
    74   101    98   ar
    75     6     8   ar
    76     6     5    1
    77     2     5    1
    78     2     3    1
    79    26    19   am
    80   100    98   ar
    81   100    99   ar
    82    20    19    2
    83    98    96   ar
    84    92    93    1
    85    92    95    1
    86    19    18    1
    87   105    93   am
    88   105   106    1
    89    99    97   ar
    90    93    94    2
    91     3     4    2
    92    96    97   ar
    93    96    95    1
    94   109   106    1
    95   109   110    1
    96   106   107    1
    97    12    11    2
    98    18    17    1
    99    18    21    1
   100   107   108    2
   101    11    17   am
   102    11    10    1
   103    21    22    1
   104    13    10    1
   105    13    14    1
   106    15    14    1
   107    10     9    1
   108    14    16    1
   109    24    23    2
   110    23    22    1
   111    23    25   am
