@<TRIPOS>MOLECULE
tmp/4b4gB00.pdb
 155 151 0 0 0
SMALL
GASTEIGER

@<TRIPOS>ATOM
      1  N         26.7880  -12.1830   51.8120 N.3    38  TYR38      -0.1241
      2  CA        26.3550  -12.9450   53.0120 C.3    38  TYR38       0.1605
      3  C         25.3450  -14.0130   52.6900 C.2    38  TYR38       0.2264
      4  O         25.5780  -15.1420   53.0680 O.2    38  TYR38      -0.2867
      5  CB        25.8480  -12.0030   54.1370 C.3    38  TYR38       0.0534
      6  CG        26.9350  -11.0550   54.5410 C.ar   38  TYR38      -0.0201
      7  CD1       27.1300   -9.8760   53.8540 C.ar   38  TYR38      -0.0009
      8  CD2       27.8430  -11.3980   55.5410 C.ar   38  TYR38      -0.0009
      9  CE1       28.1740   -9.0240   54.1850 C.ar   38  TYR38       0.0417
     10  CE2       28.8940  -10.5550   55.8920 C.ar   38  TYR38       0.0417
     11  CZ        29.0720   -9.3760   55.2050 C.ar   38  TYR38       0.1957
     12  OH        30.1160   -8.5230   55.5420 O.3    38  TYR38      -0.2866
     13  N         27.1880  -16.5920   50.4320 N.3    41  SER41      -0.1202
     14  CA        28.1230  -17.5240   51.1690 C.3    41  SER41       0.2020
     15  C         27.3460  -18.5340   52.0020 C.2    41  SER41       0.2619
     16  O         27.8160  -19.6560   52.2300 O.2    41  SER41      -0.2717
     17  CB        29.1030  -16.8150   52.1130 C.3    41  SER41       0.2103
     18  OG        29.8330  -15.7420   51.5540 O.3    41  SER41      -0.2182
     19  N         26.1400  -18.1510   52.4420 N.am   42  THR42      -0.1952
     20  CA        25.2430  -19.1000   53.1370 C.3    42  THR42       0.1897
     21  C         24.8500  -20.2710   52.2370 C.2    42  THR42       0.2313
     22  O         24.9980  -21.4330   52.6030 O.2    42  THR42      -0.2863
     23  CB        24.0400  -18.3740   53.7180 C.3    42  THR42       0.1794
     24  OG1       24.5290  -17.2960   54.5110 O.3    42  THR42      -0.2208
     25  CG2       23.1790  -19.3050   54.5850 C.3    42  THR42       0.0378
     26  N         27.9440  -22.3290   51.8190 N.3    45  LEU45      -0.1245
     27  CA        28.2540  -23.1320   52.9890 C.3    45  LEU45       0.1561
     28  C         27.4480  -24.4250   53.0320 C.2    45  LEU45       0.2260
     29  O         27.9130  -25.4240   53.5760 O.2    45  LEU45      -0.2867
     30  CB        28.0780  -22.3100   54.2650 C.3    45  LEU45       0.0270
     31  CG        29.2860  -21.8000   55.1040 C.3    45  LEU45       0.0019
     32  CD1       30.1350  -22.9000   55.7310 C.3    45  LEU45       0.0001
     33  CD2       30.1950  -20.8710   54.3410 C.3    45  LEU45       0.0001
     34  N         24.1090  -14.7620   58.6880 N.3   113  TYR113     -0.1227
     35  CA        24.3130  -15.8470   59.5960 C.3   113  TYR113      0.1736
     36  C         25.8100  -15.9740   60.0030 C.2   113  TYR113      0.2595
     37  O         26.7140  -15.8370   59.1770 O.2   113  TYR113     -0.2718
     38  CB        23.8930  -17.1270   58.8900 C.3   113  TYR113      0.0548
     39  CG        22.4210  -17.2120   58.5410 C.ar  113  TYR113     -0.0200
     40  CD1       21.4840  -17.6300   59.4860 C.ar  113  TYR113     -0.0009
     41  CD2       21.9720  -16.9120   57.2720 C.ar  113  TYR113     -0.0009
     42  CE1       20.1440  -17.7160   59.1650 C.ar  113  TYR113      0.0417
     43  CE2       20.6400  -16.9790   56.9500 C.ar  113  TYR113      0.0417
     44  CZ        19.7330  -17.3860   57.8940 C.ar  113  TYR113      0.1957
     45  OH        18.4000  -17.4800   57.5560 O.3   113  TYR113     -0.2866
     46  N         26.0620  -16.2580   61.2670 N.am  114  TYR114     -0.1962
     47  CA        27.4120  -16.4820   61.7220 C.3   114  TYR114      0.1771
     48  C         27.4060  -17.5630   62.8220 C.2   114  TYR114      0.2620
     49  O         26.4680  -17.6200   63.6300 O.2   114  TYR114     -0.2715
     50  CB        28.0390  -15.1690   62.2180 C.3   114  TYR114      0.0574
     51  CG        29.2340  -15.3710   63.1340 C.ar  114  TYR114     -0.0198
     52  CD1       30.5040  -15.5850   62.6080 C.ar  114  TYR114     -0.0009
     53  CD2       29.0930  -15.3840   64.5270 C.ar  114  TYR114     -0.0009
     54  CE1       31.5970  -15.7900   63.4180 C.ar  114  TYR114      0.0417
     55  CE2       30.1830  -15.5620   65.3490 C.ar  114  TYR114      0.0417
     56  CZ        31.4400  -15.7620   64.7860 C.ar  114  TYR114      0.1957
     57  OH        32.5380  -15.9860   65.5730 O.3   114  TYR114     -0.2866
     58  N         28.4190  -18.4260   62.8340 N.am  115  GLY115     -0.1954
     59  CA        28.7360  -19.1700   64.0270 C.3   115  GLY115      0.1869
     60  C         29.3510  -20.5420   63.8410 C.2   115  GLY115      0.2309
     61  O         29.6390  -20.9570   62.7130 O.2   115  GLY115     -0.2863
     62  N         28.5900  -23.8730   61.5960 N.3   118  PHE118     -0.1227
     63  CA        27.4480  -23.4520   60.7930 C.3   118  PHE118      0.1736
     64  C         27.3350  -24.3340   59.5440 C.2   118  PHE118      0.2595
     65  O         26.2400  -24.6300   59.0950 O.2   118  PHE118     -0.2718
     66  CB        27.5540  -21.9850   60.4190 C.3   118  PHE118      0.0547
     67  CG        26.3730  -21.4730   59.6730 C.ar  118  PHE118     -0.0202
     68  CD1       25.1100  -21.4270   60.2790 C.ar  118  PHE118     -0.0042
     69  CD2       26.5030  -21.0300   58.3760 C.ar  118  PHE118     -0.0042
     70  CE1       24.0090  -20.9460   59.5900 C.ar  118  PHE118     -0.0003
     71  CE2       25.3910  -20.5400   57.6790 C.ar  118  PHE118     -0.0003
     72  CZ        24.1550  -20.5110   58.2810 C.ar  118  PHE118     -0.0000
     73  N         28.4860  -24.7720   59.0310 N.am  119  HIS119     -0.1975
     74  CA        28.6020  -25.7140   57.9250 C.3   119  HIS119      0.1656
     75  C         27.8640  -26.9900   58.2300 C.2   119  HIS119      0.2291
     76  O         27.1010  -27.4720   57.4140 O.2   119  HIS119     -0.2864
     77  CB        30.0900  -26.0050   57.6610 C.3   119  HIS119      0.0771
     78  CG        30.3450  -26.9980   56.5570 C.ar  119  HIS119      0.0820
     79  ND1       30.9010  -28.2010   56.7820 N.ar  119  HIS119     -0.2267
     80  CD2       30.0950  -26.9310   55.1830 C.ar  119  HIS119      0.1154
     81  CE1       31.0090  -28.8710   55.6180 C.ar  119  HIS119      0.1986
     82  NE2       30.5110  -28.0870   54.6440 N.ar  119  HIS119     -0.2212
     83  N         39.9340  -11.2150   64.4700 N.3   243  GLN243     -0.1245
     84  CA        40.4460  -12.4790   63.9540 C.3   243  GLN243      0.1566
     85  C         41.5890  -12.3700   62.9060 C.2   243  GLN243      0.2260
     86  O         42.4280  -13.2580   62.8150 O.2   243  GLN243     -0.2867
     87  CB        39.2870  -13.3180   63.3610 C.3   243  GLN243      0.0367
     88  CG        38.2330  -13.7640   64.3770 C.3   243  GLN243      0.0905
     89  CD        37.0910  -14.5770   63.8050 C.2   243  GLN243      0.2608
     90  OE1       36.8610  -14.6230   62.5720 O.2   243  GLN243     -0.2717
     91  NE2       36.3290  -15.2190   64.7100 N.am  243  GLN243     -0.0878
     92  N         37.9210  -13.4790   57.6100 N.3   246  LYS246     -0.1231
     93  CA        36.7770  -12.7340   57.1170 C.3   246  LYS246      0.1693
     94  C         35.5040  -13.5730   57.2690 C.2   246  LYS246      0.2592
     95  O         35.5680  -14.7940   57.3790 O.2   246  LYS246     -0.2718
     96  CB        36.9990  -12.2970   55.6750 C.3   246  LYS246      0.0285
     97  CG        37.9300  -11.1200   55.4830 C.3   246  LYS246      0.0035
     98  CD        37.8080  -10.6210   54.0380 C.3   246  LYS246      0.0206
     99  CE        38.8280   -9.5450   53.6890 C.3   246  LYS246      0.1093
    100  NZ        38.6370   -8.2440   54.4000 N.3   246  LYS246     -0.1314
    101  N         34.3680  -12.9100   57.3180 N.am  247  VAL247     -0.1966
    102  CA        33.0500  -13.5980   57.3530 C.3   247  VAL247      0.1727
    103  C         32.3890  -13.3680   56.0070 C.2   247  VAL247      0.2616
    104  O         32.2750  -12.2380   55.5140 O.2   247  VAL247     -0.2715
    105  CB        32.1270  -13.0180   58.4630 C.3   247  VAL247      0.0290
    106  CG1       30.7600  -13.6740   58.4350 C.3   247  VAL247      0.0023
    107  CG2       32.7740  -13.1580   59.8380 C.3   247  VAL247      0.0023
    108  N         31.9860  -14.4470   55.3870 N.am  248  ALA248     -0.1963
    109  CA        31.2610  -14.3600   54.1290 C.3   248  ALA248      0.1728
    110  C         32.0940  -13.8320   52.9670 C.2   248  ALA248      0.2616
    111  O         31.6420  -12.9760   52.2210 O.2   248  ALA248     -0.2715
    112  CB        29.9370  -13.5730   54.3020 C.3   248  ALA248      0.0334
    113  N         33.3050  -14.3650   52.8160 N.am  249  CYS249     -0.1968
    114  CA        34.2010  -14.0860   51.6770 C.3   249  CYS249      0.1712
    115  C         34.0420  -15.2420   50.6950 C.2   249  CYS249      0.2296
    116  O         34.5870  -16.3160   50.9080 O.2   249  CYS249     -0.2864
    117  CB        35.6200  -14.0100   52.1850 C.3   249  CYS249      0.0983
    118  SG        36.9300  -13.8930   50.9370 S.3   249  CYS249     -0.0798
    119  N         37.1610  -17.3230   49.4430 N.3   252  GLU252     -0.1231
    120  CA        37.6470  -18.2420   50.4790 C.3   252  GLU252      0.1699
    121  C         36.7510  -19.4400   50.6480 C.2   252  GLU252      0.2592
    122  O         37.2390  -20.5700   50.6790 O.2   252  GLU252     -0.2718
    123  CB        37.8430  -17.5170   51.8270 C.3   252  GLU252      0.0402
    124  CG        38.1720  -18.4620   52.9430 C.3   252  GLU252      0.1161
    125  CD        38.4900  -17.7760   54.2440 C.2   252  GLU252      0.3649
    126  OE1       38.1980  -16.5660   54.4150 O.co2 252  GLU252     -0.2457
    127  OE2       39.0320  -18.4880   55.1120 O.co2 252  GLU252     -0.2457
    128  N         35.4430  -19.2200   50.7720 N.am  253  ILE253     -0.1980
    129  CA        34.5410  -20.3710   50.7980 C.3   253  ILE253      0.1595
    130  C         34.6810  -21.2460   49.5490 C.2   253  ILE253      0.2287
    131  O         34.7600  -22.4950   49.6460 O.2   253  ILE253     -0.2864
    132  CB        33.0700  -19.9950   51.0980 C.3   253  ILE253      0.0276
    133  CG1       32.9580  -19.4250   52.5380 C.3   253  ILE253      0.0022
    134  CG2       32.2040  -21.2410   51.0100 C.3   253  ILE253      0.0022
    135  CD1       31.7420  -18.5470   52.8080 C.3   253  ILE253      0.0001
    136  N         38.0140  -23.2130   50.0800 N.3   256  ARG256     -0.1231
    137  CA        38.0320  -24.2790   51.0940 C.3   256  ARG256      0.1694
    138  C         37.0640  -25.3980   50.7250 C.2   256  ARG256      0.2591
    139  O         37.2010  -26.5360   51.2170 O.2   256  ARG256     -0.2718
    140  CB        37.7520  -23.7410   52.4940 C.3   256  ARG256      0.0321
    141  CG        38.6330  -22.5670   52.8420 C.3   256  ARG256      0.0489
    142  CD        38.5170  -22.1800   54.3000 C.3   256  ARG256      0.2205
    143  NE        39.3360  -21.0030   54.6340 N.pl3 256  ARG256     -0.0865
    144  CZ        40.6790  -21.0110   54.7980 C.cat 256  ARG256      0.5346
    145  NH1       41.3830  -22.1280   54.6320 N.pl3 256  ARG256      0.1354
    146  NH2       41.3300  -19.8840   55.1260 N.pl3 256  ARG256      0.1354
    147  N         36.0950  -25.0810   49.8630 N.am  257  GLN257     -0.1979
    148  CA        35.0940  -26.0690   49.4170 C.3   257  GLN257      0.1601
    149  C         35.5970  -26.9390   48.2910 C.2   257  GLN257      0.2287
    150  O         34.8660  -27.8030   47.8230 O.2   257  GLN257     -0.2864
    151  CB        33.8090  -25.3890   48.9440 C.3   257  GLN257      0.0394
    152  CG        32.9220  -24.8890   50.0650 C.3   257  GLN257      0.0908
    153  CD        32.1010  -25.9960   50.6790 C.2   257  GLN257      0.2608
    154  OE1       32.6400  -27.0240   51.0730 O.2   257  GLN257     -0.2717
    155  NE2       30.7820  -25.7940   50.7600 N.am  257  GLN257     -0.0878
@<TRIPOS>BOND
     1   150   149    2
     2   149   148    1
     3   151   148    1
     4   151   152    1
     5   148   147    1
     6   119   120    1
     7   130   131    2
     8   130   129    1
     9   147   138   am
    10   152   153    1
    11   136   137    1
    12    13    14    1
    13   120   121    1
    14   120   123    1
    15   121   122    2
    16   121   128   am
    17   153   155   am
    18   153   154    2
    19   115   116    2
    20   115   114    1
    21   138   137    1
    22   138   139    2
    23   128   129    1
    24   129   132    1
    25   118   117    1
    26   134   132    1
    27   137   140    1
    28   132   133    1
    29    14    15    1
    30    14    17    1
    31    18    17    1
    32   114   117    1
    33   114   113    1
    34     1     2    1
    35    26    27    1
    36   123   124    1
    37    15    16    2
    38    15    19   am
    39   111   110    2
    40    21    22    2
    41    21    20    1
    42    19    20    1
    43   140   141    1
    44   133   135    1
    45     3     2    1
    46     3     4    2
    47   113   110   am
    48   141   142    1
    49   124   125    1
    50   110   109    1
    51    27    28    1
    52    27    30    1
    53     2     5    1
    54    28    29    2
    55    20    23    1
    56    99    98    1
    57    99   100    1
    58    23    24    1
    59    23    25    1
    60     7     9   ar
    61     7     6   ar
    62    98    97    1
    63   109   112    1
    64   109   108    1
    65     5     6    1
    66     9    11   ar
    67   125   126   ar
    68   125   127   ar
    69    30    31    1
    70   142   143    1
    71    33    31    1
    72     6     8   ar
    73   145   144    1
    74   143   144    2
    75    82    80   ar
    76    82    81   ar
    77   144   146    1
    78    31    32    1
    79    80    78   ar
    80    11    12    1
    81    11    10   ar
    82   108   103   am
    83    97    96    1
    84   104   103    2
    85     8    10   ar
    86    81    79   ar
    87    96    93    1
    88   103   102    1
    89    78    79   ar
    90    78    77    1
    91    43    41   ar
    92    43    44   ar
    93    93    94    1
    94    93    92    1
    95    94   101   am
    96    94    95    2
    97    41    39   ar
    98   101   102    1
    99   102   105    1
   100    76    75    2
   101    45    44    1
   102    77    74    1
   103    71    72   ar
   104    71    69   ar
   105    44    42   ar
   106    74    75    1
   107    74    73    1
   108    72    70   ar
   109    69    67   ar
   110   106   105    1
   111   105   107    1
   112    39    38    1
   113    39    40   ar
   114    34    35    1
   115    38    35    1
   116    73    64   am
   117    65    64    2
   118    42    40   ar
   119    37    36    2
   120    64    63    1
   121    70    68   ar
   122    35    36    1
   123    67    68   ar
   124    67    66    1
   125    36    46   am
   126    66    63    1
   127    63    62    1
   128    46    47    1
   129    47    50    1
   130    47    48    1
   131    50    51    1
   132    90    89    2
   133    52    51   ar
   134    52    54   ar
   135    61    60    2
   136    86    85    2
   137    48    58   am
   138    48    49    2
   139    58    59    1
   140    85    84    1
   141    51    53   ar
   142    87    84    1
   143    87    88    1
   144    54    56   ar
   145    89    88    1
   146    89    91   am
   147    60    59    1
   148    84    83    1
   149    53    55   ar
   150    56    55   ar
   151    56    57    1
