@<TRIPOS>MOLECULE
tmp/4b4lA00.pdb
 127 117 0 0 0
SMALL
GASTEIGER

@<TRIPOS>ATOM
      1  N         27.2100  -29.9790   19.3100 N.3    15  LEU15      -0.1231
      2  CA        26.5510  -28.6690   19.4220 C.3    15  LEU15       0.1693
      3  C         25.2770  -28.7290   20.2770 C.2    15  LEU15       0.2593
      4  O         24.8550  -27.7280   20.8600 O.2    15  LEU15      -0.2718
      5  CB        26.2130  -28.1130   18.0330 C.3    15  LEU15       0.0284
      6  CG        27.3600  -27.6800   17.1370 C.3    15  LEU15       0.0019
      7  CD1       26.8320  -27.2550   15.7700 C.3    15  LEU15       0.0001
      8  CD2       28.1720  -26.5530   17.7700 C.3    15  LEU15       0.0001
      9  N         24.6660  -29.9030   20.3430 N.am   16  GLY16      -0.1942
     10  CA        23.4550  -30.0880   21.1310 C.3    16  GLY16       0.2014
     11  C         22.8920  -31.4750   20.9070 C.2    16  GLY16       0.2640
     12  O         23.3480  -32.2140   20.0400 O.2    16  GLY16      -0.2714
     13  N         21.8800  -31.8140   21.6890 N.am   17  SER17      -0.1935
     14  CA        21.4220  -33.1800   21.7970 C.3    17  SER17       0.2055
     15  C         19.9600  -33.1160   22.1900 C.2    17  SER17       0.2643
     16  O         19.6090  -32.4190   23.1390 O.2    17  SER17      -0.2714
     17  CB        22.2040  -33.8750   22.9080 C.3    17  SER17       0.2130
     18  OG        22.4450  -35.2320   22.5920 O.3    17  SER17      -0.2179
     19  N         19.1090  -33.8190   21.4470 N.am   18  GLY18      -0.1954
     20  CA        17.6880  -33.8480   21.7400 C.3    18  GLY18       0.1869
     21  C         17.1810  -35.2640   21.8770 C.2    18  GLY18       0.2309
     22  O         17.9540  -36.1930   22.1580 O.2    18  GLY18      -0.2863
     23  N         23.5730  -33.2560   17.3590 N.3    23  VAL23      -0.1245
     24  CA        24.0920  -32.3590   16.3350 C.3    23  VAL23       0.1561
     25  C         25.5660  -32.0690   16.6180 C.2    23  VAL23       0.2260
     26  O         25.9260  -31.6990   17.7370 O.2    23  VAL23      -0.2867
     27  CB        23.2850  -31.0210   16.2840 C.3    23  VAL23       0.0252
     28  CG1       23.8610  -30.0640   15.2530 C.3    23  VAL23       0.0019
     29  CG2       21.8120  -31.2950   16.0120 C.3    23  VAL23       0.0019
     30  N         26.6180  -28.2740   10.0600 N.3    36  ALA36      -0.1245
     31  CA        26.1690  -28.9790   11.2520 C.3    36  ALA36       0.1562
     32  C         25.5440  -30.3150   10.8130 C.2    36  ALA36       0.2260
     33  O         24.6450  -30.3330    9.9630 O.2    36  ALA36      -0.2867
     34  CB        25.1720  -28.1320   12.0590 C.3    36  ALA36       0.0290
     35  N         23.2400  -33.4290   11.7500 N.3    38  LYS38      -0.1245
     36  CA        22.1630  -33.8060   12.6780 C.3    38  LYS38       0.1561
     37  C         21.9370  -35.2960   12.4760 C.2    38  LYS38       0.2260
     38  O         21.4900  -35.7170   11.4010 O.2    38  LYS38      -0.2867
     39  CB        20.8810  -33.0080   12.3810 C.3    38  LYS38       0.0271
     40  CG        19.7510  -33.2200   13.3980 C.3    38  LYS38       0.0035
     41  CD        18.4840  -32.4670   12.9780 C.3    38  LYS38       0.0206
     42  CE        17.3290  -32.7350   13.9390 C.3    38  LYS38       0.1093
     43  NZ        16.0960  -31.9020   13.6660 N.3    38  LYS38      -0.1314
     44  N         10.3880  -34.4010    7.5210 N.3    60  GLU60      -0.1245
     45  CA        11.3680  -33.3520    7.8280 C.3    60  GLU60       0.1567
     46  C         12.2960  -33.1020    6.6240 C.2    60  GLU60       0.2260
     47  O         12.5180  -31.9460    6.2400 O.2    60  GLU60      -0.2867
     48  CB        12.1910  -33.6850    9.0870 C.3    60  GLU60       0.0388
     49  CG        13.1270  -32.5550    9.5410 C.3    60  GLU60       0.1160
     50  CD        13.9330  -32.8620   10.8170 C.2    60  GLU60       0.3649
     51  OE1       13.6570  -33.8670   11.4930 O.co2  60  GLU60      -0.2457
     52  OE2       14.8570  -32.0960   11.1510 O.co2  60  GLU60      -0.2457
     53  N         12.6500  -29.6480    4.4440 N.3    64  LEU64      -0.1245
     54  CA        13.9700  -29.0110    4.3460 C.3    64  LEU64       0.1561
     55  C         14.4590  -28.8490    2.9080 C.2    64  LEU64       0.2260
     56  O         15.0260  -27.8110    2.5810 O.2    64  LEU64      -0.2867
     57  CB        15.0320  -29.7260    5.1890 C.3    64  LEU64       0.0270
     58  CG        14.8910  -29.6200    6.7200 C.3    64  LEU64       0.0019
     59  CD1       15.7090  -30.7000    7.4310 C.3    64  LEU64       0.0001
     60  CD2       15.2650  -28.2340    7.2690 C.3    64  LEU64       0.0001
     61  N         17.0050  -22.1210    8.2440 N.3    73  ILE73      -0.1245
     62  CA        18.1010  -23.0750    8.0440 C.3    73  ILE73       0.1561
     63  C         17.9650  -23.8270    6.7090 C.2    73  ILE73       0.2260
     64  O         16.8490  -24.1500    6.3000 O.2    73  ILE73      -0.2867
     65  CB        18.2510  -24.0760    9.2090 C.3    73  ILE73       0.0252
     66  CG1       19.6180  -24.7410    9.1110 C.3    73  ILE73       0.0019
     67  CG2       17.1170  -25.1090    9.2540 C.3    73  ILE73       0.0019
     68  CD1       20.1670  -25.1270   10.4570 C.3    73  ILE73       0.0001
     69  N         23.3630  -29.8490    7.5300 N.3    89  LEU89      -0.1231
     70  CA        22.6230  -28.5910    7.5600 C.3    89  LEU89       0.1693
     71  C         23.5530  -27.4070    7.6120 C.2    89  LEU89       0.2591
     72  O         24.6900  -27.5160    8.0910 O.2    89  LEU89      -0.2718
     73  CB        21.7450  -28.5670    8.8080 C.3    89  LEU89       0.0284
     74  CG        20.6520  -29.6520    8.8780 C.3    89  LEU89       0.0019
     75  CD1       20.2580  -29.8930   10.3240 C.3    89  LEU89       0.0001
     76  CD2       19.4630  -29.1820    8.0780 C.3    89  LEU89       0.0001
     77  N         23.0600  -26.2630    7.1440 N.am   90  GLU90      -0.1979
     78  CA        23.7570  -24.9980    7.3490 C.3    90  GLU90       0.1602
     79  C         24.2170  -24.8560    8.8130 C.2    90  GLU90       0.2287
     80  O         23.4450  -25.1390    9.7360 O.2    90  GLU90      -0.2864
     81  CB        22.8020  -23.8590    6.9630 C.3    90  GLU90       0.0415
     82  CG        23.3860  -22.4520    7.1230 C.3    90  GLU90       0.1163
     83  CD        22.3990  -21.3890    6.6480 C.2    90  GLU90       0.3649
     84  OE1       21.2240  -21.7260    6.4610 O.co2  90  GLU90      -0.2457
     85  OE2       22.8100  -20.2290    6.4220 O.co2  90  GLU90      -0.2457
     86  N         24.7520  -22.8830   12.0170 N.3    92  VAL92      -0.1245
     87  CA        24.2580  -21.6570   12.6230 C.3    92  VAL92       0.1561
     88  C         25.0760  -21.4880   13.8940 C.2    92  VAL92       0.2260
     89  O         24.8040  -22.1270   14.9040 O.2    92  VAL92      -0.2867
     90  CB        22.7270  -21.7200   12.8560 C.3    92  VAL92       0.0252
     91  CG1       22.2090  -20.3920   13.3340 C.3    92  VAL92       0.0019
     92  CG2       22.0070  -22.0810   11.5530 C.3    92  VAL92       0.0019
     93  N         17.7990  -18.7600   16.1560 N.3   142  MET142     -0.1245
     94  CA        19.2540  -18.7020   16.2600 C.3   142  MET142      0.1570
     95  C         19.8390  -17.5840   15.4090 C.2   142  MET142      0.2261
     96  O         19.1350  -16.9640   14.6170 O.2   142  MET142     -0.2867
     97  CB        19.8570  -20.0330   15.8220 C.3   142  MET142      0.0387
     98  CG        19.2900  -21.2420   16.5430 C.3   142  MET142      0.0595
     99  SD        20.0720  -21.4260   18.1460 S.3   142  MET142     -0.1393
    100  CE        21.6960  -22.0070   17.6640 C.3   142  MET142      0.0692
    101  N         15.3960  -22.6140   13.0360 N.3   156  ILE156     -0.1231
    102  CA        15.8730  -23.9940   12.9830 C.3   156  ILE156      0.1692
    103  C         14.8160  -24.9910   13.4680 C.2   156  ILE156      0.2592
    104  O         13.7230  -24.6150   13.9400 O.2   156  ILE156     -0.2718
    105  CB        17.1920  -24.2100   13.7980 C.3   156  ILE156      0.0266
    106  CG1       16.9680  -24.0610   15.3090 C.3   156  ILE156      0.0019
    107  CG2       18.2910  -23.2490   13.3280 C.3   156  ILE156      0.0020
    108  CD1       17.9790  -24.8190   16.1610 C.3   156  ILE156      0.0001
    109  N         15.1710  -26.2640   13.3170 N.am  157  ASP157     -0.1960
    110  CA        14.4290  -27.4190   13.8660 C.3   157  ASP157      0.1840
    111  C         13.0640  -27.6180   13.2410 C.2   157  ASP157      0.2622
    112  O         12.0360  -27.1640   13.7620 O.2   157  ASP157     -0.2715
    113  CB        14.2770  -27.3770   15.3910 C.3   157  ASP157      0.1450
    114  CG        13.8630  -28.7210   15.9490 C.2   157  ASP157      0.3671
    115  OD1       13.5220  -29.6350   15.1670 O.co2 157  ASP157     -0.2456
    116  OD2       13.9250  -28.8900   17.1700 O.co2 157  ASP157     -0.2456
    117  N         13.0700  -28.3160   12.1190 N.am  158  PHE158     -0.1974
    118  CA        11.8340  -28.6400   11.4160 C.3   158  PHE158      0.1639
    119  C         11.2850  -30.0240   11.7440 C.2   158  PHE158      0.2290
    120  O         10.5080  -30.5750   10.9740 O.2   158  PHE158     -0.2864
    121  CB        12.0400  -28.4100    9.9080 C.3   158  PHE158      0.0560
    122  CG        12.0310  -26.9460    9.5460 C.ar  158  PHE158     -0.0200
    123  CD1       13.1240  -26.1250    9.8590 C.ar  158  PHE158     -0.0042
    124  CD2       10.8980  -26.3560    8.9690 C.ar  158  PHE158     -0.0042
    125  CE1       13.0880  -24.7510    9.5770 C.ar  158  PHE158     -0.0003
    126  CE2       10.8590  -24.9950    8.6900 C.ar  158  PHE158     -0.0003
    127  CZ        11.9520  -24.1850    8.9900 C.ar  158  PHE158     -0.0000
@<TRIPOS>BOND
     1    56    55    2
     2    55    54    1
     3    54    53    1
     4    54    57    1
     5    57    58    1
     6    47    46    2
     7    64    63    2
     8    85    83   ar
     9    84    83   ar
    10    46    45    1
    11    83    82    1
    12    63    62    1
    13    58    60    1
    14    58    59    1
    15    81    82    1
    16    81    78    1
    17    77    78    1
    18    77    71   am
    19    78    79    1
    20    44    45    1
    21    69    70    1
    22    70    71    1
    23    70    73    1
    24    71    72    2
    25    45    48    1
    26    62    61    1
    27    62    65    1
    28    76    74    1
    29   126   124   ar
    30   126   127   ar
    31    73    74    1
    32    79    80    2
    33    74    75    1
    34   124   122   ar
    35   127   125   ar
    36    48    49    1
    37    66    65    1
    38    66    68    1
    39    65    67    1
    40    49    50    1
    41   122   123   ar
    42   122   121    1
    43   125   123   ar
    44   121   118    1
    45    33    32    2
    46    30    31    1
    47    32    31    1
    48    50    52   ar
    49    50    51   ar
    50   120   119    2
    51    31    34    1
    52    38    37    2
    53   118   119    1
    54   118   117    1
    55    92    90    1
    56    35    36    1
    57    86    87    1
    58   117   111   am
    59    39    36    1
    60    39    40    1
    61    37    36    1
    62    87    90    1
    63    87    88    1
    64    90    91    1
    65    41    40    1
    66    41    42    1
    67   102   101    1
    68   102   103    1
    69   102   105    1
    70   111   112    2
    71   111   110    1
    72   109   103   am
    73   109   110    1
    74   107   105    1
    75   103   104    2
    76    43    42    1
    77   105   106    1
    78   110   113    1
    79    88    89    2
    80    96    95    2
    81   115   114   ar
    82    28    27    1
    83   106   108    1
    84   113   114    1
    85    95    94    1
    86     7     6    1
    87    97    94    1
    88    97    98    1
    89   114   116   ar
    90    29    27    1
    91    93    94    1
    92    27    24    1
    93    24    25    1
    94    24    23    1
    95    98    99    1
    96    25    26    2
    97     6     8    1
    98     6     5    1
    99   100    99    1
   100     5     2    1
   101     1     2    1
   102     2     3    1
   103    12    11    2
   104     3     9   am
   105     3     4    2
   106     9    10    1
   107    11    10    1
   108    11    13   am
   109    19    20    1
   110    19    15   am
   111    13    14    1
   112    20    21    1
   113    14    15    1
   114    14    17    1
   115    21    22    2
   116    15    16    2
   117    18    17    1
