@<TRIPOS>MOLECULE
tmp/4b4mD00.pdb
 155 151 0 0 0
SMALL
GASTEIGER

@<TRIPOS>ATOM
      1  N         26.1670   14.9660   51.7200 N.3    38  TYR38      -0.1241
      2  CA        26.8970   15.7510   52.7210 C.3    38  TYR38       0.1605
      3  C         27.6820   16.9160   52.0990 C.2    38  TYR38       0.2264
      4  O         27.4500   18.0710   52.4580 O.2    38  TYR38      -0.2867
      5  CB        27.7430   14.8400   53.6390 C.3    38  TYR38       0.0534
      6  CG        26.8710   13.8770   54.4230 C.ar   38  TYR38      -0.0201
      7  CD1       26.4560   12.6740   53.8660 C.ar   38  TYR38      -0.0009
      8  CD2       26.4290   14.1850   55.7110 C.ar   38  TYR38      -0.0009
      9  CE1       25.6230   11.8060   54.5590 C.ar   38  TYR38       0.0417
     10  CE2       25.5920   13.3190   56.4190 C.ar   38  TYR38       0.0417
     11  CZ        25.1960   12.1310   55.8370 C.ar   38  TYR38       0.1957
     12  OH        24.3750   11.2510   56.5230 O.3    38  TYR38      -0.2866
     13  N         25.1370   19.2540   50.5690 N.3    41  SER41      -0.1202
     14  CA        24.5520   20.0330   51.6560 C.3    41  SER41       0.2020
     15  C         25.4890   21.0930   52.1750 C.2    41  SER41       0.2619
     16  O         25.0520   22.1800   52.5470 O.2    41  SER41      -0.2717
     17  CB        24.1190   19.1190   52.7970 C.3    41  SER41       0.2103
     18  OG        22.9000   18.4510   52.4830 O.3    41  SER41      -0.2182
     19  N         26.7840   20.7950   52.1840 N.am   42  THR42      -0.1952
     20  CA        27.7720   21.7640   52.6450 C.3    42  THR42       0.1897
     21  C         27.7930   22.9840   51.7280 C.2    42  THR42       0.2313
     22  O         27.8100   24.1120   52.1980 O.2    42  THR42      -0.2863
     23  CB        29.1520   21.1100   52.7630 C.3    42  THR42       0.1794
     24  OG1       29.1000   20.1300   53.8060 O.3    42  THR42      -0.2208
     25  CG2       30.2450   22.1400   53.0900 C.3    42  THR42       0.0378
     26  N         24.7440   25.0150   52.1030 N.3    45  LEU45      -0.1245
     27  CA        24.8360   25.8130   53.3290 C.3    45  LEU45       0.1561
     28  C         25.6850   27.0700   53.1530 C.2    45  LEU45       0.2260
     29  O         25.4530   28.0570   53.8490 O.2    45  LEU45      -0.2867
     30  CB        25.3320   24.9830   54.5210 C.3    45  LEU45       0.0270
     31  CG        24.8140   25.4950   55.8780 C.3    45  LEU45       0.0019
     32  CD1       23.4020   25.0060   56.1700 C.3    45  LEU45       0.0001
     33  CD2       25.7560   25.1290   57.0070 C.3    45  LEU45       0.0001
     34  N         30.9360   17.3730   57.5410 N.3   113  TYR113     -0.1227
     35  CA        31.0620   18.4660   58.4960 C.3   113  TYR113      0.1736
     36  C         29.8320   18.5570   59.3960 C.2   113  TYR113      0.2595
     37  O         28.7020   18.3260   58.9540 O.2   113  TYR113     -0.2718
     38  CB        31.2650   19.8070   57.7760 C.3   113  TYR113      0.0548
     39  CG        32.5390   19.8870   56.9680 C.ar  113  TYR113     -0.0200
     40  CD1       33.7590   20.2300   57.5750 C.ar  113  TYR113     -0.0009
     41  CD2       32.5280   19.5970   55.6020 C.ar  113  TYR113     -0.0009
     42  CE1       34.9290   20.2940   56.8330 C.ar  113  TYR113      0.0417
     43  CE2       33.6870   19.6360   54.8500 C.ar  113  TYR113      0.0417
     44  CZ        34.8840   19.9870   55.4620 C.ar  113  TYR113      0.1957
     45  OH        36.0180   20.0330   54.6870 O.3   113  TYR113     -0.2866
     46  N         30.0660   18.8900   60.6600 N.am  114  TYR114     -0.1962
     47  CA        28.9880   19.1470   61.5850 C.3   114  TYR114      0.1774
     48  C         29.3950   20.1730   62.6210 C.2   114  TYR114      0.2659
     49  O         30.4990   20.1030   63.1780 O.2   114  TYR114     -0.2711
     50  CB        28.5820   17.8440   62.2760 C.3   114  TYR114      0.0574
     51  CG        27.6890   18.0250   63.4820 C.ar  114  TYR114     -0.0198
     52  CD1       26.3410   18.3020   63.3310 C.ar  114  TYR114     -0.0009
     53  CD2       28.1970   17.9150   64.7680 C.ar  114  TYR114     -0.0009
     54  CE1       25.5160   18.4580   64.4220 C.ar  114  TYR114      0.0417
     55  CE2       27.3800   18.0780   65.8740 C.ar  114  TYR114      0.0417
     56  CZ        26.0370   18.3450   65.6900 C.ar  114  TYR114      0.1957
     57  OH        25.2070   18.5080   66.7700 O.3   114  TYR114     -0.2866
     58  N         28.4930   21.1070   62.9180 N.am  115  GLY115     -0.1730
     59  CA        28.6780   21.9490   64.0940 C.2   115  GLY115      0.1340
     60  C         27.8310   23.1970   64.1780 C.2   115  GLY115      0.2521
     61  O         27.1320   23.5520   63.2250 O.2   115  GLY115     -0.2816
     62  N         27.7530   26.6230   61.5690 N.3   118  PHE118     -0.1227
     63  CA        28.6040   26.1950   60.4570 C.3   118  PHE118      0.1736
     64  C         28.2830   27.1130   59.2870 C.2   118  PHE118      0.2595
     65  O         29.1780   27.5180   58.5420 O.2   118  PHE118     -0.2718
     66  CB        28.3690   24.7060   60.1480 C.3   118  PHE118      0.0547
     67  CG        29.2450   24.1420   59.0590 C.ar  118  PHE118     -0.0202
     68  CD1       30.6180   24.3960   59.0270 C.ar  118  PHE118     -0.0042
     69  CD2       28.6980   23.3020   58.0850 C.ar  118  PHE118     -0.0042
     70  CE1       31.4140   23.8530   58.0230 C.ar  118  PHE118     -0.0003
     71  CE2       29.4930   22.7510   57.0880 C.ar  118  PHE118     -0.0003
     72  CZ        30.8510   23.0330   57.0570 C.ar  118  PHE118     -0.0000
     73  N         27.0020   27.4730   59.1910 N.am  119  HIS119     -0.1975
     74  CA        26.4840   28.4650   58.2530 C.3   119  HIS119      0.1656
     75  C         27.2890   29.7380   58.2900 C.2   119  HIS119      0.2291
     76  O         27.7760   30.1870   57.2600 O.2   119  HIS119     -0.2864
     77  CB        25.0030   28.7360   58.5510 C.3   119  HIS119      0.0771
     78  CG        24.3510   29.7240   57.6020 C.ar  119  HIS119      0.0820
     79  ND1       24.1640   31.0200   57.9200 N.ar  119  HIS119     -0.2267
     80  CD2       23.8370   29.5600   56.3070 C.ar  119  HIS119      0.1154
     81  CE1       23.5640   31.6590   56.8840 C.ar  119  HIS119      0.1986
     82  NE2       23.3650   30.7640   55.9010 N.ar  119  HIS119     -0.2212
     83  N         18.0090   14.0190   68.2420 N.3   246  GLN246     -0.1245
     84  CA        17.3510   15.2980   68.0030 C.3   246  GLN246      0.1566
     85  C         16.0010   15.1620   67.2920 C.2   246  GLN246      0.2260
     86  O         15.1750   16.0680   67.3480 O.2   246  GLN246     -0.2867
     87  CB        18.2520   16.1930   67.1450 C.3   246  GLN246      0.0367
     88  CG        19.5680   16.6050   67.7780 C.3   246  GLN246      0.0905
     89  CD        20.4400   17.3860   66.8070 C.2   246  GLN246      0.2608
     90  OE1       20.0510   17.6450   65.6590 O.2   246  GLN246     -0.2717
     91  NE2       21.6250   17.7650   67.2620 N.am  246  GLN246     -0.0878
     92  N         17.5670   15.9430   60.9900 N.3   249  LYS249     -0.1231
     93  CA        18.5440   15.3290   60.1290 C.3   249  LYS249      0.1693
     94  C         19.7390   16.2500   59.9080 C.2   249  LYS249      0.2592
     95  O         19.6100   17.4740   60.0030 O.2   249  LYS249     -0.2718
     96  CB        17.8880   14.9160   58.8210 C.3   249  LYS249      0.0285
     97  CG        16.9580   13.7360   59.0330 C.3   249  LYS249      0.0035
     98  CD        16.1870   13.3940   57.7750 C.3   249  LYS249      0.0206
     99  CE        15.3320   12.1540   57.9860 C.3   249  LYS249      0.1093
    100  NZ        16.1450   10.9360   58.2310 N.3   249  LYS249     -0.1314
    101  N         20.8990   15.6390   59.6650 N.am  250  VAL250     -0.1966
    102  CA        22.1010   16.3540   59.2600 C.3   250  VAL250      0.1727
    103  C         22.2360   16.1990   57.7480 C.2   250  VAL250      0.2616
    104  O         22.1460   15.0930   57.2130 O.2   250  VAL250     -0.2715
    105  CB        23.3660   15.7950   59.9650 C.3   250  VAL250      0.0290
    106  CG1       24.6260   16.5080   59.4890 C.3   250  VAL250      0.0023
    107  CG2       23.2400   15.9090   61.4730 C.3   250  VAL250      0.0023
    108  N         22.4260   17.3110   57.0570 N.am  251  ALA251     -0.1963
    109  CA        22.6320   17.3030   55.5990 C.3   251  ALA251      0.1728
    110  C         21.4560   16.6870   54.8310 C.2   251  ALA251      0.2616
    111  O         21.6350   15.7630   54.0530 O.2   251  ALA251     -0.2715
    112  CB        23.9480   16.6040   55.2350 C.3   251  ALA251      0.0334
    113  N         20.2510   17.1820   55.0860 N.am  252  CYS252     -0.1968
    114  CA        19.0950   16.8470   54.2750 C.3   252  CYS252      0.1712
    115  C         18.9630   17.9770   53.2600 C.2   252  CYS252      0.2296
    116  O         18.6140   19.0950   53.6300 O.2   252  CYS252     -0.2864
    117  CB        17.8530   16.7760   55.1490 C.3   252  CYS252      0.0983
    118  SG        16.3070   16.5410   54.2490 S.3   252  CYS252     -0.0798
    119  N         15.5160   19.8960   53.0510 N.3   255  GLU255     -0.1231
    120  CA        15.4370   20.8210   54.1780 C.3   255  GLU255      0.1699
    121  C         16.2920   22.0590   53.9130 C.2   255  GLU255      0.2592
    122  O         15.8080   23.1800   54.0410 O.2   255  GLU255     -0.2718
    123  CB        15.8620   20.1400   55.4870 C.3   255  GLU255      0.0402
    124  CG        15.8930   21.0620   56.6880 C.3   255  GLU255      0.1161
    125  CD        16.1140   20.3250   57.9990 C.2   255  GLU255      0.3649
    126  OE1       16.3940   19.1070   57.9770 O.co2 255  GLU255     -0.2457
    127  OE2       15.9960   20.9710   59.0600 O.co2 255  GLU255     -0.2457
    128  N         17.5530   21.8680   53.5150 N.am  256  ILE256     -0.1980
    129  CA        18.4440   23.0090   53.4010 C.3   256  ILE256      0.1595
    130  C         17.9490   23.9890   52.3330 C.2   256  ILE256      0.2287
    131  O         17.9370   25.2100   52.5560 O.2   256  ILE256     -0.2864
    132  CB        19.9020   22.5770   53.2050 C.3   256  ILE256      0.0276
    133  CG1       20.3840   21.8750   54.4890 C.3   256  ILE256      0.0022
    134  CG2       20.7750   23.7700   52.8500 C.3   256  ILE256      0.0022
    135  CD1       21.7820   21.3100   54.4120 C.3   256  ILE256      0.0001
    136  N         14.9280   25.8860   53.6890 N.3   259  ARG259     -0.1231
    137  CA        15.3250   26.8940   54.6650 C.3   259  ARG259      0.1694
    138  C         16.0760   28.0260   54.0030 C.2   259  ARG259      0.2591
    139  O         16.0140   29.1520   54.4780 O.2   259  ARG259     -0.2718
    140  CB        16.1390   26.2930   55.8140 C.3   259  ARG259      0.0321
    141  CG        15.3090   25.4000   56.6980 C.3   259  ARG259      0.0489
    142  CD        16.0060   25.0920   58.0150 C.3   259  ARG259      0.2205
    143  NE        15.3120   23.9930   58.6920 N.pl3 259  ARG259     -0.0865
    144  CZ        14.1030   24.0940   59.2370 C.cat 259  ARG259      0.5346
    145  NH1       13.4630   25.2430   59.2040 N.pl3 259  ARG259      0.1354
    146  NH2       13.5390   23.0480   59.8290 N.pl3 259  ARG259      0.1354
    147  N         16.7740   27.7360   52.9090 N.am  260  GLN260     -0.1979
    148  CA        17.4310   28.7870   52.1280 C.3   260  GLN260      0.1601
    149  C         16.4470   29.5620   51.2030 C.2   260  GLN260      0.2287
    150  O         16.8450   30.5120   50.5220 O.2   260  GLN260     -0.2864
    151  CB        18.6040   28.2010   51.3200 C.3   260  GLN260      0.0394
    152  CG        19.7830   27.6800   52.1390 C.3   260  GLN260      0.0908
    153  CD        20.7390   28.7720   52.5720 C.2   260  GLN260      0.2608
    154  OE1       20.3270   29.8290   53.0240 O.2   260  GLN260     -0.2717
    155  NE2       22.0250   28.5100   52.4450 N.am  260  GLN260     -0.0878
@<TRIPOS>BOND
     1   150   149    2
     2    13    14    1
     3   149   148    1
     4   151   148    1
     5   151   152    1
     6    14    15    1
     7    14    17    1
     8     1     2    1
     9    21    22    2
    10    21    20    1
    11     3     4    2
    12     3     2    1
    13    26    27    1
    14   148   147    1
    15   152   153    1
    16    15    19   am
    17    15    16    2
    18    19    20    1
    19   130   131    2
    20   130   129    1
    21   155   153   am
    22    18    17    1
    23   153   154    2
    24    20    23    1
    25     2     5    1
    26    23    25    1
    27    23    24    1
    28   134   132    1
    29   147   138   am
    30   119   120    1
    31    28    27    1
    32    28    29    2
    33   132   129    1
    34   132   133    1
    35   115   116    2
    36   115   114    1
    37    27    30    1
    38   129   128    1
    39   128   121   am
    40     5     6    1
    41   136   137    1
    42     7     6   ar
    43     7     9   ar
    44   121   122    2
    45   121   120    1
    46   138   139    2
    47   138   137    1
    48   111   110    2
    49   120   123    1
    50   118   117    1
    51   114   113    1
    52   114   117    1
    53   135   133    1
    54     6     8   ar
    55    30    31    1
    56     9    11   ar
    57   137   140    1
    58    45    44    1
    59   110   113   am
    60   110   109    1
    61    43    44   ar
    62    43    41   ar
    63   112   109    1
    64    44    42   ar
    65   123   124    1
    66   109   108    1
    67    41    39   ar
    68     8    10   ar
    69   140   141    1
    70    11    10   ar
    71    11    12    1
    72    31    32    1
    73    31    33    1
    74    82    80   ar
    75    82    81   ar
    76    80    78   ar
    77   124   125    1
    78   141   142    1
    79    42    40   ar
    80    81    79   ar
    81    39    40   ar
    82    39    38    1
    83   108   103   am
    84    72    71   ar
    85    72    70   ar
    86    71    69   ar
    87   104   103    2
    88    76    75    2
    89    34    35    1
    90    78    79   ar
    91    78    77    1
    92   103   102    1
    93    98    99    1
    94    98    97    1
    95    38    35    1
    96   126   125   ar
    97    99   100    1
    98   125   127   ar
    99   142   143    1
   100    70    68   ar
   101    69    67   ar
   102    74    75    1
   103    74    77    1
   104    74    73    1
   105    35    36    1
   106    65    64    2
   107   143   144    2
   108    96    97    1
   109    96    93    1
   110    37    36    2
   111    68    67   ar
   112    67    66    1
   113    73    64   am
   114   145   144    1
   115   144   146    1
   116   102   101    1
   117   102   105    1
   118    64    63    1
   119    36    46   am
   120   106   105    1
   121   101    94   am
   122    94    95    2
   123    94    93    1
   124   105   107    1
   125    93    92    1
   126    66    63    1
   127    63    62    1
   128    46    47    1
   129    47    50    1
   130    47    48    1
   131    50    51    1
   132    48    58    1
   133    48    49    2
   134    58    59    2
   135    61    60    2
   136    52    51   ar
   137    52    54   ar
   138    51    53   ar
   139    59    60    1
   140    54    56   ar
   141    53    55   ar
   142    90    89    2
   143    56    55   ar
   144    56    57    1
   145    89    91   am
   146    89    88    1
   147    87    88    1
   148    87    84    1
   149    85    86    2
   150    85    84    1
   151    84    83    1
