@<TRIPOS>MOLECULE
tmp/4b4oE01.pdb
 172 164 0 0 0
SMALL
GASTEIGER

@<TRIPOS>ATOM
      1  N         86.5170  -37.8670  -79.7940 N.3    62  ILE62      -0.1231
      2  CA        86.5300  -37.3580  -78.4400 C.3    62  ILE62       0.1692
      3  C         87.5430  -38.0780  -77.5550 C.2    62  ILE62       0.2591
      4  O         88.3090  -37.4490  -76.8160 O.2    62  ILE62      -0.2718
      5  CB        85.1310  -37.4900  -77.8110 C.3    62  ILE62       0.0266
      6  CG1       84.1510  -36.5660  -78.5300 C.3    62  ILE62       0.0019
      7  CG2       85.1670  -37.1820  -76.3280 C.3    62  ILE62       0.0020
      8  CD1       82.7190  -36.7650  -78.0900 C.3    62  ILE62       0.0001
      9  N         87.5200  -39.4000  -77.5890 N.am   63  LEU63      -0.1980
     10  CA        88.3400  -40.1800  -76.6620 C.3    63  LEU63       0.1596
     11  C         89.8350  -40.0710  -76.9090 C.2    63  LEU63       0.2287
     12  O         90.6160  -40.3180  -76.0060 O.2    63  LEU63      -0.2864
     13  CB        87.9540  -41.6510  -76.7860 C.3    63  LEU63       0.0297
     14  CG        87.5780  -42.2560  -75.4470 C.3    63  LEU63       0.0022
     15  CD1       86.8580  -41.2180  -74.5650 C.3    63  LEU63       0.0001
     16  CD2       86.7370  -43.5080  -75.7920 C.3    63  LEU63       0.0001
     17  N         80.8150  -31.2440  -84.9220 N.3    81  ARG81      -0.1245
     18  CA        79.4930  -31.8830  -84.9220 C.3    81  ARG81       0.1563
     19  C         78.3600  -30.9370  -85.3360 C.2    81  ARG81       0.2260
     20  O         77.5580  -31.2820  -86.1940 O.2    81  ARG81      -0.2867
     21  CB        79.2180  -32.5310  -83.5630 C.3    81  ARG81       0.0307
     22  CG        80.0750  -33.7720  -83.3310 C.3    81  ARG81       0.0489
     23  CD        80.1560  -34.2320  -81.8840 C.3    81  ARG81       0.2205
     24  NE        80.8780  -35.5130  -81.8290 N.pl3  81  ARG81      -0.0865
     25  CZ        82.2050  -35.6560  -81.7610 C.cat  81  ARG81       0.5346
     26  NH1       83.0240  -34.6030  -81.7130 N.pl3  81  ARG81       0.1354
     27  NH2       82.7150  -36.8750  -81.7530 N.pl3  81  ARG81       0.1354
     28  N         73.9980  -39.4880  -82.0270 N.3   106  THR106     -0.1203
     29  CA        74.5710  -38.7510  -80.8930 C.3   106  THR106      0.1994
     30  C         74.8740  -39.7620  -79.7850 C.2   106  THR106      0.2618
     31  O         75.2300  -40.9090  -80.0770 O.2   106  THR106     -0.2717
     32  CB        73.6630  -37.5820  -80.4280 C.3   106  THR106      0.1784
     33  OG1       72.4510  -38.0920  -79.8610 O.3   106  THR106     -0.2211
     34  CG2       73.3240  -36.6230  -81.5900 C.3   106  THR106      0.0376
     35  N         74.7470  -39.3730  -78.5200 N.am  107  GLY107     -0.1956
     36  CA        75.2380  -40.2230  -77.4270 C.3   107  GLY107      0.1869
     37  C         74.3760  -40.3220  -76.1890 C.2   107  GLY107      0.2309
     38  O         73.5620  -39.4510  -75.9050 O.2   107  GLY107     -0.2863
     39  N         75.3740  -39.8200  -73.3760 N.3   109  ALA109     -0.1245
     40  CA        75.7970  -38.7500  -72.4660 C.3   109  ALA109      0.1562
     41  C         74.6660  -37.7890  -72.1320 C.2   109  ALA109      0.2260
     42  O         74.7850  -37.0230  -71.1820 O.2   109  ALA109     -0.2867
     43  CB        76.9560  -37.9670  -73.0720 C.3   109  ALA109      0.0290
     44  N         79.1030  -32.7560  -72.1580 N.3   131  PHE131     -0.1241
     45  CA        78.6650  -33.7380  -73.1530 C.3   131  PHE131      0.1605
     46  C         77.1460  -33.8340  -73.2880 C.2   131  PHE131      0.2264
     47  O         76.6340  -34.0890  -74.3760 O.2   131  PHE131     -0.2867
     48  CB        79.2920  -35.0960  -72.8520 C.3   131  PHE131      0.0534
     49  CG        80.7830  -35.0970  -72.9940 C.ar  131  PHE131     -0.0203
     50  CD1       81.3740  -35.0120  -74.2620 C.ar  131  PHE131     -0.0042
     51  CD2       81.6020  -35.1230  -71.8790 C.ar  131  PHE131     -0.0042
     52  CE1       82.7510  -34.9760  -74.4090 C.ar  131  PHE131     -0.0003
     53  CE2       82.9860  -35.0840  -72.0150 C.ar  131  PHE131     -0.0003
     54  CZ        83.5590  -35.0110  -73.2780 C.ar  131  PHE131     -0.0000
     55  N         76.3380  -30.8730  -75.2250 N.3   134  LEU134     -0.1245
     56  CA        76.7260  -31.1580  -76.5930 C.3   134  LEU134      0.1561
     57  C         75.5640  -31.8530  -77.3160 C.2   134  LEU134      0.2260
     58  O         75.1160  -31.3900  -78.3540 O.2   134  LEU134     -0.2867
     59  CB        77.9970  -32.0120  -76.6490 C.3   134  LEU134      0.0270
     60  CG        78.4450  -32.5360  -78.0250 C.3   134  LEU134      0.0019
     61  CD1       78.9350  -31.4060  -78.9180 C.3   134  LEU134      0.0001
     62  CD2       79.5180  -33.6000  -77.8300 C.3   134  LEU134      0.0001
     63  N         73.6840  -30.4880  -80.5990 N.3   138  TRP138     -0.1241
     64  CA        73.9090  -31.3630  -81.7390 C.3   138  TRP138      0.1605
     65  C         72.6120  -31.7900  -82.3500 C.2   138  TRP138      0.2264
     66  O         72.4310  -31.7040  -83.5580 O.2   138  TRP138     -0.2867
     67  CB        74.6550  -32.5720  -81.2190 C.3   138  TRP138      0.0550
     68  CG        75.3870  -33.4410  -82.1910 C.ar  138  TRP138      0.0003
     69  CD1       75.4260  -33.3740  -83.5760 C.ar  138  TRP138      0.0946
     70  CD2       76.1930  -34.5910  -81.8400 C.ar  138  TRP138      0.0152
     71  NE1       76.2080  -34.3810  -84.0880 N.ar  138  TRP138     -0.2442
     72  CE2       76.6940  -35.1440  -83.0950 C.ar  138  TRP138      0.0810
     73  CE3       76.5480  -35.2050  -80.6360 C.ar  138  TRP138      0.0012
     74  CZ2       77.4970  -36.2500  -83.1250 C.ar  138  TRP138      0.0191
     75  CZ3       77.3680  -36.3150  -80.6840 C.ar  138  TRP138      0.0001
     76  CH2       77.8330  -36.8220  -81.8990 C.ar  138  TRP138      0.0015
     77  N         73.7870  -43.2360  -78.9980 N.3   156  SER156     -0.1202
     78  CA        74.5550  -44.4740  -78.9410 C.3   156  SER156      0.2020
     79  C         75.3190  -44.6350  -77.6480 C.2   156  SER156      0.2619
     80  O         75.8390  -43.6720  -77.0950 O.2   156  SER156     -0.2717
     81  CB        75.5410  -44.5340  -80.1120 C.3   156  SER156      0.2103
     82  OG        76.2650  -45.7600  -80.1090 O.3   156  SER156     -0.2182
     83  N         75.4110  -45.8780  -77.1900 N.am  157  GLY157     -0.1942
     84  CA        76.3520  -46.2360  -76.1330 C.3   157  GLY157      0.2014
     85  C         77.7290  -46.4760  -76.7340 C.2   157  GLY157      0.2638
     86  O         77.9670  -46.1310  -77.8830 O.2   157  GLY157     -0.2714
     87  N         78.6150  -47.1150  -75.9740 N.am  158  VAL158     -0.1977
     88  CA        79.9360  -47.4540  -76.4460 C.3   158  VAL158      0.1596
     89  C         79.7990  -48.5350  -77.5030 C.2   158  VAL158      0.2287
     90  O         79.2160  -49.6000  -77.2550 O.2   158  VAL158     -0.2864
     91  CB        80.8250  -47.9980  -75.3250 C.3   158  VAL158      0.0276
     92  CG1       82.2840  -47.8690  -75.7490 C.3   158  VAL158      0.0022
     93  CG2       80.5620  -47.2340  -74.0440 C.3   158  VAL158      0.0022
     94  N         86.5530  -47.9170  -79.2440 N.3   166  ALA166     -0.1245
     95  CA        87.1150  -48.1940  -77.9330 C.3   166  ALA166      0.1562
     96  C         87.9730  -49.4480  -77.9400 C.2   166  ALA166      0.2260
     97  O         89.0210  -49.4790  -77.3060 O.2   166  ALA166     -0.2867
     98  CB        86.0190  -48.3140  -76.8890 C.3   166  ALA166      0.0290
     99  N         91.7070  -49.2800  -78.5130 N.3   168  HIS168     -0.1241
    100  CA        92.5390  -48.9960  -77.3510 C.3   168  HIS168      0.1621
    101  C         92.6320  -50.1050  -76.3270 C.2   168  HIS168      0.2264
    102  O         93.6380  -50.1810  -75.6100 O.2   168  HIS168     -0.2867
    103  CB        92.0260  -47.7450  -76.6490 C.3   168  HIS168      0.0745
    104  CG        92.1180  -46.5070  -77.4990 C.ar  168  HIS168      0.0817
    105  ND1       93.3120  -46.0270  -77.9800 N.ar  168  HIS168     -0.2268
    106  CD2       91.1200  -45.6580  -77.9780 C.ar  168  HIS168      0.1154
    107  CE1       93.0750  -44.9230  -78.7160 C.ar  168  HIS168      0.1986
    108  NE2       91.7270  -44.7010  -78.7130 N.ar  168  HIS168     -0.2212
    109  N         95.8980  -54.4880  -74.7530 N.3   171  PRO171     -0.2102
    110  CA        96.1690  -54.6440  -73.3260 C.3   171  PRO171      0.1504
    111  C         95.4120  -55.8020  -72.6770 C.2   171  PRO171      0.2575
    112  O         96.0010  -56.5750  -71.9300 O.2   171  PRO171     -0.2718
    113  CB        95.7210  -53.2990  -72.7320 C.3   171  PRO171      0.0282
    114  CG        95.9340  -52.3390  -73.8390 C.3   171  PRO171      0.0208
    115  CD        95.5750  -53.1000  -75.0830 C.3   171  PRO171      0.0893
    116  N         94.1270  -55.9080  -72.9560 N.am  172  PHE172     -0.1977
    117  CA        93.3550  -57.0130  -72.4240 C.3   172  PHE172      0.1639
    118  C         93.9450  -58.3590  -72.8540 C.2   172  PHE172      0.2290
    119  O         94.0910  -59.2580  -72.0320 O.2   172  PHE172     -0.2864
    120  CB        91.8930  -56.9140  -72.8400 C.3   172  PHE172      0.0560
    121  CG        91.0360  -56.1960  -71.8500 C.ar  172  PHE172     -0.0200
    122  CD1       91.0000  -54.8050  -71.8130 C.ar  172  PHE172     -0.0042
    123  CD2       90.2500  -56.9110  -70.9490 C.ar  172  PHE172     -0.0042
    124  CE1       90.1830  -54.1370  -70.9200 C.ar  172  PHE172     -0.0003
    125  CE2       89.4400  -56.2450  -70.0320 C.ar  172  PHE172     -0.0003
    126  CZ        89.4170  -54.8590  -70.0160 C.ar  172  PHE172     -0.0000
    127  N         87.6240  -50.1930  -64.5310 N.3   180  ILE180     -0.1245
    128  CA        87.9510  -48.7710  -64.5110 C.3   180  ILE180      0.1561
    129  C         87.2730  -48.1610  -63.2810 C.2   180  ILE180      0.2260
    130  O         86.0540  -48.1500  -63.1870 O.2   180  ILE180     -0.2867
    131  CB        87.4340  -48.0580  -65.7910 C.3   180  ILE180      0.0252
    132  CG1       87.9380  -48.7660  -67.0490 C.3   180  ILE180      0.0019
    133  CG2       87.8730  -46.6020  -65.8200 C.3   180  ILE180      0.0019
    134  CD1       87.3720  -48.2460  -68.3490 C.3   180  ILE180      0.0001
    135  N         77.6350  -49.6550  -67.8170 N.3   187  PHE187     -0.1241
    136  CA        78.3790  -49.6800  -69.0720 C.3   187  PHE187      0.1605
    137  C         77.4010  -49.8340  -70.2340 C.2   187  PHE187      0.2264
    138  O         77.0970  -50.9590  -70.6410 O.2   187  PHE187     -0.2867
    139  CB        79.3530  -50.8510  -68.9970 C.3   187  PHE187      0.0534
    140  CG        80.3680  -50.8800  -70.0960 C.ar  187  PHE187     -0.0203
    141  CD1       81.4230  -49.9880  -70.1000 C.ar  187  PHE187     -0.0042
    142  CD2       80.2790  -51.8190  -71.1070 C.ar  187  PHE187     -0.0042
    143  CE1       82.3650  -50.0020  -71.1120 C.ar  187  PHE187     -0.0003
    144  CE2       81.2090  -51.8440  -72.1220 C.ar  187  PHE187     -0.0003
    145  CZ        82.2610  -50.9350  -72.1250 C.ar  187  PHE187     -0.0000
    146  N         92.1050  -49.7960  -63.0750 N.3   241  LEU241     -0.1245
    147  CA        92.6200  -48.4600  -63.3970 C.3   241  LEU241      0.1561
    148  C         92.0590  -47.4560  -62.4070 C.2   241  LEU241      0.2260
    149  O         90.8620  -47.1800  -62.4510 O.2   241  LEU241     -0.2867
    150  CB        92.1910  -48.0120  -64.7930 C.3   241  LEU241      0.0270
    151  CG        92.8860  -48.7200  -65.9370 C.3   241  LEU241      0.0019
    152  CD1       92.6660  -47.9740  -67.2510 C.3   241  LEU241      0.0001
    153  CD2       94.3590  -48.7710  -65.5740 C.3   241  LEU241      0.0001
    154  N         93.0250  -38.4530  -69.4130 N.3   250  PHE250     -0.1241
    155  CA        91.9210  -37.9530  -70.2250 C.3   250  PHE250      0.1605
    156  C         91.3500  -36.6120  -69.7860 C.2   250  PHE250      0.2264
    157  O         90.6230  -35.9810  -70.5620 O.2   250  PHE250     -0.2867
    158  CB        90.7820  -38.9610  -70.2120 C.3   250  PHE250      0.0534
    159  CG        91.0960  -40.2180  -70.9440 C.ar  250  PHE250     -0.0203
    160  CD1       91.0920  -40.2400  -72.3320 C.ar  250  PHE250     -0.0042
    161  CD2       91.4110  -41.3830  -70.2570 C.ar  250  PHE250     -0.0042
    162  CE1       91.3930  -41.4040  -73.0190 C.ar  250  PHE250     -0.0003
    163  CE2       91.7140  -42.5430  -70.9390 C.ar  250  PHE250     -0.0003
    164  CZ        91.7040  -42.5530  -72.3220 C.ar  250  PHE250     -0.0000
    165  N         84.2510  -42.5270  -68.7640 N.3   257  LEU257     -0.1245
    166  CA        84.9020  -43.8000  -68.4140 C.3   257  LEU257      0.1561
    167  C         84.5890  -44.2780  -66.9890 C.2   257  LEU257      0.2260
    168  O         84.3330  -45.4730  -66.7660 O.2   257  LEU257     -0.2867
    169  CB        86.4210  -43.6920  -68.6080 C.3   257  LEU257      0.0270
    170  CG        87.0110  -43.7490  -70.0370 C.3   257  LEU257      0.0019
    171  CD1       86.3580  -42.6940  -70.9060 C.3   257  LEU257      0.0001
    172  CD2       88.5310  -43.5780  -70.0980 C.3   257  LEU257      0.0001
@<TRIPOS>BOND
     1    20    19    2
     2    19    18    1
     3    18    17    1
     4    18    21    1
     5    71    69   ar
     6    71    72   ar
     7    69    68   ar
     8    21    22    1
     9    66    65    2
    10    22    23    1
    11    74    72   ar
    12    74    76   ar
    13    72    70   ar
    14    65    64    1
    15    68    70   ar
    16    68    67    1
    17    28    29    1
    18    76    75   ar
    19    23    24    1
    20    70    73   ar
    21    24    25    2
    22    25    27    1
    23    25    26    1
    24    64    67    1
    25    64    63    1
    26    34    32    1
    27    29    32    1
    28    29    30    1
    29    75    73   ar
    30    32    33    1
    31    81    82    1
    32    81    78    1
    33    31    30    2
    34     1     2    1
    35    30    35   am
    36    94    95    1
    37    77    78    1
    38    78    79    1
    39    61    60    1
    40   107   108   ar
    41   107   105   ar
    42   108   106   ar
    43     6     8    1
    44     6     5    1
    45    35    36    1
    46    99   100    1
    47     2     5    1
    48     2     3    1
    49    58    57    2
    50    60    62    1
    51    60    59    1
    52   105   104   ar
    53   106   104   ar
    54    96    95    1
    55    96    97    2
    56    95    98    1
    57    86    85    2
    58     5     7    1
    59    79    83   am
    60    79    80    2
    61     9     3   am
    62     9    10    1
    63     3     4    2
    64    89    90    2
    65    89    88    1
    66   104   103    1
    67    36    37    1
    68   100   103    1
    69   100   101    1
    70    57    56    1
    71    83    84    1
    72    11    10    1
    73    11    12    2
    74    13    10    1
    75    13    14    1
    76    85    84    1
    77    85    87   am
    78    59    56    1
    79    56    55    1
    80    88    87    1
    81    88    91    1
    82   101   102    2
    83    37    38    2
    84    16    14    1
    85    92    91    1
    86    14    15    1
    87    91    93    1
    88   115   109    1
    89   115   114    1
    90   109   110    1
    91    52    50   ar
    92    52    54   ar
    93    47    46    2
    94    50    49   ar
    95   114   113    1
    96    39    40    1
    97   110   113    1
    98   110   111    1
    99    46    45    1
   100    54    53   ar
   101    45    48    1
   102    45    44    1
   103    43    40    1
   104   162   160   ar
   105   162   164   ar
   106    49    48    1
   107    49    51   ar
   108   116   111   am
   109   116   117    1
   110   118   117    1
   111   118   119    2
   112   120   117    1
   113   120   121    1
   114   111   112    2
   115    40    41    1
   116   160   159   ar
   117   164   163   ar
   118    41    42    2
   119   145   144   ar
   120   145   143   ar
   121   144   142   ar
   122    53    51   ar
   123   121   122   ar
   124   121   123   ar
   125   122   124   ar
   126   143   141   ar
   127   142   140   ar
   128   123   125   ar
   129   159   161   ar
   130   159   158    1
   131   163   161   ar
   132   124   126   ar
   133   171   170    1
   134   138   137    2
   135   157   156    2
   136   137   136    1
   137   155   158    1
   138   155   156    1
   139   155   154    1
   140   141   140   ar
   141   172   170    1
   142   140   139    1
   143   170   169    1
   144   125   126   ar
   145   136   139    1
   146   136   135    1
   147   165   166    1
   148   169   166    1
   149   166   167    1
   150   134   132    1
   151   152   151    1
   152   132   131    1
   153   167   168    2
   154   151   153    1
   155   151   150    1
   156   133   131    1
   157   131   128    1
   158   150   147    1
   159   127   128    1
   160   128   129    1
   161   147   146    1
   162   147   148    1
   163   129   130    2
   164   149   148    2
