@<TRIPOS>MOLECULE
tmp/4b4uB00.pdb
 102 99 0 0 0
SMALL
GASTEIGER

@<TRIPOS>ATOM
      1  N          6.0830   12.3060   61.1140 N.3   102  HIS102     -0.1227
      2  CA         5.5040   13.1080   60.0520 C.3   102  HIS102      0.1737
      3  C          4.2470   13.7540   60.5910 C.2   102  HIS102      0.2438
      4  O          3.5520   13.1740   61.4170 O.2   102  HIS102     -0.2733
      5  CB         5.2020   12.1690   58.8450 C.3   102  HIS102      0.0758
      6  CG         4.1540   12.6790   57.8560 C.ar  102  HIS102      0.0818
      7  ND1        4.4910   13.2220   56.6610 N.ar  102  HIS102     -0.2268
      8  CD2        2.7500   12.6340   57.8910 C.ar  102  HIS102      0.1154
      9  CE1        3.3720   13.5550   55.9900 C.ar  102  HIS102      0.1986
     10  NE2        2.3000   13.1890   56.7480 N.ar  102  HIS102     -0.2212
     11  N          3.9060   14.9560   60.1100 N.am  103  PRO103     -0.2729
     12  CA         4.6350   15.7620   59.1390 C.3   103  PRO103      0.1401
     13  C          5.5990   16.7300   59.8230 C.2   103  PRO103      0.2269
     14  O          5.2300   17.4190   60.7720 O.2   103  PRO103     -0.2865
     15  CB         3.5270   16.5110   58.4180 C.3   103  PRO103      0.0296
     16  CG         2.5190   16.7480   59.4830 C.3   103  PRO103      0.0237
     17  CD         2.5940   15.5540   60.4120 C.3   103  PRO103      0.0939
     18  N         -8.0500    4.8280   48.3750 N.3   168  VAL168     -0.1231
     19  CA        -8.3650    6.2280   48.1480 C.3   168  VAL168      0.1692
     20  C         -7.3240    7.0440   48.9190 C.2   168  VAL168      0.2593
     21  O         -7.3460    7.1200   50.1610 O.2   168  VAL168     -0.2718
     22  CB        -9.8030    6.5970   48.5660 C.3   168  VAL168      0.0266
     23  CG1      -10.0990    8.0110   48.0890 C.3   168  VAL168      0.0020
     24  CG2      -10.8170    5.5870   48.0200 C.3   168  VAL168      0.0020
     25  N         -6.4130    7.6360   48.1680 N.am  169  GLY169     -0.1942
     26  CA        -5.2580    8.3460   48.6980 C.3   169  GLY169      0.2014
     27  C         -3.9920    7.6750   48.1770 C.2   169  GLY169      0.2639
     28  O         -3.9440    6.4490   48.0340 O.2   169  GLY169     -0.2714
     29  N         -2.9720    8.4830   47.8900 N.am  170  ARG170     -0.1963
     30  CA        -1.7420    7.9820   47.2870 C.3   170  ARG170      0.1729
     31  C         -0.5000    8.5510   47.9520 C.2   170  ARG170      0.2616
     32  O          0.5330    8.7230   47.2920 O.2   170  ARG170     -0.2715
     33  CB        -1.7300    8.3160   45.7890 C.3   170  ARG170      0.0348
     34  CG        -1.8700    9.7890   45.4890 C.3   170  ARG170      0.0492
     35  CD        -1.5300   10.1500   44.0440 C.3   170  ARG170      0.2205
     36  NE        -1.9140   11.5410   43.7890 N.pl3 170  ARG170     -0.0865
     37  CZ        -1.8810   12.1470   42.6080 C.cat 170  ARG170      0.5346
     38  NH1       -1.3860   11.5430   41.5380 N.pl3 170  ARG170      0.1354
     39  NH2       -2.3350   13.3890   42.5080 N.pl3 170  ARG170      0.1354
     40  N         -0.5860    8.8530   49.2450 N.am  171  SER171     -0.1950
     41  CA         0.5660    9.4360   49.9080 C.3   171  SER171      0.1924
     42  C          1.7320    8.4680   49.9100 C.2   171  SER171      0.2314
     43  O          1.5590    7.2410   49.8450 O.2   171  SER171     -0.2863
     44  CB         0.2470    9.8540   51.3360 C.3   171  SER171      0.2116
     45  OG         0.0800    8.7370   52.1830 O.3   171  SER171     -0.2180
     46  N         -7.2080    9.4120   43.9790 N.3   193  HIS193     -0.1226
     47  CA        -6.6270   10.6220   44.5640 C.3   193  HIS193      0.1752
     48  C         -7.5220   11.7950   44.2430 C.2   193  HIS193      0.2596
     49  O         -8.6450   11.6170   43.7570 O.2   193  HIS193     -0.2718
     50  CB        -5.2060   10.8000   44.0180 C.3   193  HIS193      0.0759
     51  CG        -5.1420   10.6590   42.5400 C.ar  193  HIS193      0.0818
     52  ND1       -5.6630   11.5880   41.7080 N.ar  193  HIS193     -0.2268
     53  CD2       -4.6320    9.6420   41.7370 C.ar  193  HIS193      0.1154
     54  CE1       -5.4960   11.1690   40.4290 C.ar  193  HIS193      0.1986
     55  NE2       -4.8590    9.9910   40.4530 N.ar  193  HIS193     -0.2212
     56  N         -7.0550   13.0000   44.5330 N.am  194  SER194     -0.1952
     57  CA        -7.9050   14.1840   44.4160 C.3   194  SER194      0.1924
     58  C         -8.3320   14.5130   42.9920 C.2   194  SER194      0.2314
     59  O         -9.2900   15.2820   42.8070 O.2   194  SER194     -0.2863
     60  CB        -7.2230   15.3930   45.0330 C.3   194  SER194      0.2116
     61  OG        -6.1700   15.8450   44.2190 O.3   194  SER194     -0.2180
     62  N        -15.3400    8.9040   41.5410 N.3   199  LEU199     -0.1245
     63  CA       -14.9090    8.2460   42.7790 C.3   199  LEU199      0.1561
     64  C        -16.0060    7.3880   43.4080 C.2   199  LEU199      0.2260
     65  O        -15.7270    6.2590   43.8130 O.2   199  LEU199     -0.2867
     66  CB       -14.3620    9.2500   43.7900 C.3   199  LEU199      0.0270
     67  CG       -13.7550    8.6340   45.0630 C.3   199  LEU199      0.0019
     68  CD1      -12.5460    7.7600   44.7630 C.3   199  LEU199      0.0001
     69  CD2      -13.4050    9.7280   46.0570 C.3   199  LEU199      0.0001
     70  N         -7.6750    6.6510   52.9270 N.3   212  ALA212     -0.1231
     71  CA        -6.3820    7.2100   53.2750 C.3   212  ALA212      0.1694
     72  C         -6.2670    8.6210   52.7100 C.2   212  ALA212      0.2592
     73  O         -5.2790    8.9690   52.0820 O.2   212  ALA212     -0.2718
     74  CB        -5.2780    6.2950   52.7320 C.3   212  ALA212      0.0304
     75  N         -7.3010    9.4310   52.9570 N.am  213  VAL213     -0.1966
     76  CA        -7.3950   10.7780   52.3890 C.3   213  VAL213      0.1727
     77  C         -7.1700   11.8950   53.4000 C.2   213  VAL213      0.2617
     78  O         -6.8940   13.0230   52.9970 O.2   213  VAL213     -0.2715
     79  CB        -8.7450   11.0100   51.6800 C.3   213  VAL213      0.0290
     80  CG1       -8.8320   10.2050   50.3920 C.3   213  VAL213      0.0023
     81  CG2       -9.9310   10.7310   52.6080 C.3   213  VAL213      0.0023
     82  N         -7.2750   11.6060   54.6970 N.am  214  GLY214     -0.1940
     83  CA        -7.0540   12.6360   55.7140 C.3   214  GLY214      0.2014
     84  C         -8.1240   13.7260   55.7240 C.2   214  GLY214      0.2638
     85  O         -7.8350   14.8860   56.0440 O.2   214  GLY214     -0.2714
     86  N         -9.3550   13.3450   55.3840 N.am  215  LYS215     -0.1977
     87  CA       -10.4940   14.2470   55.3750 C.3   215  LYS215      0.1596
     88  C        -11.6800   13.5170   56.0150 C.2   215  LYS215      0.2287
     89  O        -12.0830   12.4360   55.5590 O.2   215  LYS215     -0.2864
     90  CB       -10.8200   14.7120   53.9510 C.3   215  LYS215      0.0298
     91  CG        -9.7290   15.5910   53.3540 C.3   215  LYS215      0.0038
     92  CD       -10.1560   16.2440   52.0500 C.3   215  LYS215      0.0206
     93  CE        -9.0370   17.0840   51.4470 C.3   215  LYS215      0.1093
     94  NZ        -9.3930   17.4910   50.0630 N.3   215  LYS215     -0.1314
     95  N        -14.9690   11.5300   54.3880 N.3   218  LEU218     -0.1245
     96  CA       -15.0780   11.8280   52.9580 C.3   218  LEU218      0.1561
     97  C        -15.7560   10.6730   52.2080 C.2   218  LEU218      0.2260
     98  O        -16.6490   10.8910   51.3960 O.2   218  LEU218     -0.2867
     99  CB       -13.7050   12.1140   52.3750 C.3   218  LEU218      0.0270
    100  CG       -13.7190   12.5310   50.9120 C.3   218  LEU218      0.0019
    101  CD1      -12.5610   13.4660   50.6260 C.3   218  LEU218      0.0001
    102  CD2      -13.6990   11.3360   49.9710 C.3   218  LEU218      0.0001
@<TRIPOS>BOND
     1    54    55   ar
     2    54    52   ar
     3    55    53   ar
     4    38    37    1
     5    62    63    1
     6    52    51   ar
     7    53    51   ar
     8    39    37    1
     9    51    50    1
    10    37    36    2
    11    63    64    1
    12    63    66    1
    13    59    58    2
    14    58    57    1
    15    64    65    2
    16    49    48    2
    17    36    35    1
    18    66    67    1
    19    46    47    1
    20    50    47    1
    21    35    34    1
    22    61    60    1
    23    48    56   am
    24    48    47    1
    25    57    56    1
    26    57    60    1
    27    68    67    1
    28    67    69    1
    29    34    33    1
    30    33    30    1
    31    30    29    1
    32    30    31    1
    33    32    31    2
    34    29    27   am
    35    31    40   am
    36    24    22    1
    37    28    27    2
    38    23    22    1
    39    19    18    1
    40    19    22    1
    41    19    20    1
    42    25    26    1
    43    25    20   am
    44    27    26    1
    45    20    21    2
    46    40    41    1
    47    43    42    2
    48    41    42    1
    49    41    44    1
    50   102   100    1
    51    94    93    1
    52    80    79    1
    53   101   100    1
    54   100    99    1
    55    44    45    1
    56    98    97    2
    57    93    92    1
    58    79    76    1
    59    79    81    1
    60    92    91    1
    61    73    72    2
    62    97    96    1
    63    99    96    1
    64    76    75    1
    65    76    77    1
    66    72    75   am
    67    72    71    1
    68    74    71    1
    69    70    71    1
    70    96    95    1
    71    78    77    2
    72    91    90    1
    73    77    82   am
    74    90    87    1
    75    82    83    1
    76    87    86    1
    77    87    88    1
    78    86    84   am
    79    89    88    2
    80    83    84    1
    81    84    85    2
    82     9     7   ar
    83     9    10   ar
    84     7     6   ar
    85    10     8   ar
    86     6     8   ar
    87     6     5    1
    88    15    12    1
    89    15    16    1
    90     5     2    1
    91    12    13    1
    92    12    11    1
    93    16    17    1
    94    13    14    2
    95     2     3    1
    96     2     1    1
    97    11    17    1
    98    11     3   am
    99     3     4    2
