@<TRIPOS>MOLECULE
tmp/4b4uA01.pdb
 84 79 0 0 0
SMALL
GASTEIGER

@<TRIPOS>ATOM
      1  N         23.0410    3.5280   41.0200 N.3   115  LEU115     -0.1231
      2  CA        21.9720    4.4140   40.6330 C.3   115  LEU115      0.1693
      3  C         22.4240    5.3440   39.4950 C.2   115  LEU115      0.2591
      4  O         21.6800    5.5880   38.5530 O.2   115  LEU115     -0.2718
      5  CB        21.4530    5.1950   41.8320 C.3   115  LEU115      0.0284
      6  CG        20.1910    6.0140   41.6130 C.3   115  LEU115      0.0019
      7  CD1       18.9800    5.0870   41.3920 C.3   115  LEU115      0.0001
      8  CD2       19.9560    6.9570   42.7760 C.3   115  LEU115      0.0001
      9  N         23.6570    5.8360   39.5810 N.am  116  ALA116     -0.1980
     10  CA        24.1700    6.7800   38.5930 C.3   116  ALA116      0.1597
     11  C         24.2820    6.1550   37.2160 C.2   116  ALA116      0.2287
     12  O         24.2560    6.8700   36.2110 O.2   116  ALA116     -0.2864
     13  CB        25.5120    7.3250   39.0170 C.3   116  ALA116      0.0319
     14  N         12.5240    5.7710   44.1470 N.3   129  ARG129     -0.1245
     15  CA        12.7220    7.2000   43.9350 C.3   129  ARG129      0.1563
     16  C         11.7100    7.7700   42.9510 C.2   129  ARG129      0.2260
     17  O         11.0540    8.7760   43.2350 O.2   129  ARG129     -0.2867
     18  CB        14.1590    7.4960   43.5230 C.3   129  ARG129      0.0307
     19  CG        15.1310    7.3060   44.6710 C.3   129  ARG129      0.0489
     20  CD        16.5760    7.5760   44.2800 C.3   129  ARG129      0.2205
     21  NE        16.7550    8.9280   43.7720 N.pl3 129  ARG129     -0.0865
     22  CZ        16.9110   10.0130   44.5240 C.cat 129  ARG129      0.5346
     23  NH1       16.9020    9.9150   45.8520 N.pl3 129  ARG129      0.1354
     24  NH2       17.0600   11.2020   43.9480 N.pl3 129  ARG129      0.1354
     25  N         14.3870   12.2920   41.7010 N.3   135  ALA135     -0.1231
     26  CA        15.0890   12.1040   40.4490 C.3   135  ALA135      0.1694
     27  C         15.6820   10.7160   40.3550 C.2   135  ALA135      0.2592
     28  O         16.3770   10.2830   41.2570 O.2   135  ALA135     -0.2718
     29  CB        16.1980   13.1420   40.3020 C.3   135  ALA135      0.0304
     30  N         15.4500   10.0640   39.2160 N.am  136  ALA136     -0.1966
     31  CA        16.0470    8.7790   38.9110 C.3   136  ALA136      0.1728
     32  C         15.7780    8.4610   37.4500 C.2   136  ALA136      0.2616
     33  O         14.7830    8.8720   36.8920 O.2   136  ALA136     -0.2715
     34  CB        15.4670    7.6570   39.7790 C.3   136  ALA136      0.0334
     35  N         16.6510    7.6850   36.8390 N.am  137  TYR137     -0.1974
     36  CA        16.3480    7.1980   35.4960 C.3   137  TYR137      0.1639
     37  C         15.1630    6.2600   35.5810 C.2   137  TYR137      0.2290
     38  O         15.0880    5.4130   36.4690 O.2   137  TYR137     -0.2864
     39  CB        17.5650    6.5040   34.8810 C.3   137  TYR137      0.0560
     40  CG        18.7550    7.4330   34.7840 C.ar  137  TYR137     -0.0198
     41  CD1       18.6550    8.6560   34.1170 C.ar  137  TYR137     -0.0009
     42  CD2       19.9680    7.1080   35.3570 C.ar  137  TYR137     -0.0009
     43  CE1       19.7160    9.5360   34.0520 C.ar  137  TYR137      0.0417
     44  CE2       21.0600    7.9810   35.2840 C.ar  137  TYR137      0.0417
     45  CZ        20.9150    9.2110   34.6530 C.ar  137  TYR137      0.1957
     46  OH        21.9690   10.1180   34.6000 O.3   137  TYR137     -0.2866
     47  N         18.7940    8.0500   25.6230 N.3   271  ARG271     -0.1231
     48  CA        18.6770    9.3750   26.2010 C.3   271  ARG271      0.1694
     49  C         19.2380    9.4090   27.6190 C.2   271  ARG271      0.2591
     50  O         19.9950   10.3110   27.9940 O.2   271  ARG271     -0.2718
     51  CB        17.2430    9.8850   26.1970 C.3   271  ARG271      0.0321
     52  CG        17.1180   11.1840   26.9910 C.3   271  ARG271      0.0489
     53  CD        15.7200   11.7410   27.0650 C.3   271  ARG271      0.2205
     54  NE        14.7030   10.8090   27.5460 N.pl3 271  ARG271     -0.0865
     55  CZ        14.3640   10.5790   28.8170 C.cat 271  ARG271      0.5346
     56  NH1       15.0070   11.1210   29.8430 N.pl3 271  ARG271      0.1354
     57  NH2       13.3650    9.7580   29.0660 N.pl3 271  ARG271      0.1354
     58  N         18.8560    8.4260   28.4140 N.am  272  GLN272     -0.1979
     59  CA        19.3090    8.3780   29.7850 C.3   272  GLN272      0.1601
     60  C         20.8080    8.1420   29.8750 C.2   272  GLN272      0.2287
     61  O         21.4530    8.6620   30.7880 O.2   272  GLN272     -0.2864
     62  CB        18.4610    7.3770   30.5890 C.3   272  GLN272      0.0394
     63  CG        17.0340    7.9320   30.7390 C.3   272  GLN272      0.0908
     64  CD        16.0620    7.1660   31.6220 C.2   272  GLN272      0.2608
     65  OE1       15.1990    7.7980   32.2730 O.2   272  GLN272     -0.2717
     66  NE2       16.1500    5.8330   31.6380 N.am  272  GLN272     -0.0878
     67  N         22.3220   11.5080   29.2770 N.3   275  GLU275     -0.1245
     68  CA        22.1990   12.2580   30.5250 C.3   275  GLU275      0.1567
     69  C         23.2750   11.8250   31.5250 C.2   275  GLU275      0.2260
     70  O         23.9340   12.6770   32.1590 O.2   275  GLU275     -0.2867
     71  CB        20.8070   12.0740   31.1410 C.3   275  GLU275      0.0388
     72  CG        19.6690   12.6920   30.3450 C.3   275  GLU275      0.1160
     73  CD        18.2840   12.3280   30.8420 C.2   275  GLU275      0.3649
     74  OE1       18.1550   11.5710   31.8240 O.co2 275  GLU275     -0.2457
     75  OE2       17.3210   12.7750   30.2020 O.co2 275  GLU275     -0.2457
     76  N         26.4040   14.1840   32.9610 N.3   279  LYS279     -0.1245
     77  CA        26.6420   14.3660   34.3890 C.3   279  LYS279      0.1561
     78  C         28.0670   13.9640   34.7960 C.2   279  LYS279      0.2260
     79  O         28.7380   14.6780   35.5690 O.2   279  LYS279     -0.2867
     80  CB        25.5950   13.6100   35.2120 C.3   279  LYS279      0.0271
     81  CG        25.7190   13.8010   36.7160 C.3   279  LYS279      0.0035
     82  CD        24.4800   13.3100   37.4490 C.3   279  LYS279      0.0206
     83  CE        24.5580   13.5980   38.9420 C.3   279  LYS279      0.1093
     84  NZ        23.3040   13.1690   39.6190 N.3   279  LYS279     -0.1314
@<TRIPOS>BOND
     1    47    48    1
     2    51    48    1
     3    51    52    1
     4    48    49    1
     5    52    53    1
     6    53    54    1
     7    54    55    2
     8    49    50    2
     9    49    58   am
    10    58    59    1
    11    55    57    1
    12    55    56    1
    13    67    68    1
    14    59    60    1
    15    59    62    1
    16    60    61    2
    17    75    73   ar
    18    72    73    1
    19    72    71    1
    20    68    71    1
    21    68    69    1
    22    62    63    1
    23    63    64    1
    24    73    74   ar
    25    69    70    2
    26    64    66   am
    27    64    65    2
    28    76    77    1
    29    43    41   ar
    30    43    45   ar
    31    41    40   ar
    32    77    78    1
    33    77    80    1
    34    46    45    1
    35    45    44   ar
    36    40    39    1
    37    40    42   ar
    38    78    79    2
    39    39    36    1
    40    80    81    1
    41    44    42   ar
    42    36    37    1
    43    36    35    1
    44    37    38    2
    45    12    11    2
    46    81    82    1
    47    35    32   am
    48    33    32    2
    49    11    10    1
    50    82    83    1
    51    32    31    1
    52     4     3    2
    53    10    13    1
    54    10     9    1
    55    31    30    1
    56    31    34    1
    57    83    84    1
    58    30    27   am
    59     3     9   am
    60     3     2    1
    61    29    26    1
    62    27    26    1
    63    27    28    2
    64    26    25    1
    65     2     1    1
    66     2     5    1
    67     7     6    1
    68     6     5    1
    69     6     8    1
    70    16    17    2
    71    16    15    1
    72    18    15    1
    73    18    19    1
    74    21    20    1
    75    21    22    2
    76    15    14    1
    77    24    22    1
    78    20    19    1
    79    22    23    1
