@<TRIPOS>MOLECULE
tmp/4b4vB01.pdb
 205 199 0 0 0
SMALL
GASTEIGER

@<TRIPOS>ATOM
      1  N         -6.7420   -3.1960   68.1560 N.3     8  ARG8       -0.1245
      2  CA        -6.3560   -2.9740   69.5470 C.3     8  ARG8        0.1563
      3  C         -5.9670   -4.2990   70.2100 C.2     8  ARG8        0.2260
      4  O         -4.8910   -4.4140   70.7910 O.2     8  ARG8       -0.2867
      5  CB        -7.4890   -2.3000   70.3190 C.3     8  ARG8        0.0307
      6  CG        -7.0670   -1.7840   71.6820 C.3     8  ARG8        0.0489
      7  CD        -8.2320   -1.2100   72.4760 C.3     8  ARG8        0.2205
      8  NE        -8.8900   -0.0820   71.8100 N.pl3   8  ARG8       -0.0865
      9  CZ        -8.3570    1.1310   71.6460 C.cat   8  ARG8        0.5346
     10  NH1       -7.1250    1.4080   72.0740 N.pl3   8  ARG8        0.1354
     11  NH2       -9.0580    2.0800   71.0350 N.pl3   8  ARG8        0.1354
     12  N          1.7070   13.6550   70.3120 N.3    48  THR48      -0.1203
     13  CA         0.9040   12.5660   70.8550 C.3    48  THR48       0.1994
     14  C          1.3600   11.2010   70.3430 C.2    48  THR48       0.2617
     15  O          1.4750   10.2550   71.1160 O.2    48  THR48      -0.2717
     16  CB        -0.5830   12.7490   70.4940 C.3    48  THR48       0.1784
     17  OG1       -1.0580   13.9850   71.0390 O.3    48  THR48      -0.2211
     18  CG2       -1.4240   11.5870   71.0260 C.3    48  THR48       0.0376
     19  N          1.6150   11.1040   69.0410 N.am   49  TYR49      -0.1975
     20  CA         1.9730    9.8170   68.4410 C.3    49  TYR49       0.1639
     21  C          3.3800    9.3810   68.8450 C.2    49  TYR49       0.2290
     22  O          3.6080    8.1970   69.0940 O.2    49  TYR49      -0.2864
     23  CB         1.7800    9.8370   66.9180 C.3    49  TYR49       0.0560
     24  CG         0.3380   10.1060   66.5100 C.ar   49  TYR49      -0.0198
     25  CD1       -0.7230    9.5090   67.1920 C.ar   49  TYR49      -0.0009
     26  CD2        0.0340   10.9600   65.4540 C.ar   49  TYR49      -0.0009
     27  CE1       -2.0360    9.7530   66.8380 C.ar   49  TYR49       0.0417
     28  CE2       -1.2830   11.2050   65.0870 C.ar   49  TYR49       0.0417
     29  CZ        -2.3130   10.6030   65.7880 C.ar   49  TYR49       0.1957
     30  OH        -3.6260   10.8330   65.4470 O.3    49  TYR49      -0.2866
     31  N          2.9620    8.0930   72.3430 N.3    52  MET52      -0.1230
     32  CA         2.3890    6.7520   72.3070 C.3    52  MET52       0.1702
     33  C          3.4180    5.7080   71.8740 C.2    52  MET52       0.2592
     34  O          3.4240    4.5850   72.3800 O.2    52  MET52      -0.2718
     35  CB         1.1800    6.7230   71.3650 C.3    52  MET52       0.0401
     36  CG        -0.0110    7.5100   71.8890 C.3    52  MET52       0.0596
     37  SD        -1.3100    7.7140   70.6590 S.3    52  MET52      -0.1393
     38  CE        -1.9900    6.0610   70.5590 C.3    52  MET52       0.0692
     39  N          4.2890    6.0860   70.9440 N.am   53  LYS53      -0.1980
     40  CA         5.3310    5.1830   70.4610 C.3    53  LYS53       0.1596
     41  C          6.3980    4.9450   71.5410 C.2    53  LYS53       0.2287
     42  O          6.8690    3.8170   71.7230 O.2    53  LYS53      -0.2864
     43  CB         5.9320    5.7180   69.1530 C.3    53  LYS53       0.0298
     44  CG         4.9930    5.5360   67.9680 C.3    53  LYS53       0.0038
     45  CD         5.2790    6.4800   66.8050 C.3    53  LYS53       0.0206
     46  CE         4.1780    6.3780   65.7540 C.3    53  LYS53       0.1093
     47  NZ         4.4930    7.0910   64.4870 N.3    53  LYS53      -0.1314
     48  N         12.8320    6.8630   63.8600 N.3    95  LEU95      -0.1231
     49  CA        11.5480    7.4230   63.4420 C.3    95  LEU95       0.1693
     50  C         11.6870    8.9310   63.2240 C.2    95  LEU95       0.2592
     51  O         12.1710    9.6340   64.1020 O.2    95  LEU95      -0.2718
     52  CB        10.4860    7.1770   64.5170 C.3    95  LEU95       0.0284
     53  CG         9.1820    7.9810   64.4050 C.3    95  LEU95       0.0019
     54  CD1        8.2890    7.3760   63.3330 C.3    95  LEU95       0.0001
     55  CD2        8.4790    8.0200   65.7540 C.3    95  LEU95       0.0001
     56  N         11.2790    9.4090   62.0500 N.am   96  LEU96      -0.1966
     57  CA        11.0740   10.8390   61.8090 C.3    96  LEU96       0.1728
     58  C          9.5690   11.0640   61.6680 C.2    96  LEU96       0.2616
     59  O          8.9790   10.7410   60.6380 O.2    96  LEU96      -0.2715
     60  CB        11.8050   11.3080   60.5480 C.3    96  LEU96       0.0311
     61  CG        11.5490   12.7620   60.1060 C.3    96  LEU96       0.0022
     62  CD1       11.8730   13.7520   61.2190 C.3    96  LEU96       0.0001
     63  CD2       12.3240   13.0980   58.8430 C.3    96  LEU96       0.0001
     64  N          8.9510   11.6010   62.7140 N.am   97  GLN97      -0.1963
     65  CA         7.5080   11.7970   62.7300 C.3    97  GLN97       0.1733
     66  C          7.0870   12.8320   61.6870 C.2    97  GLN97       0.2616
     67  O          7.5780   13.9620   61.6820 O.2    97  GLN97      -0.2715
     68  CB         7.0370   12.2280   64.1220 C.3    97  GLN97       0.0408
     69  CG         5.5210   12.2710   64.3030 C.3    97  GLN97       0.0908
     70  CD         4.8620   10.9020   64.2510 C.2    97  GLN97       0.2608
     71  OE1        5.5070    9.8710   64.4690 O.2    97  GLN97      -0.2717
     72  NE2        3.5620   10.8890   63.9760 N.am   97  GLN97      -0.0878
     73  N          6.1590   12.4220   60.8240 N.am   98  HIS98      -0.1960
     74  CA         5.6430   13.2480   59.7340 C.3    98  HIS98       0.1772
     75  C          4.3140   13.8330   60.1350 C.2    98  HIS98       0.2462
     76  O          3.5380   13.1800   60.8350 O.2    98  HIS98      -0.2730
     77  CB         5.5300   12.3800   58.4730 C.3    98  HIS98       0.0785
     78  CG         4.4400   12.7930   57.5140 C.ar   98  HIS98       0.0821
     79  ND1        4.6690   13.5970   56.4580 N.ar   98  HIS98      -0.2267
     80  CD2        3.0910   12.4460   57.4600 C.ar   98  HIS98       0.1154
     81  CE1        3.5210   13.7810   55.7800 C.ar   98  HIS98       0.1986
     82  NE2        2.5580   13.0700   56.3910 N.ar   98  HIS98      -0.2212
     83  N          4.0060   15.0590   59.6820 N.am   99  PRO99      -0.2727
     84  CA         4.7620   15.9110   58.7770 C.3    99  PRO99       0.1402
     85  C          5.7040   16.8520   59.5220 C.2    99  PRO99       0.2269
     86  O          5.2850   17.5150   60.4650 O.2    99  PRO99      -0.2865
     87  CB         3.6640   16.6900   58.0650 C.3    99  PRO99       0.0296
     88  CG         2.5860   16.8260   59.0870 C.3    99  PRO99       0.0237
     89  CD         2.7270   15.6860   60.0570 C.3    99  PRO99       0.0939
     90  N         13.9090   11.5140   55.1540 N.3   110  PHE110     -0.1241
     91  CA        13.5000   10.0980   55.1630 C.3   110  PHE110      0.1605
     92  C         14.5890    9.2140   54.5460 C.2   110  PHE110      0.2264
     93  O         15.0090    8.2110   55.1370 O.2   110  PHE110     -0.2867
     94  CB        12.2030    9.8780   54.3580 C.3   110  PHE110      0.0534
     95  CG        10.9190   10.2600   55.0750 C.ar  110  PHE110     -0.0203
     96  CD1       10.8280   10.3250   56.4640 C.ar  110  PHE110     -0.0042
     97  CD2        9.7690   10.5010   54.3310 C.ar  110  PHE110     -0.0042
     98  CE1        9.6330   10.6620   57.0810 C.ar  110  PHE110     -0.0003
     99  CE2        8.5690   10.8260   54.9450 C.ar  110  PHE110     -0.0003
    100  CZ         8.4980   10.9020   56.3230 C.ar  110  PHE110     -0.0000
    101  N         10.3440    2.3730   60.3850 N.3   120  ASP120     -0.1239
    102  CA         9.0670    2.9870   60.0310 C.3   120  ASP120      0.1674
    103  C          8.7770    2.8460   58.5240 C.2   120  ASP120      0.2266
    104  O          7.6790    3.1720   58.0650 O.2   120  ASP120     -0.2867
    105  CB         9.1270    4.4640   60.4380 C.3   120  ASP120      0.1410
    106  CG         7.7940    5.1640   60.3770 C.2   120  ASP120      0.3668
    107  OD1        6.7540    4.5630   60.7040 O.co2 120  ASP120     -0.2456
    108  OD2        7.8040    6.3550   60.0180 O.co2 120  ASP120     -0.2456
    109  N         10.1030    4.3470   55.6400 N.3   122  VAL122     -0.1245
    110  CA         9.9020    5.6200   54.9440 C.3   122  VAL122      0.1561
    111  C         10.8990    5.8820   53.8010 C.2   122  VAL122      0.2260
    112  O         10.7160    6.8330   53.0370 O.2   122  VAL122     -0.2867
    113  CB         9.9560    6.8000   55.9350 C.3   122  VAL122      0.0252
    114  CG1        8.7800    6.7350   56.8960 C.3   122  VAL122      0.0019
    115  CG2       11.2810    6.8160   56.6950 C.3   122  VAL122      0.0019
    116  N          4.8570    1.6780   58.4040 N.3   140  ALA140     -0.1231
    117  CA         4.1920    1.2190   59.6310 C.3   140  ALA140      0.1694
    118  C          2.6900    0.9370   59.4960 C.2   140  ALA140      0.2592
    119  O          2.2310   -0.1540   59.8500 O.2   140  ALA140     -0.2718
    120  CB         4.4390    2.2040   60.7670 C.3   140  ALA140      0.0304
    121  N          1.9250    1.9030   58.9920 N.am  141  THR141     -0.1953
    122  CA         0.4670    1.7480   58.9340 C.3   141  THR141      0.1897
    123  C          0.0110    0.7010   57.9040 C.2   141  THR141      0.2313
    124  O         -0.7930   -0.1700   58.2360 O.2   141  THR141     -0.2863
    125  CB        -0.2540    3.0980   58.7020 C.3   141  THR141      0.1794
    126  OG1       -0.1440    3.9060   59.8790 O.3   141  THR141     -0.2208
    127  CG2       -1.7260    2.8700   58.3740 C.3   141  THR141      0.0378
    128  N          3.7810    7.5890   52.8180 N.3   169  ILE169     -0.1245
    129  CA         3.8960    6.6500   53.9340 C.3   169  ILE169      0.1561
    130  C          2.6630    5.7690   54.1150 C.2   169  ILE169      0.2260
    131  O          2.7020    4.8180   54.8910 O.2   169  ILE169     -0.2867
    132  CB         4.2350    7.3600   55.2730 C.3   169  ILE169      0.0252
    133  CG1        3.0180    8.0870   55.8610 C.3   169  ILE169      0.0019
    134  CG2        5.3980    8.3270   55.0810 C.3   169  ILE169      0.0019
    135  CD1        3.2680    8.6400   57.2510 C.3   169  ILE169      0.0001
    136  N         -7.9440    6.6060   58.8580 N.3   230  GLY230     -0.1210
    137  CA        -8.0000    8.0060   59.2710 C.3   230  GLY230      0.1956
    138  C         -8.3380    8.1920   60.7390 C.2   230  GLY230      0.2611
    139  O         -8.8370    7.2790   61.3980 O.2   230  GLY230     -0.2717
    140  N         -8.0580    9.3820   61.2570 N.am  231  PHE231     -0.1976
    141  CA        -8.5690    9.7720   62.5670 C.3   231  PHE231      0.1639
    142  C         -8.6880   11.2810   62.7050 C.2   231  PHE231      0.2290
    143  O         -7.7470   12.0190   62.4250 O.2   231  PHE231     -0.2864
    144  CB        -7.7150    9.2220   63.7100 C.3   231  PHE231      0.0560
    145  CG        -8.2750    9.5400   65.0660 C.ar  231  PHE231     -0.0200
    146  CD1       -9.2830    8.7560   65.6140 C.ar  231  PHE231     -0.0042
    147  CD2       -7.8360   10.6540   65.7720 C.ar  231  PHE231     -0.0042
    148  CE1       -9.8170    9.0550   66.8540 C.ar  231  PHE231     -0.0003
    149  CE2       -8.3700   10.9600   67.0120 C.ar  231  PHE231     -0.0003
    150  CZ        -9.3600   10.1570   67.5550 C.ar  231  PHE231     -0.0000
    151  N        -10.3590   13.9910   65.5690 N.3   233  PRO233     -0.2116
    152  CA       -10.9860   14.1210   66.8940 C.3   233  PRO233      0.1372
    153  C        -12.3390   14.8320   66.8740 C.2   233  PRO233      0.2244
    154  O        -12.5240   15.7790   66.1080 O.2   233  PRO233     -0.2868
    155  CB        -9.9750   14.9590   67.6910 C.3   233  PRO233      0.0268
    156  CG        -8.6860   14.8250   66.9670 C.3   233  PRO233      0.0207
    157  CD        -9.0400   14.6490   65.5210 C.3   233  PRO233      0.0892
    158  N        -12.8790    2.7620   64.2380 N.3   257  VAL257     -0.1231
    159  CA       -12.1280    3.9680   64.5670 C.3   257  VAL257      0.1678
    160  C        -12.7870    4.6100   65.7870 C.2   257  VAL257      0.2434
    161  O        -13.9650    4.9430   65.7310 O.2   257  VAL257     -0.2733
    162  CB       -12.1400    4.9800   63.4050 C.3   257  VAL257      0.0265
    163  CG1      -11.3600    6.2340   63.7780 C.3   257  VAL257      0.0020
    164  CG2      -11.5780    4.3480   62.1400 C.3   257  VAL257      0.0020
    165  N        -12.0420    4.7730   66.8970 N.am  258  PRO258     -0.2718
    166  CA       -10.6440    4.3950   67.1080 C.3   258  PRO258      0.1535
    167  C        -10.4630    2.8870   67.3200 C.2   258  PRO258      0.2599
    168  O        -11.4400    2.1350   67.2880 O.2   258  PRO258     -0.2715
    169  CB       -10.2710    5.1640   68.3790 C.3   258  PRO258      0.0310
    170  CG       -11.5470    5.2700   69.1360 C.3   258  PRO258      0.0237
    171  CD       -12.6280    5.3960   68.1000 C.3   258  PRO258      0.0939
    172  N         -9.2180    2.4580   67.5160 N.am  259  GLY259     -0.1941
    173  CA        -8.9240    1.0900   67.9490 C.3   259  GLY259      0.2014
    174  C         -8.8070    0.0490   66.8520 C.2   259  GLY259      0.2639
    175  O         -8.8770   -1.1500   67.1290 O.2   259  GLY259     -0.2714
    176  N         -8.6200    0.4940   65.6110 N.am  260  GLY260     -0.1954
    177  CA        -8.4300   -0.4130   64.4850 C.3   260  GLY260      0.1869
    178  C         -7.0210   -0.3230   63.9270 C.2   260  GLY260      0.2309
    179  O         -6.1040   -0.9670   64.4300 O.2   260  GLY260     -0.2863
    180  N         -4.9990    2.2530   64.0260 N.3   262  GLY262     -0.1210
    181  CA        -4.1180    3.0680   64.8730 C.3   262  GLY262      0.1940
    182  C         -3.1490    2.2830   65.7460 C.2   262  GLY262      0.2453
    183  O         -1.9370    2.4700   65.6560 O.2   262  GLY262     -0.2732
    184  N         -3.6800    1.4050   66.6110 N.am  263  PRO263     -0.2728
    185  CA        -2.8310    0.5890   67.4750 C.3   263  PRO263      0.1401
    186  C         -1.8160   -0.2560   66.7010 C.2   263  PRO263      0.2269
    187  O         -0.6960   -0.4540   67.1690 O.2   263  PRO263     -0.2865
    188  CB        -3.8330   -0.3070   68.2030 C.3   263  PRO263      0.0296
    189  CG        -5.0940    0.4760   68.2190 C.3   263  PRO263      0.0237
    190  CD        -5.1110    1.2430   66.9310 C.3   263  PRO263      0.0939
    191  N         -0.4960    0.5430   63.7370 N.3   265  THR265     -0.1203
    192  CA         0.5620    1.4510   63.2770 C.3   265  THR265      0.1994
    193  C          1.7090    1.4600   64.2880 C.2   265  THR265      0.2617
    194  O          2.8610    1.1900   63.9430 O.2   265  THR265     -0.2717
    195  CB         0.0470    2.8940   63.1200 C.3   265  THR265      0.1784
    196  OG1       -0.9580    2.9340   62.1010 O.3   265  THR265     -0.2211
    197  CG2        1.2000    3.8490   62.7610 C.3   265  THR265      0.0376
    198  N          1.3740    1.7520   65.5390 N.am  266  ILE266     -0.1979
    199  CA         2.3710    1.8760   66.6090 C.3   266  ILE266      0.1595
    200  C          3.0950    0.5560   66.8620 C.2   266  ILE266      0.2287
    201  O          4.3210    0.5130   66.9260 O.2   266  ILE266     -0.2864
    202  CB         1.7170    2.3610   67.9160 C.3   266  ILE266      0.0276
    203  CG1        1.2710    3.8190   67.7680 C.3   266  ILE266      0.0022
    204  CG2        2.6730    2.2190   69.0950 C.3   266  ILE266      0.0022
    205  CD1        0.3050    4.2620   68.8410 C.3   266  ILE266      0.0001
@<TRIPOS>BOND
     1   128   129    1
     2   112   111    2
     3   111   110    1
     4   129   130    1
     5   129   132    1
     6   130   131    2
     7    97    99   ar
     8    97    95   ar
     9    94    95    1
    10    94    91    1
    11    92    93    2
    12    92    91    1
    13   110   109    1
    14   110   113    1
    15    99   100   ar
    16    95    96   ar
    17   134   132    1
    18    90    91    1
    19   132   133    1
    20    81    82   ar
    21    81    79   ar
    22   133   135    1
    23   113   115    1
    24   113   114    1
    25   100    98   ar
    26    82    80   ar
    27    79    78   ar
    28    96    98   ar
    29    80    78   ar
    30    78    77    1
    31   123   124    2
    32   123   122    1
    33    87    84    1
    34    87    88    1
    35   104   103    2
    36   127   125    1
    37   116   117    1
    38    77    74    1
    39   103   102    1
    40   125   122    1
    41   125   126    1
    42    84    85    1
    43    84    83    1
    44    63    61    1
    45   136   137    1
    46   122   121    1
    47   121   118   am
    48    88    89    1
    49   137   138    1
    50   118   117    1
    51   118   119    2
    52    85    86    2
    53   117   120    1
    54    83    89    1
    55    83    75   am
    56    74    75    1
    57    74    73    1
    58   108   106   ar
    59   102   101    1
    60   102   105    1
    61    61    60    1
    62    61    62    1
    63    75    76    2
    64   106   105    1
    65   106   107   ar
    66    60    57    1
    67    59    58    2
    68   138   140   am
    69   138   139    2
    70    73    66   am
    71   140   141    1
    72    58    57    1
    73    58    64   am
    74    67    66    2
    75    66    65    1
    76    57    56    1
    77    56    50   am
    78   196   195    1
    79   164   162    1
    80   143   142    2
    81   141   142    1
    82   141   144    1
    83    64    65    1
    84    65    68    1
    85   197   195    1
    86   195   192    1
    87    50    49    1
    88    50    51    2
    89   192   191    1
    90   192   193    1
    91    54    53    1
    92   162   163    1
    93   162   159    1
    94    49    48    1
    95    49    52    1
    96   144   145    1
    97   178   179    2
    98   178   177    1
    99   194   193    2
   100    72    70   am
   101   180   181    1
   102    68    69    1
   103   158   159    1
   104    70    69    1
   105    70    71    2
   106   193   198   am
   107    53    52    1
   108    53    55    1
   109   177   176    1
   110    47    46    1
   111   159   160    1
   112   181   182    1
   113   145   146   ar
   114   145   147   ar
   115    28    26   ar
   116    28    29   ar
   117    30    29    1
   118    26    24   ar
   119   157   151    1
   120   157   156    1
   121   198   199    1
   122   151   152    1
   123   176   174   am
   124   146   148   ar
   125   183   182    2
   126   161   160    2
   127   182   184   am
   128    46    45    1
   129   147   149   ar
   130   160   165   am
   131    29    27   ar
   132   154   153    2
   133    24    23    1
   134    24    25   ar
   135   199   200    1
   136   199   202    1
   137   184   190    1
   138   184   185    1
   139   186   187    2
   140   186   185    1
   141    45    44    1
   142    27    25   ar
   143   174   175    2
   144   174   173    1
   145   148   150   ar
   146   200   201    2
   147   153   152    1
   148   152   155    1
   149   165   166    1
   150   165   171    1
   151    23    20    1
   152   190   189    1
   153   156   155    1
   154   149   150   ar
   155   166   167    1
   156   166   169    1
   157   168   167    2
   158   167   172   am
   159   185   188    1
   160   172   173    1
   161   203   202    1
   162   203   205    1
   163   202   204    1
   164    44    43    1
   165   171   170    1
   166     1     2    1
   167   188   189    1
   168   169   170    1
   169    20    21    1
   170    20    19    1
   171    21    22    2
   172    19    14   am
   173    43    40    1
   174     2     3    1
   175     2     5    1
   176     3     4    2
   177    12    13    1
   178     5     6    1
   179    14    13    1
   180    14    15    2
   181    40    39    1
   182    40    41    1
   183    16    13    1
   184    16    18    1
   185    16    17    1
   186    38    37    1
   187    37    36    1
   188    39    33   am
   189    11     9    1
   190    35    36    1
   191    35    32    1
   192    41    42    2
   193     9     8    2
   194     9    10    1
   195     6     7    1
   196     8     7    1
   197    33    32    1
   198    33    34    2
   199    32    31    1
