@<TRIPOS>MOLECULE
tmp/4b4wA01.pdb
 192 184 0 0 0
SMALL
GASTEIGER

@<TRIPOS>ATOM
      1  N          8.5810    5.3080   16.1500 N.3     8  ARG8       -0.1245
      2  CA         9.7000    5.3060   15.2090 C.3     8  ARG8        0.1563
      3  C         10.1030    6.7330   14.8230 C.2     8  ARG8        0.2260
      4  O         11.2840    7.0840   14.8430 O.2     8  ARG8       -0.2867
      5  CB         9.3530    4.4940   13.9550 C.3     8  ARG8        0.0307
      6  CG        10.5750    4.0240   13.1930 C.3     8  ARG8        0.0489
      7  CD        10.2320    3.4030   11.8480 C.3     8  ARG8        0.2205
      8  NE         9.2070    2.3570   11.9270 N.pl3   8  ARG8       -0.0865
      9  CZ         9.3780    1.1420   12.4530 C.cat   8  ARG8        0.5346
     10  NH1       10.5390    0.7800   12.9920 N.pl3   8  ARG8        0.1354
     11  NH2        8.3680    0.2750   12.4470 N.pl3   8  ARG8        0.1354
     12  N         19.5590   -9.8040   19.9430 N.3    48  THR48      -0.1203
     13  CA        19.0600   -8.8470   18.9500 C.3    48  THR48       0.1994
     14  C         18.8590   -7.4580   19.5490 C.2    48  THR48       0.2617
     15  O         19.2850   -6.4590   18.9640 O.2    48  THR48      -0.2717
     16  CB        17.7360   -9.3300   18.3170 C.3    48  THR48       0.1784
     17  OG1       17.9740  -10.5360   17.5870 O.3    48  THR48      -0.2211
     18  CG2       17.1550   -8.2750   17.3710 C.3    48  THR48       0.0376
     19  N         18.2320   -7.4010   20.7210 N.am   49  TYR49      -0.1975
     20  CA        17.9320   -6.1220   21.3540 C.3    49  TYR49       0.1639
     21  C         19.1970   -5.4220   21.8480 C.2    49  TYR49       0.2290
     22  O         19.3040   -4.2030   21.7410 O.2    49  TYR49      -0.2864
     23  CB        16.9090   -6.2820   22.4860 C.3    49  TYR49       0.0560
     24  CG        15.5480   -6.7830   22.0330 C.ar   49  TYR49      -0.0198
     25  CD1       15.0030   -6.3920   20.8100 C.ar   49  TYR49      -0.0009
     26  CD2       14.7950   -7.6380   22.8370 C.ar   49  TYR49      -0.0009
     27  CE1       13.7630   -6.8500   20.3940 C.ar   49  TYR49       0.0417
     28  CE2       13.5510   -8.1000   22.4300 C.ar   49  TYR49       0.0417
     29  CZ        13.0400   -7.7020   21.2070 C.ar   49  TYR49       0.1957
     30  OH        11.8060   -8.1440   20.7850 O.3    49  TYR49      -0.2866
     31  N         20.7460   -3.8170   18.8430 N.3    52  MET52      -0.1230
     32  CA        19.9600   -2.6410   18.4720 C.3    52  MET52       0.1702
     33  C         20.3210   -1.4490   19.3640 C.2    52  MET52       0.2592
     34  O         20.4430   -0.3190   18.8890 O.2    52  MET52      -0.2718
     35  CB        18.4550   -2.9440   18.5570 C.3    52  MET52       0.0401
     36  CG        17.9320   -3.8410   17.4440 C.3    52  MET52       0.0596
     37  SD        16.1800   -4.2650   17.6190 S.3    52  MET52      -0.1393
     38  CE        15.4150   -2.6960   17.2110 C.3    52  MET52       0.0692
     39  N         20.5070   -1.7150   20.6540 N.am   53  LYS53      -0.1980
     40  CA        20.8890   -0.6760   21.6070 C.3    53  LYS53       0.1596
     41  C         22.3130   -0.1670   21.3370 C.2    53  LYS53       0.2287
     42  O         22.5580    1.0360   21.3720 O.2    53  LYS53      -0.2864
     43  CB        20.7080   -1.1810   23.0390 C.3    53  LYS53       0.0298
     44  CG        19.2380   -1.3790   23.4020 C.3    53  LYS53       0.0038
     45  CD        19.0290   -2.2630   24.6250 C.3    53  LYS53       0.0206
     46  CE        17.5500   -2.5850   24.8110 C.3    53  LYS53       0.1093
     47  NZ        17.2330   -3.2850   26.0900 N.3    53  LYS53      -0.1314
     48  N         23.8570   -1.4980   31.2000 N.3    95  LEU95      -0.1231
     49  CA        22.6600   -2.2590   30.8500 C.3    95  LEU95       0.1693
     50  C         22.8950   -3.7370   31.1270 C.2    95  LEU95       0.2592
     51  O         23.8750   -4.3110   30.6490 O.2    95  LEU95      -0.2718
     52  CB        22.3480   -2.0940   29.3620 C.3    95  LEU95       0.0284
     53  CG        21.2820   -3.0270   28.7680 C.3    95  LEU95       0.0019
     54  CD1       19.9190   -2.7140   29.3520 C.3    95  LEU95       0.0001
     55  CD2       21.2580   -2.8960   27.2530 C.3    95  LEU95       0.0001
     56  N         21.9910   -4.3420   31.8900 N.am   96  LEU96      -0.1966
     57  CA        21.9060   -5.7860   32.0090 C.3    96  LEU96       0.1728
     58  C         20.6110   -6.2030   31.3240 C.2    96  LEU96       0.2616
     59  O         19.5130   -5.9040   31.8060 O.2    96  LEU96      -0.2715
     60  CB        21.9100   -6.2210   33.4780 C.3    96  LEU96       0.0311
     61  CG        21.8030   -7.7270   33.7550 C.3    96  LEU96       0.0022
     62  CD1       22.9400   -8.4930   33.0820 C.3    96  LEU96       0.0001
     63  CD2       21.7710   -7.9980   35.2550 C.3    96  LEU96       0.0001
     64  N         20.7470   -6.8730   30.1840 N.am   97  GLN97      -0.1963
     65  CA        19.5940   -7.2800   29.3860 C.3    97  GLN97       0.1733
     66  C         18.8510   -8.4310   30.0660 C.2    97  GLN97       0.2616
     67  O         19.4330   -9.4790   30.3360 O.2    97  GLN97      -0.2715
     68  CB        20.0380   -7.6920   27.9780 C.3    97  GLN97       0.0408
     69  CG        18.8910   -7.9520   27.0070 C.3    97  GLN97       0.0908
     70  CD        18.1270   -6.7020   26.6300 C.2    97  GLN97       0.2608
     71  OE1       18.6260   -5.5840   26.7640 O.2    97  GLN97      -0.2717
     72  NE2       16.9010   -6.8870   26.1440 N.am   97  GLN97      -0.0878
     73  N         17.5690   -8.2040   30.3400 N.am   98  HIS98      -0.1973
     74  CA        16.6640   -9.2030   30.9130 C.3    98  HIS98       0.1656
     75  C         16.0790  -10.0320   29.7950 C.2    98  HIS98       0.2291
     76  O         15.8490   -9.5040   28.7080 O.2    98  HIS98      -0.2864
     77  CB        15.5780   -8.4650   31.7130 C.3    98  HIS98       0.0771
     78  CG        14.3010   -9.2430   31.9360 C.ar   98  HIS98       0.0820
     79  ND1       13.9990   -9.8120   33.1210 N.ar   98  HIS98      -0.2267
     80  CD2       13.2070   -9.4730   31.0980 C.ar   98  HIS98       0.1154
     81  CE1       12.7890  -10.4040   33.0370 C.ar   98  HIS98       0.1986
     82  NE2       12.3090  -10.2010   31.7960 N.ar   98  HIS98      -0.2212
     83  N         20.6960   -6.5830   39.1500 N.3   110  PHE110     -0.1241
     84  CA        20.1540   -5.2470   38.8700 C.3   110  PHE110      0.1605
     85  C         20.5990   -4.2630   39.9570 C.2   110  PHE110      0.2264
     86  O         21.1310   -3.1930   39.6600 O.2   110  PHE110     -0.2867
     87  CB        18.6140   -5.2440   38.8310 C.3   110  PHE110      0.0534
     88  CG        18.0010   -5.7640   37.5500 C.ar  110  PHE110     -0.0203
     89  CD1       18.6800   -5.7400   36.3330 C.ar  110  PHE110     -0.0042
     90  CD2       16.6890   -6.2190   37.5600 C.ar  110  PHE110     -0.0042
     91  CE1       18.0690   -6.1960   35.1760 C.ar  110  PHE110     -0.0003
     92  CE2       16.0790   -6.6790   36.4050 C.ar  110  PHE110     -0.0003
     93  CZ        16.7720   -6.6710   35.2140 C.ar  110  PHE110     -0.0000
     94  N         19.3010    2.2380   32.4790 N.3   120  ASP120     -0.1239
     95  CA        18.1180    1.4750   32.0680 C.3   120  ASP120      0.1674
     96  C         17.0310    1.4550   33.1490 C.2   120  ASP120      0.2266
     97  O         15.9540    0.9040   32.9250 O.2   120  ASP120     -0.2867
     98  CB        18.5040    0.0390   31.7030 C.3   120  ASP120      0.1410
     99  CG        17.4920   -0.6210   30.7880 C.2   120  ASP120      0.3668
    100  OD1       17.1850   -0.0390   29.7310 O.co2 120  ASP120     -0.2456
    101  OD2       17.0140   -1.7240   31.1120 O.co2 120  ASP120     -0.2456
    102  N         16.8130   -0.0330   36.3860 N.3   122  VAL122     -0.1245
    103  CA        16.4490   -1.3430   36.9170 C.3   122  VAL122      0.1561
    104  C         16.6150   -1.5130   38.4330 C.2   122  VAL122      0.2260
    105  O         16.1280   -2.5030   38.9880 O.2   122  VAL122     -0.2867
    106  CB        17.2310   -2.4760   36.2100 C.3   122  VAL122      0.0252
    107  CG1       16.8670   -2.5240   34.7300 C.3   122  VAL122      0.0019
    108  CG2       18.7310   -2.2970   36.3950 C.3   122  VAL122      0.0019
    109  N         13.4540    1.8800   31.0860 N.3   140  ALA140     -0.1231
    110  CA        13.4720    2.4020   29.7210 C.3   140  ALA140      0.1694
    111  C         12.1290    2.3400   29.0040 C.2   140  ALA140      0.2592
    112  O         11.6890    3.3400   28.4240 O.2   140  ALA140     -0.2718
    113  CB        14.5440    1.7010   28.8990 C.3   140  ALA140      0.0304
    114  N         11.4840    1.1750   29.0310 N.am  141  THR141     -0.1953
    115  CA        10.2380    0.9990   28.2820 C.3   141  THR141      0.1897
    116  C          9.1010    1.8850   28.8320 C.2   141  THR141      0.2313
    117  O          8.4840    2.6240   28.0680 O.2   141  THR141     -0.2863
    118  CB         9.8120   -0.4840   28.1880 C.3   141  THR141      0.1794
    119  OG1       10.7760   -1.2090   27.4140 O.3   141  THR141     -0.2208
    120  CG2        8.4430   -0.6260   27.5230 C.3   141  THR141      0.0378
    121  N         10.5040   -4.4160   35.7030 N.3   169  ILE169     -0.1245
    122  CA        11.0300   -3.4140   34.7670 C.3   169  ILE169      0.1561
    123  C          9.9930   -2.8160   33.8140 C.2   169  ILE169      0.2260
    124  O         10.3140   -1.9010   33.0590 O.2   169  ILE169     -0.2867
    125  CB        12.2450   -3.9410   33.9590 C.3   169  ILE169      0.0252
    126  CG1       11.8390   -5.0390   32.9720 C.3   169  ILE169      0.0019
    127  CG2       13.3210   -4.4390   34.9100 C.3   169  ILE169      0.0019
    128  CD1       12.9970   -5.5670   32.1400 C.3   169  ILE169      0.0001
    129  N          2.9340   -2.8440   24.7950 N.3   229  ALA229     -0.1245
    130  CA         4.3600   -2.9970   25.0770 C.3   229  ALA229      0.1562
    131  C          4.8900   -4.3840   24.7170 C.2   229  ALA229      0.2260
    132  O          6.0410   -4.7000   25.0070 O.2   229  ALA229     -0.2867
    133  CB         4.6300   -2.6900   26.5430 C.3   229  ALA229      0.0290
    134  N          5.8580   -7.6980   22.0540 N.3   231  PHE231     -0.1241
    135  CA         6.2830   -8.0360   20.7010 C.3   231  PHE231      0.1605
    136  C          6.5730   -9.5230   20.5700 C.2   231  PHE231      0.2264
    137  O          7.3770  -10.0760   21.3190 O.2   231  PHE231     -0.2867
    138  CB         7.5070   -7.2430   20.2460 C.3   231  PHE231      0.0534
    139  CG         7.8580   -7.4950   18.8070 C.ar  231  PHE231     -0.0203
    140  CD1        7.1410   -6.8780   17.7920 C.ar  231  PHE231     -0.0042
    141  CD2        8.8610   -8.3950   18.4650 C.ar  231  PHE231     -0.0042
    142  CE1        7.4370   -7.1260   16.4640 C.ar  231  PHE231     -0.0003
    143  CE2        9.1620   -8.6460   17.1390 C.ar  231  PHE231     -0.0003
    144  CZ         8.4510   -8.0080   16.1350 C.ar  231  PHE231     -0.0000
    145  N          2.4460   -1.9440   16.5150 N.3   257  VAL257     -0.1231
    146  CA         3.4310   -2.9890   16.7670 C.3   257  VAL257      0.1678
    147  C          3.7300   -3.6830   15.4390 C.2   257  VAL257      0.2434
    148  O          2.8440   -4.3140   14.8720 O.2   257  VAL257     -0.2733
    149  CB         2.9060   -4.0340   17.7730 C.3   257  VAL257      0.0265
    150  CG1        3.9040   -5.1750   17.9300 C.3   257  VAL257      0.0020
    151  CG2        2.6050   -3.3890   19.1160 C.3   257  VAL257      0.0020
    152  N          4.9730   -3.5650   14.9310 N.am  258  PRO258     -0.2718
    153  CA         6.1250   -2.8550   15.5030 C.3   258  PRO258      0.1535
    154  C          6.0320   -1.3350   15.3380 C.2   258  PRO258      0.2599
    155  O          5.0160   -0.8220   14.8640 O.2   258  PRO258     -0.2715
    156  CB         7.3020   -3.4070   14.6970 C.3   258  PRO258      0.0310
    157  CG         6.7160   -3.7340   13.3650 C.3   258  PRO258      0.0237
    158  CD         5.2950   -4.1600   13.6210 C.3   258  PRO258      0.0939
    159  N          7.0800   -0.6290   15.7620 N.am  259  GLY259     -0.1941
    160  CA         7.2280    0.8010   15.4820 C.3   259  GLY259      0.2014
    161  C          6.5960    1.7420   16.4850 C.2   259  GLY259      0.2639
    162  O          6.4640    2.9350   16.2150 O.2   259  GLY259     -0.2714
    163  N          6.2260    1.2200   17.6520 N.am  260  GLY260     -0.1954
    164  CA         5.6160    2.0350   18.6990 C.3   260  GLY260      0.1869
    165  C          6.4900    2.1280   19.9360 C.2   260  GLY260      0.2309
    166  O          7.3930    2.9630   20.0160 O.2   260  GLY260     -0.2863
    167  N          8.6770   -0.0650   21.0810 N.3   262  GLY262     -0.1210
    168  CA        10.0280   -0.5980   20.8800 C.3   262  GLY262      0.1940
    169  C         11.1330    0.4300   20.6630 C.2   262  GLY262      0.2453
    170  O         12.0920    0.4800   21.4330 O.2   262  GLY262     -0.2732
    171  N         11.0190    1.2450   19.6010 N.am  263  PRO263     -0.2728
    172  CA        12.0260    2.2720   19.3140 C.3   263  PRO263      0.1401
    173  C         12.2450    3.2320   20.4810 C.2   263  PRO263      0.2269
    174  O         13.3650    3.6980   20.6960 O.2   263  PRO263     -0.2865
    175  CB        11.4400    3.0260   18.1150 C.3   263  PRO263      0.0296
    176  CG        10.4850    2.0780   17.4840 C.3   263  PRO263      0.0237
    177  CD         9.9570    1.2040   18.5790 C.3   263  PRO263      0.0939
    178  N         11.8190    2.5110   23.7120 N.3   265  THR265     -0.1203
    179  CA        12.5810    1.8020   24.7450 C.3   265  THR265      0.1994
    180  C         14.0640    2.0950   24.5270 C.2   265  THR265      0.2617
    181  O         14.7800    2.4940   25.4500 O.2   265  THR265     -0.2717
    182  CB        12.3320    0.2770   24.6830 C.3   265  THR265      0.1784
    183  OG1       10.9720    0.0020   25.0400 O.3   265  THR265     -0.2211
    184  CG2       13.2810   -0.4870   25.6180 C.3   265  THR265      0.0376
    185  N         14.5060    1.9250   23.2860 N.am  266  ILE266     -0.1979
    186  CA        15.9130    2.1040   22.9340 C.3   266  ILE266      0.1595
    187  C         16.3310    3.5640   23.0870 C.2   266  ILE266      0.2287
    188  O         17.3800    3.8510   23.6590 O.2   266  ILE266     -0.2864
    189  CB        16.2020    1.6230   21.5000 C.3   266  ILE266      0.0276
    190  CG1       16.0380    0.0990   21.4130 C.3   266  ILE266      0.0022
    191  CG2       17.6060    2.0310   21.0700 C.3   266  ILE266      0.0022
    192  CD1       16.1320   -0.4490   20.0060 C.3   266  ILE266      0.0001
@<TRIPOS>BOND
     1     7     8    1
     2     7     6    1
     3     8     9    2
     4    11     9    1
     5     9    10    1
     6     6     5    1
     7   157   158    1
     8   157   156    1
     9   158   152    1
    10     5     2    1
    11   156   153    1
    12     3     4    2
    13     3     2    1
    14   155   154    2
    15   148   147    2
    16   152   147   am
    17   152   153    1
    18     2     1    1
    19   154   153    1
    20   154   159   am
    21   147   146    1
    22   160   159    1
    23   160   161    1
    24   144   142   ar
    25   144   143   ar
    26   162   161    2
    27   142   140   ar
    28   161   163   am
    29   145   146    1
    30   146   149    1
    31   143   141   ar
    32    38    37    1
    33    18    16    1
    34    36    37    1
    35    36    35    1
    36   176   175    1
    37   176   177    1
    38    17    16    1
    39   163   164    1
    40   149   150    1
    41   149   151    1
    42   140   139   ar
    43   175   172    1
    44    16    13    1
    45   141   139   ar
    46    32    35    1
    47    32    31    1
    48    32    33    1
    49   177   171    1
    50   164   165    1
    51   139   138    1
    52    34    33    2
    53    13    14    1
    54    13    12    1
    55    15    14    2
    56   172   171    1
    57   172   173    1
    58    33    39   am
    59    14    19   am
    60   171   169   am
    61   165   166    2
    62   192   190    1
    63   138   135    1
    64    27    25   ar
    65    27    29   ar
    66   173   174    2
    67   136   135    1
    68   136   137    2
    69    39    40    1
    70   169   168    1
    71   169   170    2
    72   135   134    1
    73    19    20    1
    74    30    29    1
    75    25    24   ar
    76   168   167    1
    77   191   189    1
    78    29    28   ar
    79    41    42    2
    80    41    40    1
    81    20    21    1
    82    20    23    1
    83   190   189    1
    84   189   186    1
    85    40    43    1
    86    22    21    2
    87    24    23    1
    88    24    26   ar
    89    28    26   ar
    90   186   187    1
    91   186   185    1
    92    43    44    1
    93   187   188    2
    94   185   180   am
    95    44    45    1
    96   178   179    1
    97   180   179    1
    98   180   181    2
    99    45    46    1
   100   182   179    1
   101   182   183    1
   102   182   184    1
   103   131   132    2
   104   131   130    1
   105   129   130    1
   106    46    47    1
   107   130   133    1
   108    72    70   am
   109    70    71    2
   110    70    69    1
   111    69    68    1
   112    55    53    1
   113   119   118    1
   114   120   118    1
   115    68    65    1
   116   117   116    2
   117   118   115    1
   118   115   116    1
   119   115   114    1
   120   112   111    2
   121    76    75    2
   122    53    54    1
   123    53    52    1
   124   113   110    1
   125   111   114   am
   126   111   110    1
   127    52    49    1
   128    65    66    1
   129    65    64    1
   130   110   109    1
   131   100    99   ar
   132    75    74    1
   133    66    67    2
   134    66    73   am
   135    64    58   am
   136    73    74    1
   137    51    50    2
   138    99   101   ar
   139    99    98    1
   140    49    50    1
   141    49    48    1
   142    74    77    1
   143    80    82   ar
   144    80    78   ar
   145    50    56   am
   146    58    59    2
   147    58    57    1
   148    98    95    1
   149    77    78    1
   150    82    81   ar
   151    56    57    1
   152    78    79   ar
   153    57    60    1
   154    95    94    1
   155    95    96    1
   156   128   126    1
   157    97    96    2
   158   126   125    1
   159    81    79   ar
   160   124   123    2
   161    62    61    1
   162    60    61    1
   163    61    63    1
   164   123   122    1
   165   125   122    1
   166   125   127    1
   167   107   106    1
   168   122   121    1
   169    91    93   ar
   170    91    89   ar
   171    93    92   ar
   172   106   108    1
   173   106   103    1
   174    89    88   ar
   175   102   103    1
   176    92    90   ar
   177   103   104    1
   178    88    90   ar
   179    88    87    1
   180   104   105    2
   181    87    84    1
   182    84    83    1
   183    84    85    1
   184    86    85    2
