@<TRIPOS>MOLECULE
tmp/4b4xA00.pdb
 73 67 0 0 0
SMALL
GASTEIGER

@<TRIPOS>ATOM
      1  N         -1.5730   -5.7410   33.8010 N.3    49  SER49      -0.1217
      2  CA        -0.6080   -5.8190   34.8770 C.3    49  SER49       0.1889
      3  C         -0.1580   -7.2130   35.2540 C.2    49  SER49       0.2288
      4  O          0.6270   -7.3710   36.1710 O.2    49  SER49      -0.2866
      5  CB        -1.0640   -5.0100   36.0780 C.3    49  SER49       0.2089
      6  OG        -0.8370   -3.6440   35.7890 O.3    49  SER49      -0.2183
      7  N         -2.1250    9.9710   29.3710 N.3   142  ASP142     -0.1239
      8  CA        -1.7760    9.2970   30.6260 C.3   142  ASP142      0.1674
      9  C         -0.6850   10.0430   31.4350 C.2   142  ASP142      0.2266
     10  O         -0.5370    9.8620   32.6420 O.2   142  ASP142     -0.2867
     11  CB        -1.2580    7.8920   30.3260 C.3   142  ASP142      0.1410
     12  CG        -2.3600    6.8570   30.2070 C.2   142  ASP142      0.3668
     13  OD1       -3.5290    7.1800   30.5280 O.co2 142  ASP142     -0.2456
     14  OD2       -2.0440    5.7060   29.8140 O.co2 142  ASP142     -0.2456
     15  N          0.7490    6.3630   37.4110 N.3   147  TYR147     -0.1241
     16  CA         1.0210    5.1170   36.7030 C.3   147  TYR147      0.1605
     17  C          1.7930    5.3790   35.4130 C.2   147  TYR147      0.2264
     18  O          2.4230    4.4780   34.8740 O.2   147  TYR147     -0.2867
     19  CB        -0.2860    4.3130   36.4570 C.3   147  TYR147      0.0534
     20  CG        -1.3900    5.1350   35.8270 C.ar  147  TYR147     -0.0201
     21  CD1       -2.2920    5.8550   36.6320 C.ar  147  TYR147     -0.0009
     22  CD2       -1.5080    5.2370   34.4360 C.ar  147  TYR147     -0.0009
     23  CE1       -3.2860    6.6300   36.0720 C.ar  147  TYR147      0.0417
     24  CE2       -2.4860    6.0040   33.8710 C.ar  147  TYR147      0.0417
     25  CZ        -3.3790    6.7010   34.6890 C.ar  147  TYR147      0.1957
     26  OH        -4.3690    7.4810   34.1360 O.3   147  TYR147     -0.2866
     27  N          0.5200   -2.8670   42.4720 N.3   298  SER298     -0.1217
     28  CA         0.8090   -2.8130   41.0410 C.3   298  SER298      0.1889
     29  C          1.5530   -1.5060   40.6640 C.2   298  SER298      0.2288
     30  O          1.0390   -0.6680   39.9090 O.2   298  SER298     -0.2866
     31  CB        -0.5060   -2.9760   40.2490 C.3   298  SER298      0.2089
     32  OG        -0.3080   -3.3840   38.9060 O.3   298  SER298     -0.2183
     33  N          3.8010    0.6100   38.4620 N.3   300  ASN300     -0.1240
     34  CA         4.3800    0.6430   37.1260 C.3   300  ASN300      0.1653
     35  C          5.8200    1.1080   37.1650 C.2   300  ASN300      0.2266
     36  O          6.7160    0.4070   36.6650 O.2   300  ASN300     -0.2867
     37  CB         3.6170    1.5910   36.2010 C.3   300  ASN300      0.1155
     38  CG         2.2480    1.1190   35.8710 C.2   300  ASN300      0.2627
     39  OD1        1.9030   -0.0950   35.9310 O.2   300  ASN300     -0.2716
     40  ND2        1.4440    2.0700   35.4800 N.am  300  ASN300     -0.0877
     41  N          5.8600   -3.1200   33.1020 N.3   347  SER347     -0.1202
     42  CA         4.6210   -2.9960   33.8760 C.3   347  SER347      0.2020
     43  C          3.3830   -3.6550   33.2860 C.2   347  SER347      0.2619
     44  O          2.4960   -4.0760   34.0180 O.2   347  SER347     -0.2717
     45  CB         4.3110   -1.5230   34.1650 C.3   347  SER347      0.2103
     46  OG         3.9670   -0.8090   32.9920 O.3   347  SER347     -0.2182
     47  N          3.3160   -3.7280   31.9630 N.am  348  GLY348     -0.1942
     48  CA         2.1270   -4.1990   31.2790 C.3   348  GLY348      0.2014
     49  C          1.2870   -3.0040   30.8910 C.2   348  GLY348      0.2638
     50  O          0.1370   -3.1790   30.5020 O.2   348  GLY348     -0.2714
     51  N          1.8570   -1.7940   31.0170 N.am  349  LEU349     -0.1977
     52  CA         1.1780   -0.5610   30.6100 C.3   349  LEU349      0.1596
     53  C          1.0740   -0.4870   29.0870 C.2   349  LEU349      0.2287
     54  O          0.0440   -0.0420   28.5460 O.2   349  LEU349     -0.2864
     55  CB         1.9040    0.6770   31.1170 C.3   349  LEU349      0.0297
     56  CG         1.1690    1.9580   31.5590 C.3   349  LEU349      0.0022
     57  CD1        2.2290    2.9900   31.8160 C.3   349  LEU349      0.0001
     58  CD2        0.0960    2.5380   30.6190 C.3   349  LEU349      0.0001
     59  N         -5.2540   -4.9360   34.7640 N.3   413  THR413     -0.1203
     60  CA        -6.3770   -4.0870   34.4120 C.3   413  THR413      0.1994
     61  C         -6.0780   -2.7800   33.6210 C.2   413  THR413      0.2617
     62  O         -5.2490   -1.9480   34.0210 O.2   413  THR413     -0.2717
     63  CB        -7.2240   -3.7590   35.6610 C.3   413  THR413      0.1784
     64  OG1       -8.1950   -2.7670   35.3230 O.3   413  THR413     -0.2211
     65  CG2       -6.3540   -3.2430   36.8010 C.3   413  THR413      0.0376
     66  N         -6.7680   -2.6190   32.4970 N.am  414  MET414     -0.1979
     67  CA        -6.8180   -1.3460   31.7570 C.3   414  MET414      0.1605
     68  C         -7.9940   -1.4250   30.8170 C.2   414  MET414      0.2287
     69  O         -8.6630   -2.4600   30.7710 O.2   414  MET414     -0.2864
     70  CB        -5.5260   -1.0560   30.9870 C.3   414  MET414      0.0413
     71  CG        -4.8900   -2.2730   30.3430 C.3   414  MET414      0.0598
     72  SD        -3.2810   -1.9740   29.5600 S.3   414  MET414     -0.1393
     73  CE        -3.4030   -3.2840   28.3400 C.3   414  MET414      0.0692
@<TRIPOS>BOND
     1    73    72    1
     2    54    53    2
     3    53    52    1
     4     7     8    1
     5    72    71    1
     6    14    12   ar
     7    12    11    1
     8    12    13   ar
     9    11     8    1
    10    71    70    1
    11    50    49    2
    12    52    51    1
    13    52    55    1
    14    58    56    1
    15     8     9    1
    16    69    68    2
    17    68    67    1
    18    49    51   am
    19    49    48    1
    20    70    67    1
    21    55    56    1
    22    48    47    1
    23     9    10    2
    24    56    57    1
    25    67    66    1
    26    47    43   am
    27    66    61   am
    28    46    45    1
    29    41    42    1
    30    43    42    1
    31    43    44    2
    32    61    62    2
    33    61    60    1
    34     1     2    1
    35    24    22   ar
    36    24    25   ar
    37    42    45    1
    38    26    25    1
    39    60    59    1
    40    60    63    1
    41    22    20   ar
    42    25    23   ar
    43    18    17    2
    44     2     3    1
    45     2     5    1
    46     3     4    2
    47    64    63    1
    48    17    16    1
    49    40    38   am
    50    63    65    1
    51     6     5    1
    52    20    19    1
    53    20    21   ar
    54    38    39    2
    55    38    37    1
    56    23    21   ar
    57    37    34    1
    58    19    16    1
    59    36    35    2
    60    16    15    1
    61    34    35    1
    62    34    33    1
    63    32    31    1
    64    30    29    2
    65    31    28    1
    66    29    28    1
    67    28    27    1
