@<TRIPOS>MOLECULE
tmp/4b4yA00.pdb
 208 202 0 0 0
SMALL
GASTEIGER

@<TRIPOS>ATOM
      1  N         39.7200   19.7850   15.2370 N.3    34  PHE34      -0.1241
      2  CA        40.7790   20.6710   14.7010 C.3    34  PHE34       0.1605
      3  C         40.2740   21.4330   13.4490 C.2    34  PHE34       0.2264
      4  O         40.5290   22.6470   13.2970 O.2    34  PHE34      -0.2867
      5  CB        41.9730   19.8320   14.3050 C.3    34  PHE34       0.0534
      6  CG        43.1580   20.6040   13.7680 C.ar   34  PHE34      -0.0203
      7  CD1       43.7070   21.6410   14.4470 C.ar   34  PHE34      -0.0042
      8  CD2       43.7510   20.2150   12.5700 C.ar   34  PHE34      -0.0042
      9  CE1       44.8570   22.3280   13.9350 C.ar   34  PHE34      -0.0003
     10  CE2       44.8750   20.8390   12.0710 C.ar   34  PHE34      -0.0003
     11  CZ        45.4310   21.8970   12.7140 C.ar   34  PHE34      -0.0000
     12  N         42.2150   24.9520    7.5930 N.3    41  THR41      -0.1218
     13  CA        42.7810   23.6520    7.2900 C.3    41  THR41       0.1862
     14  C         42.1120   23.0220    6.0650 C.2    41  THR41       0.2287
     15  O         42.5670   21.9880    5.5060 O.2    41  THR41      -0.2866
     16  CB        42.5140   22.6730    8.4740 C.3    41  THR41       0.1770
     17  OG1       41.1240   22.6950    8.6940 O.3    41  THR41      -0.2211
     18  CG2       43.1870   23.1340    9.7590 C.3    41  THR41       0.0375
     19  N         44.5100   23.8790    3.5460 N.3    44  ILE44      -0.1231
     20  CA        45.8380   23.2580    3.7360 C.3    44  ILE44       0.1692
     21  C         45.8300   21.7250    3.4760 C.2    44  ILE44       0.2592
     22  O         46.6820   21.2180    2.7790 O.2    44  ILE44      -0.2718
     23  CB        46.3350   23.5710    5.1500 C.3    44  ILE44       0.0266
     24  CG1       46.4310   25.1020    5.3030 C.3    44  ILE44       0.0019
     25  CG2       47.6810   22.9510    5.3950 C.3    44  ILE44       0.0020
     26  CD1       46.4070   25.5880    6.8190 C.3    44  ILE44       0.0001
     27  N         44.8370   20.9850    3.9780 N.am   45  PHE45      -0.1963
     28  CA        44.7130   19.6050    3.6550 C.3    45  PHE45       0.1756
     29  C         44.1720   19.5090    2.2120 C.2    45  PHE45       0.2461
     30  O         43.0640   19.9290    1.9100 O.2    45  PHE45      -0.2730
     31  CB        43.7490   18.9070    4.5920 C.3    45  PHE45       0.0574
     32  CG        44.2440   18.7700    6.0270 C.ar   45  PHE45      -0.0200
     33  CD1       45.4230   18.0650    6.3090 C.ar   45  PHE45      -0.0042
     34  CD2       43.4600   19.2420    7.0850 C.ar   45  PHE45      -0.0042
     35  CE1       45.8960   17.8910    7.6300 C.ar   45  PHE45      -0.0003
     36  CE2       43.8790   19.0990    8.4420 C.ar   45  PHE45      -0.0003
     37  CZ        45.0750   18.4120    8.7360 C.ar   45  PHE45      -0.0000
     38  N         44.9430   18.8880    1.3130 N.am   46  PRO46      -0.2716
     39  CA        44.4640   18.9010   -0.0800 C.3    46  PRO46       0.1536
     40  C         43.2140   18.0970   -0.2530 C.2    46  PRO46       0.2598
     41  O         42.4310   18.4470   -1.0810 O.2    46  PRO46      -0.2715
     42  CB        45.6030   18.2080   -0.8970 C.3    46  PRO46       0.0310
     43  CG        46.8170   18.1860    0.0810 C.3    46  PRO46       0.0237
     44  CD        46.2120   18.1540    1.4960 C.3    46  PRO46       0.0939
     45  N         43.0440   17.0120    0.4810 N.am   47  TRP47      -0.1974
     46  CA        41.8920   16.1990    0.3150 C.3    47  TRP47       0.1640
     47  C         40.6280   16.7670    0.9330 C.2    47  TRP47       0.2290
     48  O         39.5270   16.1750    0.7860 O.2    47  TRP47      -0.2864
     49  CB        42.1900   14.8650    0.9550 C.3    47  TRP47       0.0576
     50  CG        42.7930   15.0080    2.2970 C.ar   47  TRP47       0.0006
     51  CD1       44.1350   14.9730    2.6200 C.ar   47  TRP47       0.0946
     52  CD2       42.0670   15.2340    3.5520 C.ar   47  TRP47       0.0152
     53  NE1       44.2660   15.1130    4.0450 N.ar   47  TRP47      -0.2442
     54  CE2       43.0240   15.2640    4.6070 C.ar   47  TRP47       0.0810
     55  CE3       40.7060   15.3540    3.8770 C.ar   47  TRP47       0.0012
     56  CZ2       42.6540   15.4750    5.9590 C.ar   47  TRP47       0.0191
     57  CZ3       40.3470   15.5430    5.2020 C.ar   47  TRP47       0.0001
     58  CH2       41.3180   15.5900    6.2330 C.ar   47  TRP47       0.0015
     59  N         43.7990    9.7990    6.4490 N.3    66  HIS66      -0.1241
     60  CA        44.7480   10.7790    7.1000 C.3    66  HIS66       0.1621
     61  C         44.7710   10.6360    8.6690 C.2    66  HIS66       0.2264
     62  O         45.7750   10.7220    9.3130 O.2    66  HIS66      -0.2867
     63  CB        44.4040   12.2290    6.6850 C.3    66  HIS66       0.0745
     64  CG        45.4050   13.2260    7.1750 C.ar   66  HIS66       0.0817
     65  ND1       46.6010   13.4520    6.5230 N.ar   66  HIS66      -0.2268
     66  CD2       45.4050   14.0360    8.2680 C.ar   66  HIS66       0.1154
     67  CE1       47.3160   14.3280    7.2160 C.ar   66  HIS66       0.1986
     68  NE2       46.6170   14.6980    8.2780 N.ar   66  HIS66      -0.2212
     69  N         46.9140    7.7090    9.6480 N.3    69  SER69      -0.1202
     70  CA        48.3440    8.0030    9.4990 C.3    69  SER69       0.2020
     71  C         48.8320    8.8320   10.5730 C.2    69  SER69       0.2618
     72  O         49.8830    8.5150   11.1300 O.2    69  SER69      -0.2717
     73  CB        48.7210    8.6880    8.1380 C.3    69  SER69       0.2103
     74  OG        48.2430    7.8850    7.0680 O.3    69  SER69      -0.2182
     75  N         48.1750    9.9550   10.9110 N.am   70  ILE70      -0.1979
     76  CA        48.7590   10.7170   12.0370 C.3    70  ILE70       0.1595
     77  C         48.6400    9.9260   13.3440 C.2    70  ILE70       0.2287
     78  O         49.4990   10.0340   14.2270 O.2    70  ILE70      -0.2864
     79  CB        48.1690   12.1180   12.2140 C.3    70  ILE70       0.0276
     80  CG1       46.7330   12.0780   12.6510 C.3    70  ILE70       0.0022
     81  CG2       48.2250   12.9680   10.8890 C.3    70  ILE70       0.0022
     82  CD1       46.1000   13.5230   12.5350 C.3    70  ILE70       0.0001
     83  N         51.8760    7.6230   13.8200 N.3    73  VAL73      -0.1231
     84  CA        53.0030    8.4310   14.3200 C.3    73  VAL73       0.1692
     85  C         52.8170    8.8460   15.7610 C.2    73  VAL73       0.2591
     86  O         53.7050    8.7140   16.6070 O.2    73  VAL73      -0.2718
     87  CB        53.2380    9.7260   13.4290 C.3    73  VAL73       0.0266
     88  CG1       54.2380   10.6080   14.0980 C.3    73  VAL73       0.0020
     89  CG2       53.7760    9.2880   12.0580 C.3    73  VAL73       0.0020
     90  N         51.6380    9.3410   16.1080 N.am   74  ILE74      -0.1980
     91  CA        51.4740    9.7460   17.5180 C.3    74  ILE74       0.1595
     92  C         51.6230    8.4720   18.4560 C.2    74  ILE74       0.2287
     93  O         52.2380    8.5230   19.4780 O.2    74  ILE74      -0.2864
     94  CB        50.0890   10.3950   17.6970 C.3    74  ILE74       0.0276
     95  CG1       50.0400   11.8220   17.0340 C.3    74  ILE74       0.0022
     96  CG2       49.6690   10.3530   19.1020 C.3    74  ILE74       0.0022
     97  CD1       48.5700   12.3440   16.8420 C.3    74  ILE74       0.0001
     98  N         58.2900   13.6890    6.5030 N.3    94  LEU94      -0.1245
     99  CA        57.2780   14.5850    7.1200 C.3    94  LEU94       0.1561
    100  C         57.6970   16.0330    7.2140 C.2    94  LEU94       0.2260
    101  O         56.8630   16.8930    7.1050 O.2    94  LEU94      -0.2867
    102  CB        56.8290   14.1360    8.5320 C.3    94  LEU94       0.0270
    103  CG        56.4040   12.6870    8.6130 C.3    94  LEU94       0.0019
    104  CD1       55.8170   12.3770    9.9480 C.3    94  LEU94       0.0001
    105  CD2       55.4580   12.2550    7.4730 C.3    94  LEU94       0.0001
    106  N         56.5530   18.3670    4.5180 N.3    97  MET97      -0.1230
    107  CA        55.1470   18.6950    4.5380 C.3    97  MET97       0.1702
    108  C         54.8200   19.7030    5.6320 C.2    97  MET97       0.2592
    109  O         53.8160   20.3610    5.5540 O.2    97  MET97      -0.2718
    110  CB        54.2330   17.4560    4.6710 C.3    97  MET97       0.0401
    111  CG        54.5860   16.3150    3.6370 C.3    97  MET97       0.0596
    112  SD        53.8780   14.7820    4.1550 S.3    97  MET97      -0.1393
    113  CE        55.0810   13.8000    3.3320 C.3    97  MET97       0.0692
    114  N         55.7050   19.9430    6.5650 N.am   98  HIS98      -0.1976
    115  CA        55.2880   20.6860    7.7500 C.3    98  HIS98       0.1656
    116  C         56.1140   21.9210    7.9440 C.2    98  HIS98       0.2291
    117  O         56.2200   22.4180    9.0900 O.2    98  HIS98      -0.2864
    118  CB        55.2860   19.7730    9.0070 C.3    98  HIS98       0.0771
    119  CG        54.1800   18.7350    9.0100 C.ar   98  HIS98       0.0820
    120  ND1       54.3860   17.4010    8.6860 N.ar   98  HIS98      -0.2267
    121  CD2       52.8580   18.8360    9.3480 C.ar   98  HIS98       0.1154
    122  CE1       53.2410   16.7330    8.8280 C.ar   98  HIS98       0.1986
    123  NE2       52.2930   17.5780    9.2450 N.ar   98  HIS98      -0.2212
    124  N         54.4230   26.0010    4.5360 N.3   102  LYS102     -0.1231
    125  CA        53.2150   25.1810    4.2050 C.3   102  LYS102      0.1693
    126  C         52.2200   25.0920    5.3560 C.2   102  LYS102      0.2591
    127  O         51.0110   24.9880    5.1320 O.2   102  LYS102     -0.2718
    128  CB        53.5740   23.7710    3.7490 C.3   102  LYS102      0.0285
    129  CG        54.3690   23.7230    2.4180 C.3   102  LYS102      0.0035
    130  CD        54.7420   22.2770    2.0370 C.3   102  LYS102      0.0206
    131  CE        55.7980   22.2180    0.9200 C.3   102  LYS102      0.1093
    132  NZ        55.7070   20.9210    0.2900 N.3   102  LYS102     -0.1314
    133  N         52.7160   25.1100    6.5910 N.am  103  VAL103     -0.1980
    134  CA        51.7970   24.9770    7.7270 C.3   103  VAL103      0.1595
    135  C         52.0760   26.1350    8.7010 C.2   103  VAL103      0.2287
    136  O         53.1380   26.1910    9.3230 O.2   103  VAL103     -0.2864
    137  CB        51.9580   23.6440    8.4460 C.3   103  VAL103      0.0276
    138  CG1       51.0810   23.6150    9.7060 C.3   103  VAL103      0.0022
    139  CG2       51.7290   22.5010    7.5070 C.3   103  VAL103      0.0022
    140  N         49.3050   26.7670   14.1600 N.3   107  LEU107     -0.1231
    141  CA        48.4180   25.5910   14.1340 C.3   107  LEU107      0.1693
    142  C         48.9070   24.3470   14.9160 C.2   107  LEU107      0.2592
    143  O         48.0970   23.5020   15.3250 O.2   107  LEU107     -0.2718
    144  CB        48.0860   25.2010   12.6950 C.3   107  LEU107      0.0284
    145  CG        47.1640   26.2010   11.9100 C.3   107  LEU107      0.0019
    146  CD1       46.9800   25.6670   10.4670 C.3   107  LEU107      0.0001
    147  CD2       45.8000   26.2390   12.5650 C.3   107  LEU107      0.0001
    148  N         50.2090   24.1950   15.1030 N.am  108  PHE108     -0.1976
    149  CA        50.7020   23.0970   15.9630 C.3   108  PHE108      0.1639
    150  C         50.1110   23.2240   17.3810 C.2   108  PHE108      0.2290
    151  O         49.5950   22.2590   17.9290 O.2   108  PHE108     -0.2864
    152  CB        52.2760   23.0260   15.9650 C.3   108  PHE108      0.0560
    153  CG        52.8160   22.2740   14.7600 C.ar  108  PHE108     -0.0200
    154  CD1       52.8950   20.8920   14.7780 C.ar  108  PHE108     -0.0042
    155  CD2       53.1160   22.9370   13.5800 C.ar  108  PHE108     -0.0042
    156  CE1       53.3100   20.2010   13.6530 C.ar  108  PHE108     -0.0003
    157  CE2       53.5900   22.2570   12.4390 C.ar  108  PHE108     -0.0003
    158  CZ        53.6690   20.9000   12.4790 C.ar  108  PHE108     -0.0000
    159  N         46.3410   22.2580   17.3430 N.3   111  LEU111     -0.1245
    160  CA        46.1470   20.8360   17.2290 C.3   111  LEU111      0.1561
    161  C         46.5130   20.2500   18.6110 C.2   111  LEU111      0.2260
    162  O         45.8310   19.3880   19.1040 O.2   111  LEU111     -0.2867
    163  CB        47.0530   20.2130   16.1460 C.3   111  LEU111      0.0270
    164  CG        46.9270   18.6620   15.9920 C.3   111  LEU111      0.0019
    165  CD1       45.5410   18.1260   15.5780 C.3   111  LEU111      0.0001
    166  CD2       47.9590   18.0760   14.9990 C.3   111  LEU111      0.0001
    167  N         44.0920   17.6390   20.8750 N.3   115  ILE115     -0.1245
    168  CA        44.4710   16.2940   21.4210 C.3   115  ILE115      0.1561
    169  C         44.1470   16.3190   22.9110 C.2   115  ILE115      0.2260
    170  O         43.4400   15.4650   23.3960 O.2   115  ILE115     -0.2867
    171  CB        45.9740   16.0240   21.1440 C.3   115  ILE115      0.0252
    172  CG1       46.1300   15.7440   19.6110 C.3   115  ILE115      0.0019
    173  CG2       46.4080   14.8170   21.9570 C.3   115  ILE115      0.0019
    174  CD1       47.5650   15.9430   19.1120 C.3   115  ILE115      0.0001
    175  N         53.5090   16.1210   23.5310 N.3   140  TYR140     -0.1241
    176  CA        53.0900   16.7350   22.2610 C.3   140  TYR140      0.1605
    177  C         54.2280   17.5560   21.6740 C.2   140  TYR140      0.2264
    178  O         54.4710   17.5710   20.4660 O.2   140  TYR140     -0.2867
    179  CB        51.8100   17.6150   22.4260 C.3   140  TYR140      0.0534
    180  CG        51.4070   18.1640   21.0980 C.ar  140  TYR140     -0.0201
    181  CD1       50.9070   17.3330   20.1160 C.ar  140  TYR140     -0.0009
    182  CD2       51.5990   19.5270   20.8060 C.ar  140  TYR140     -0.0009
    183  CE1       50.5530   17.8360   18.8530 C.ar  140  TYR140      0.0417
    184  CE2       51.2110   20.0440   19.6220 C.ar  140  TYR140      0.0417
    185  CZ        50.6930   19.2080   18.6330 C.ar  140  TYR140      0.1957
    186  OH        50.3680   19.7910   17.4360 O.3   140  TYR140     -0.2866
    187  N         56.6590   15.1320   19.9410 N.3   143  ILE143     -0.1231
    188  CA        56.0620   14.6700   18.6730 C.3   143  ILE143      0.1692
    189  C         56.1440   15.8030   17.5800 C.2   143  ILE143      0.2592
    190  O         56.4910   15.5620   16.4050 O.2   143  ILE143     -0.2718
    191  CB        54.6200   14.2140   18.8990 C.3   143  ILE143      0.0266
    192  CG1       54.5810   12.9810   19.8260 C.3   143  ILE143      0.0019
    193  CG2       53.9040   13.9730   17.5470 C.3   143  ILE143      0.0020
    194  CD1       53.1990   12.5480   20.2510 C.3   143  ILE143      0.0001
    195  N         55.9180   17.0400   18.0110 N.am  144  THR144     -0.1953
    196  CA        56.0420   18.1900   17.1700 C.3   144  THR144      0.1897
    197  C         57.3870   18.3450   16.5000 C.2   144  THR144      0.2313
    198  O         57.4650   18.5780   15.2630 O.2   144  THR144     -0.2863
    199  CB        55.6620   19.4580   17.9550 C.3   144  THR144      0.1794
    200  OG1       54.2800   19.3420   18.2300 O.3   144  THR144     -0.2208
    201  CG2       55.9250   20.7550   17.0640 C.3   144  THR144      0.0378
    202  N         58.1580   15.8230   13.7730 N.3   147  VAL147     -0.1245
    203  CA        57.4230   15.8800   12.5310 C.3   147  VAL147      0.1561
    204  C         57.8930   17.1040   11.7250 C.2   147  VAL147      0.2260
    205  O         57.6640   17.1970   10.5240 O.2   147  VAL147     -0.2867
    206  CB        55.9640   15.8670   12.9030 C.3   147  VAL147      0.0252
    207  CG1       55.2350   17.0600   12.3970 C.3   147  VAL147      0.0019
    208  CG2       55.3640   14.5300   12.5560 C.3   147  VAL147      0.0019
@<TRIPOS>BOND
     1    41    40    2
     2    42    39    1
     3    42    43    1
     4    40    39    1
     5    40    45   am
     6    39    38    1
     7    43    44    1
     8   132   131    1
     9    46    45    1
    10    46    47    1
    11    46    49    1
    12    48    47    2
    13   131   130    1
    14    49    50    1
    15    38    44    1
    16    38    29   am
    17    30    29    2
    18   130   129    1
    19    29    28    1
    20    50    51   ar
    21    50    52   ar
    22   129   128    1
    23    51    53   ar
    24    22    21    2
    25   113   112    1
    26    21    20    1
    27    21    27   am
    28    19    20    1
    29    52    55   ar
    30    52    54   ar
    31   111   112    1
    32   111   110    1
    33    28    27    1
    34    28    31    1
    35    20    23    1
    36   128   125    1
    37    55    57   ar
    38    53    54   ar
    39   125   124    1
    40   125   126    1
    41   106   107    1
    42   107   110    1
    43   107   108    1
    44    31    32    1
    45    54    56   ar
    46   127   126    2
    47    23    24    1
    48    23    25    1
    49    57    58   ar
    50    24    26    1
    51   126   133   am
    52    15    14    2
    53   109   108    2
    54   108   114   am
    55    56    58   ar
    56    32    33   ar
    57    32    34   ar
    58    14    13    1
    59    33    35   ar
    60    59    60    1
    61    98    99    1
    62    65    64   ar
    63    65    67   ar
    64   114   115    1
    65   133   134    1
    66    63    60    1
    67    63    64    1
    68    74    73    1
    69    34    36   ar
    70    60    61    1
    71   101   100    2
    72    99   100    1
    73    99   102    1
    74    64    66   ar
    75    67    68   ar
    76    13    12    1
    77    13    16    1
    78   105   103    1
    79   139   137    1
    80    35    37   ar
    81   134   137    1
    82   134   135    1
    83   115   116    1
    84   115   118    1
    85   116   117    2
    86    73    70    1
    87    66    68   ar
    88    36    37   ar
    89   137   138    1
    90    16    17    1
    91    16    18    1
    92   102   103    1
    93   103   104    1
    94    61    62    2
    95   120   122   ar
    96   120   119   ar
    97   135   136    2
    98   122   123   ar
    99   118   119    1
   100   119   121   ar
   101   123   121   ar
   102    70    69    1
   103    70    71    1
   104   146   145    1
   105   205   204    2
   106    71    75   am
   107    71    72    2
   108    81    79    1
   109    75    76    1
   110   204   203    1
   111   145   147    1
   112   145   144    1
   113    76    79    1
   114    76    77    1
   115    89    87    1
   116    10     8   ar
   117    10    11   ar
   118    79    80    1
   119   207   206    1
   120   157   158   ar
   121   157   155   ar
   122   158   156   ar
   123   203   206    1
   124   203   202    1
   125    82    80    1
   126   208   206    1
   127     8     6   ar
   128   144   141    1
   129    11     9   ar
   130     4     3    2
   131    77    78    2
   132    87    88    1
   133    87    84    1
   134     3     2    1
   135   155   153   ar
   136   156   154   ar
   137     6     5    1
   138     6     7   ar
   139    83    84    1
   140     9     7   ar
   141   141   140    1
   142   141   142    1
   143     5     2    1
   144    84    85    1
   145     2     1    1
   146   153   154   ar
   147   153   152    1
   148   142   148   am
   149   142   143    2
   150   166   164    1
   151   148   149    1
   152   198   197    2
   153   165   164    1
   154    85    90   am
   155    85    86    2
   156   149   152    1
   157   149   150    1
   158   164   163    1
   159    90    91    1
   160   163   160    1
   161   190   189    2
   162   197   196    1
   163    97    95    1
   164    95    94    1
   165   201   199    1
   166   196   199    1
   167   196   195    1
   168   160   159    1
   169   160   161    1
   170   150   151    2
   171   186   185    1
   172    91    94    1
   173    91    92    1
   174   193   191    1
   175   189   195   am
   176   189   188    1
   177    94    96    1
   178   199   200    1
   179    92    93    2
   180   161   162    2
   181   185   183   ar
   182   185   184   ar
   183   188   191    1
   184   188   187    1
   185   183   181   ar
   186   191   192    1
   187   174   172    1
   188   172   171    1
   189   184   182   ar
   190   192   194    1
   191   181   180   ar
   192   178   177    2
   193   182   180   ar
   194   167   168    1
   195   180   179    1
   196   171   168    1
   197   171   173    1
   198   168   169    1
   199   177   176    1
   200   176   179    1
   201   176   175    1
   202   169   170    2
