@<TRIPOS>MOLECULE
tmp/4b4zA00.pdb
 96 91 0 0 0
SMALL
GASTEIGER

@<TRIPOS>ATOM
      1  N         -1.3230   -6.4110   30.7330 N.3    48  ALA48      -0.1231
      2  CA        -1.3350   -5.2750   31.6390 C.3    48  ALA48       0.1694
      3  C         -0.2760   -5.5620   32.7200 C.2    48  ALA48       0.2592
      4  O          0.7870   -6.1140   32.4070 O.2    48  ALA48      -0.2718
      5  CB        -2.7470   -5.0690   32.2480 C.3    48  ALA48       0.0304
      6  N         -0.5870   -5.2540   33.9750 N.am   49  SER49      -0.1952
      7  CA         0.3330   -5.4060   35.1040 C.3    49  SER49       0.1924
      8  C          0.8900   -6.8240   35.3680 C.2    49  SER49       0.2314
      9  O          1.8450   -6.9810   36.1280 O.2    49  SER49      -0.2863
     10  CB        -0.3510   -4.8930   36.3570 C.3    49  SER49       0.2116
     11  OG         0.5790   -4.5220   37.3500 O.3    49  SER49      -0.2180
     12  N          4.5230   -7.5210   35.1700 N.3    52  LYS52      -0.1245
     13  CA         5.3840   -7.4160   36.3630 C.3    52  LYS52       0.1561
     14  C          5.8830   -8.7550   36.8860 C.2    52  LYS52       0.2260
     15  O          6.9650   -8.8180   37.4520 O.2    52  LYS52      -0.2867
     16  CB         4.7240   -6.6090   37.4920 C.3    52  LYS52       0.0271
     17  CG         4.5580   -5.1410   37.1240 C.3    52  LYS52       0.0035
     18  CD         3.8710   -4.3330   38.2190 C.3    52  LYS52       0.0206
     19  CE         3.7420   -2.8600   37.8150 C.3    52  LYS52       0.1093
     20  NZ         2.5760   -2.6900   36.8840 N.3    52  LYS52      -0.1314
     21  N          0.7900    9.0950   38.4850 N.3   146  ALA146     -0.1231
     22  CA         1.9050    8.4360   39.1580 C.3   146  ALA146      0.1694
     23  C          2.4210    7.1930   38.4590 C.2   146  ALA146      0.2592
     24  O          3.6310    6.9480   38.4250 O.2   146  ALA146     -0.2718
     25  CB         1.5390    8.1050   40.5930 C.3   146  ALA146      0.0304
     26  N          1.5020    6.4210   37.8960 N.am  147  TYR147     -0.1976
     27  CA         1.8370    5.1580   37.2500 C.3   147  TYR147      0.1639
     28  C          2.5350    5.3610   35.9030 C.2   147  TYR147      0.2290
     29  O          3.0330    4.4050   35.3060 O.2   147  TYR147     -0.2864
     30  CB         0.5810    4.3000   37.0840 C.3   147  TYR147      0.0560
     31  CG        -0.4080    4.8980   36.1160 C.ar  147  TYR147     -0.0198
     32  CD1       -0.2560    4.7080   34.7490 C.ar  147  TYR147     -0.0009
     33  CD2       -1.4740    5.6740   36.5640 C.ar  147  TYR147     -0.0009
     34  CE1       -1.1350    5.2580   33.8480 C.ar  147  TYR147      0.0417
     35  CE2       -2.3710    6.2360   35.6670 C.ar  147  TYR147      0.0417
     36  CZ        -2.1890    6.0160   34.3060 C.ar  147  TYR147      0.1957
     37  OH        -3.0530    6.5480   33.3900 O.3   147  TYR147     -0.2866
     38  N          1.4210   -3.2390   45.1570 N.3   297  PHE297     -0.1227
     39  CA         0.6900   -2.0620   44.6750 C.3   297  PHE297      0.1736
     40  C          0.8550   -1.8510   43.1900 C.2   297  PHE297      0.2596
     41  O          0.2430   -0.9500   42.6230 O.2   297  PHE297     -0.2718
     42  CB         1.1070   -0.8140   45.4500 C.3   297  PHE297      0.0547
     43  CG         0.9580   -0.9650   46.9350 C.ar  297  PHE297     -0.0202
     44  CD1       -0.3100   -1.1140   47.5080 C.ar  297  PHE297     -0.0042
     45  CD2        2.0760   -1.0050   47.7610 C.ar  297  PHE297     -0.0042
     46  CE1       -0.4500   -1.2720   48.8940 C.ar  297  PHE297     -0.0003
     47  CE2        1.9410   -1.1520   49.1380 C.ar  297  PHE297     -0.0003
     48  CZ         0.6720   -1.2840   49.7050 C.ar  297  PHE297     -0.0000
     49  N          1.6620   -2.7090   42.5680 N.am  298  SER298     -0.1952
     50  CA         1.8840   -2.6880   41.1260 C.3   298  SER298      0.1924
     51  C          2.5690   -1.3900   40.6960 C.2   298  SER298      0.2314
     52  O          2.0040   -0.6040   39.9490 O.2   298  SER298     -0.2863
     53  CB         0.5610   -2.8550   40.3970 C.3   298  SER298      0.2116
     54  OG         0.7570   -3.3290   39.0770 O.3   298  SER298     -0.2180
     55  N          4.5810    0.8600   38.6050 N.3   300  ASN300     -0.1240
     56  CA         5.1360    0.9380   37.2460 C.3   300  ASN300      0.1653
     57  C          6.6070    1.4220   37.1690 C.2   300  ASN300      0.2266
     58  O          7.4200    0.8110   36.4930 O.2   300  ASN300     -0.2867
     59  CB         4.2670    1.8060   36.3270 C.3   300  ASN300      0.1155
     60  CG         2.9640    1.1300   35.8880 C.2   300  ASN300      0.2627
     61  OD1        2.6930   -0.0490   36.1610 O.2   300  ASN300     -0.2716
     62  ND2        2.1500    1.8960   35.1750 N.am  300  ASN300     -0.0877
     63  N         -3.2930   -4.8000   45.6710 N.3   393  THR393     -0.1218
     64  CA        -4.3870   -4.5530   44.7430 C.3   393  THR393      0.1862
     65  C         -5.4900   -5.6070   44.8730 C.2   393  THR393      0.2287
     66  O         -6.5020   -5.5450   44.1760 O.2   393  THR393     -0.2866
     67  CB        -3.8850   -4.5410   43.2980 C.3   393  THR393      0.1770
     68  OG1       -3.2180   -5.7830   43.0230 O.3   393  THR393     -0.2211
     69  CG2       -2.9240   -3.3810   43.0810 C.3   393  THR393      0.0375
     70  N         -1.1610  -11.6580   41.0310 N.3   410  LYS410     -0.1231
     71  CA        -0.9510  -10.3260   40.5070 C.3   410  LYS410      0.1693
     72  C         -2.1430   -9.9290   39.6470 C.2   410  LYS410      0.2593
     73  O         -2.6180  -10.7040   38.7960 O.2   410  LYS410     -0.2718
     74  CB         0.3660  -10.2270   39.7190 C.3   410  LYS410      0.0285
     75  CG         0.6730   -8.8230   39.1450 C.3   410  LYS410      0.0035
     76  CD         1.1780   -7.8580   40.2060 C.3   410  LYS410      0.0206
     77  CE         1.2200   -6.4220   39.7070 C.3   410  LYS410      0.1093
     78  NZ        -0.1600   -5.7880   39.5990 N.3   410  LYS410     -0.1314
     79  N         -2.6170   -8.7170   39.8960 N.am  411  THR411     -0.1939
     80  CA        -3.7210   -8.1420   39.1480 C.3   411  THR411      0.2028
     81  C         -3.1650   -7.4480   37.9230 C.2   411  THR411      0.2643
     82  O         -1.9590   -7.2310   37.8070 O.2   411  THR411     -0.2714
     83  CB        -4.5090   -7.1220   40.0000 C.3   411  THR411      0.1808
     84  OG1       -3.6110   -6.1390   40.5400 O.3   411  THR411     -0.2208
     85  CG2       -5.2060   -7.8210   41.1300 C.3   411  THR411      0.0379
     86  N         -4.0550   -7.1010   37.0110 N.am  412  GLY412     -0.1939
     87  CA        -3.6830   -6.3360   35.8320 C.3   412  GLY412      0.2014
     88  C         -4.9330   -5.7080   35.2590 C.2   412  GLY412      0.2639
     89  O         -5.9200   -6.3900   34.9920 O.2   412  GLY412     -0.2714
     90  N         -4.9120   -4.4050   35.0670 N.am  413  THR413     -0.1950
     91  CA        -6.0360   -3.7860   34.4150 C.3   413  THR413      0.1897
     92  C         -5.6250   -2.5500   33.6620 C.2   413  THR413      0.2313
     93  O         -4.7370   -1.8030   34.0940 O.2   413  THR413     -0.2863
     94  CB        -7.2080   -3.5060   35.4130 C.3   413  THR413      0.1794
     95  OG1       -8.4680   -3.5910   34.7300 O.3   413  THR413     -0.2208
     96  CG2       -7.0690   -2.1510   36.0910 C.3   413  THR413      0.0378
@<TRIPOS>BOND
     1     1     2    1
     2     2     5    1
     3     2     3    1
     4     4     3    2
     5     3     6   am
     6    37    36    1
     7    92    93    2
     8    92    91    1
     9    34    36   ar
    10    34    32   ar
    11     6     7    1
    12    36    35   ar
    13    91    90    1
    14    91    94    1
    15    95    94    1
    16    32    31   ar
    17    89    88    2
    18    90    88   am
    19     7     8    1
    20     7    10    1
    21    12    13    1
    22    62    60   am
    23    88    87    1
    24    29    28    2
    25     8     9    2
    26    94    96    1
    27    35    33   ar
    28    87    86    1
    29    60    61    2
    30    60    59    1
    31    28    27    1
    32    31    33   ar
    33    31    30    1
    34    59    56    1
    35    10    11    1
    36    13    14    1
    37    13    16    1
    38    58    57    2
    39    20    19    1
    40    14    15    2
    41    86    81   am
    42    30    27    1
    43    17    16    1
    44    17    18    1
    45    57    56    1
    46    56    55    1
    47    27    26    1
    48    82    81    2
    49    19    18    1
    50    26    23   am
    51    81    80    1
    52    24    23    2
    53    23    22    1
    54    21    22    1
    55    73    72    2
    56    54    53    1
    57    75    74    1
    58    75    76    1
    59    80    79    1
    60    80    83    1
    61    22    25    1
    62    78    77    1
    63    72    79   am
    64    72    71    1
    65    77    76    1
    66    74    71    1
    67    52    51    2
    68    83    84    1
    69    83    85    1
    70    53    50    1
    71    71    70    1
    72    51    50    1
    73    50    49    1
    74    49    40   am
    75    41    40    2
    76    68    67    1
    77    69    67    1
    78    40    39    1
    79    67    64    1
    80    66    65    2
    81    39    38    1
    82    39    42    1
    83    64    65    1
    84    64    63    1
    85    42    43    1
    86    43    44   ar
    87    43    45   ar
    88    44    46   ar
    89    45    47   ar
    90    46    48   ar
    91    47    48   ar
