@<TRIPOS>MOLECULE
tmp/4b52A00.pdb
 203 199 0 0 0
SMALL
GASTEIGER

@<TRIPOS>ATOM
      1  N          8.2210   24.9860   49.4750 N.3   104  ASN104     -0.1225
      2  CA         6.9950   25.4660   50.0910 C.3   104  ASN104      0.1785
      3  C          5.7860   24.8090   49.5610 C.2   104  ASN104      0.2597
      4  O          4.7970   25.5150   49.2110 O.2   104  ASN104     -0.2718
      5  CB         6.7420   26.9500   49.8090 C.3   104  ASN104      0.1169
      6  CG         7.5910   27.8820   50.6510 C.2   104  ASN104      0.2627
      7  OD1        8.0140   28.9350   50.1490 O.2   104  ASN104     -0.2716
      8  ND2        7.8210   27.5530   51.8730 N.am  104  ASN104     -0.0877
      9  N          5.8210   23.5080   49.5060 N.am  105  ASN105     -0.1960
     10  CA         4.5720   22.7920   49.3170 C.3   105  ASN105      0.1819
     11  C          4.5360   21.4260   50.0180 C.2   105  ASN105      0.2621
     12  O          5.5340   20.9670   50.5670 O.2   105  ASN105     -0.2715
     13  CB         4.1910   22.6560   47.8180 C.3   105  ASN105      0.1195
     14  CG         2.7010   22.8570   47.5760 C.2   105  ASN105      0.2630
     15  OD1        1.8540   22.7670   48.4750 O.2   105  ASN105     -0.2716
     16  ND2        2.3740   23.1720   46.3560 N.am  105  ASN105     -0.0877
     17  N          3.3690   20.7970   49.9300 N.am  106  ALA106     -0.1963
     18  CA         3.1870   19.4130   50.2790 C.3   106  ALA106      0.1728
     19  C          2.1490   18.7860   49.3300 C.2   106  ALA106      0.2616
     20  O          1.2120   19.4810   48.8670 O.2   106  ALA106     -0.2715
     21  CB         2.7040   19.3170   51.7290 C.3   106  ALA106      0.0334
     22  N          2.2270   17.4620   49.1320 N.am  107  PHE107     -0.1960
     23  CA         1.4420   16.8680   48.0440 C.3   107  PHE107      0.1771
     24  C          1.2820   15.4100   48.1280 C.2   107  PHE107      0.2619
     25  O          2.1370   14.6610   48.7460 O.2   107  PHE107     -0.2715
     26  CB         1.9970   17.3360   46.6850 C.3   107  PHE107      0.0574
     27  CG         3.4260   16.9330   46.4280 C.ar  107  PHE107     -0.0200
     28  CD1        3.7080   15.7200   45.8300 C.ar  107  PHE107     -0.0042
     29  CD2        4.4990   17.7910   46.7580 C.ar  107  PHE107     -0.0042
     30  CE1        5.0390   15.2800   45.6230 C.ar  107  PHE107     -0.0003
     31  CE2        5.8350   17.3660   46.5200 C.ar  107  PHE107     -0.0003
     32  CZ         6.1200   16.1350   45.9250 C.ar  107  PHE107     -0.0000
     33  N          0.1760   14.9800   47.5030 N.am  108  TRP108     -0.1974
     34  CA        -0.1380   13.5540   47.3520 C.3   108  TRP108      0.1640
     35  C          0.1910   13.1410   45.9430 C.2   108  TRP108      0.2290
     36  O         -0.1950   13.8420   45.0210 O.2   108  TRP108     -0.2864
     37  CB        -1.6150   13.3200   47.6250 C.3   108  TRP108      0.0576
     38  CG        -2.0920   11.9770   47.1100 C.ar  108  TRP108      0.0006
     39  CD1       -2.8410   11.7350   45.9300 C.ar  108  TRP108      0.0946
     40  CD2       -1.8720   10.6230   47.7160 C.ar  108  TRP108      0.0152
     41  NE1       -3.1100   10.4120   45.7960 N.ar  108  TRP108     -0.2442
     42  CE2       -2.5620    9.6710   46.8350 C.ar  108  TRP108      0.0810
     43  CE3       -1.2060   10.1240   48.8670 C.ar  108  TRP108      0.0012
     44  CZ2       -2.5430    8.2910   47.0700 C.ar  108  TRP108      0.0191
     45  CZ3       -1.2290    8.7360   49.1100 C.ar  108  TRP108      0.0001
     46  CH2       -1.8820    7.8380   48.2430 C.ar  108  TRP108      0.0015
     47  N          7.2010   32.1040   54.8990 N.3   122  THR122     -0.1203
     48  CA         5.7700   31.8630   54.6400 C.3   122  THR122      0.1994
     49  C          5.2520   30.6180   55.3280 C.2   122  THR122      0.2617
     50  O          4.1200   30.5850   55.8080 O.2   122  THR122     -0.2717
     51  CB         5.5060   31.8250   53.1300 C.3   122  THR122      0.1784
     52  OG1        5.9510   33.0730   52.6170 O.3   122  THR122     -0.2211
     53  CG2        4.0010   31.7760   52.8450 C.3   122  THR122      0.0376
     54  N          6.0920   29.5860   55.3580 N.am  123  PHE123     -0.1975
     55  CA         5.6910   28.2850   55.8740 C.3   123  PHE123      0.1639
     56  C          6.8300   27.7510   56.6590 C.2   123  PHE123      0.2290
     57  O          7.9750   28.0810   56.3480 O.2   123  PHE123     -0.2864
     58  CB         5.4460   27.3060   54.7340 C.3   123  PHE123      0.0560
     59  CG         4.2480   27.6580   53.9070 C.ar  123  PHE123     -0.0200
     60  CD1        2.9720   27.4170   54.3920 C.ar  123  PHE123     -0.0042
     61  CD2        4.4100   28.1310   52.6100 C.ar  123  PHE123     -0.0042
     62  CE1        1.8390   27.6680   53.6080 C.ar  123  PHE123     -0.0003
     63  CE2        3.2950   28.3870   51.8060 C.ar  123  PHE123     -0.0003
     64  CZ         2.0100   28.1820   52.3160 C.ar  123  PHE123     -0.0000
     65  N          5.5770   21.2450   56.7610 N.3   126  PHE126     -0.1241
     66  CA         4.1420   21.2100   56.4410 C.3   126  PHE126      0.1605
     67  C          3.4140   20.1730   57.2210 C.2   126  PHE126      0.2264
     68  O          2.1940   20.2280   57.3310 O.2   126  PHE126     -0.2867
     69  CB         3.9780   20.9220   54.9310 C.3   126  PHE126      0.0534
     70  CG         4.1210   22.1530   54.0500 C.ar  126  PHE126     -0.0203
     71  CD1        5.3870   22.6730   53.7280 C.ar  126  PHE126     -0.0042
     72  CD2        2.9740   22.8700   53.6380 C.ar  126  PHE126     -0.0042
     73  CE1        5.4720   23.8520   52.9610 C.ar  126  PHE126     -0.0003
     74  CE2        3.0690   23.9990   52.8580 C.ar  126  PHE126     -0.0003
     75  CZ         4.3290   24.5060   52.5390 C.ar  126  PHE126     -0.0000
     76  N         -3.1670   19.6240   57.5040 N.3   132  VAL132     -0.1245
     77  CA        -2.4170   19.4680   56.2660 C.3   132  VAL132      0.1561
     78  C         -2.1730   18.0160   55.9620 C.2   132  VAL132      0.2260
     79  O         -2.3840   17.5640   54.8140 O.2   132  VAL132     -0.2867
     80  CB        -1.1370   20.2720   56.3160 C.3   132  VAL132      0.0252
     81  CG1       -0.2510   19.9190   55.1360 C.3   132  VAL132      0.0019
     82  CG2       -1.5260   21.7350   56.3200 C.3   132  VAL132      0.0019
     83  N         -5.3620   16.6650   54.8060 N.3   135  HIS135     -0.1226
     84  CA        -5.6450   17.2110   53.4970 C.3   135  HIS135      0.1752
     85  C         -4.9290   16.2800   52.5200 C.2   135  HIS135      0.2595
     86  O         -5.5350   15.7820   51.5440 O.2   135  HIS135     -0.2718
     87  CB        -5.0810   18.6610   53.4420 C.3   135  HIS135      0.0759
     88  CG        -5.2510   19.3410   52.0390 C.ar  135  HIS135      0.0818
     89  ND1       -6.2240   20.2010   51.7900 N.ar  135  HIS135     -0.2268
     90  CD2       -4.6020   19.1160   50.7960 C.ar  135  HIS135      0.1154
     91  CE1       -6.1800   20.5700   50.4780 C.ar  135  HIS135      0.1986
     92  NE2       -5.1760   19.9180   49.8870 N.ar  135  HIS135     -0.2212
     93  N         -3.6460   15.9680   52.7980 N.am  136  GLU136     -0.1979
     94  CA        -2.8240   15.1290   51.8500 C.3   136  GLU136      0.1602
     95  C         -3.3560   13.7300   51.7510 C.2   136  GLU136      0.2287
     96  O         -3.6060   13.2790   50.6650 O.2   136  GLU136     -0.2864
     97  CB        -1.2860   15.1590   52.1300 C.3   136  GLU136      0.0415
     98  CG        -0.7160   16.5880   52.2060 C.3   136  GLU136      0.1163
     99  CD        -1.0210   17.4710   50.9830 C.2   136  GLU136      0.3649
    100  OE1       -1.1740   16.9610   49.8510 O.co2 136  GLU136     -0.2457
    101  OE2       -1.1570   18.6930   51.1610 O.co2 136  GLU136     -0.2457
    102  N         -6.4950   13.3010   49.6930 N.3   139  HIS139     -0.1241
    103  CA        -6.3830   13.2780   48.2250 C.3   139  HIS139      0.1621
    104  C         -6.3040   11.8940   47.7040 C.2   139  HIS139      0.2264
    105  O         -6.8680   11.6340   46.6410 O.2   139  HIS139     -0.2867
    106  CB        -5.1560   14.0690   47.7250 C.3   139  HIS139      0.0745
    107  CG        -5.4090   15.5340   47.5570 C.ar  139  HIS139      0.0817
    108  ND1       -6.5170   16.0240   46.9350 N.ar  139  HIS139     -0.2268
    109  CD2       -4.6470   16.6290   47.9190 C.ar  139  HIS139      0.1154
    110  CE1       -6.4570   17.3510   46.8610 C.ar  139  HIS139      0.1986
    111  NE2       -5.3160   17.7500   47.4710 N.ar  139  HIS139     -0.2212
    112  N         -8.3560   16.7150   38.3860 N.3   150  TYR150     -0.1241
    113  CA        -7.6910   17.7990   39.0770 C.3   150  TYR150      0.1605
    114  C         -7.8050   19.1740   38.3740 C.2   150  TYR150      0.2264
    115  O         -6.9090   20.0010   38.5110 O.2   150  TYR150     -0.2867
    116  CB        -6.2220   17.4420   39.3130 C.3   150  TYR150      0.0534
    117  CG        -5.9770   16.4250   40.3960 C.ar  150  TYR150     -0.0201
    118  CD1       -6.1110   15.0370   40.1460 C.ar  150  TYR150     -0.0009
    119  CD2       -5.5830   16.8370   41.6960 C.ar  150  TYR150     -0.0009
    120  CE1       -5.8520   14.0890   41.1660 C.ar  150  TYR150      0.0417
    121  CE2       -5.3250   15.8980   42.7270 C.ar  150  TYR150      0.0417
    122  CZ        -5.4500   14.5180   42.4730 C.ar  150  TYR150      0.1957
    123  OH        -5.2070   13.5940   43.5010 O.3   150  TYR150     -0.2866
    124  N        -10.0910   19.5240   46.1040 N.3   159  GLU159     -0.1245
    125  CA        -9.4390   20.2810   47.1830 C.3   159  GLU159      0.1567
    126  C        -10.3530   20.6000   48.3960 C.2   159  GLU159      0.2260
    127  O         -9.8480   20.6000   49.5140 O.2   159  GLU159     -0.2867
    128  CB        -8.9260   21.6310   46.6700 C.3   159  GLU159      0.0388
    129  CG        -7.6180   21.5980   45.8900 C.3   159  GLU159      0.1160
    130  CD        -6.5060   20.9580   46.7640 C.2   159  GLU159      0.3649
    131  OE1       -6.4000   21.4830   47.8280 O.co2 159  GLU159     -0.2457
    132  OE2       -5.9360   20.1010   46.1870 O.co2 159  GLU159     -0.2457
    133  N         -7.4690   26.3170   57.7900 N.3   176  VAL176     -0.1231
    134  CA        -6.6420   25.2970   57.1580 C.3   176  VAL176      0.1692
    135  C         -5.1820   25.8440   57.1500 C.2   176  VAL176      0.2592
    136  O         -4.9430   27.0040   56.7820 O.2   176  VAL176     -0.2718
    137  CB        -7.1470   25.0350   55.6630 C.3   176  VAL176      0.0266
    138  CG1       -6.1190   24.2600   54.8740 C.3   176  VAL176      0.0020
    139  CG2       -8.4080   24.1940   55.6370 C.3   176  VAL176      0.0020
    140  N         -4.2170   25.0320   57.5700 N.am  177  GLY177     -0.1957
    141  CA        -2.8050   25.3730   57.4980 C.3   177  GLY177      0.1869
    142  C         -2.2990   26.3240   58.5600 C.2   177  GLY177      0.2309
    143  O         -1.1440   26.7690   58.4420 O.2   177  GLY177     -0.2863
    144  N          1.1260   26.0600   60.3630 N.3   180  ILE180     -0.1245
    145  CA         2.3920   25.9980   59.6360 C.3   180  ILE180      0.1561
    146  C          2.5940   27.2670   58.8470 C.2   180  ILE180      0.2260
    147  O          3.6310   27.4220   58.2570 O.2   180  ILE180     -0.2867
    148  CB         2.4890   24.7570   58.6850 C.3   180  ILE180      0.0252
    149  CG1        1.3020   24.7570   57.6860 C.3   180  ILE180      0.0019
    150  CG2        2.6590   23.4710   59.4970 C.3   180  ILE180      0.0019
    151  CD1        1.5900   24.1990   56.3060 C.3   180  ILE180      0.0001
    152  N         -3.5820   29.7420   55.9220 N.3   190  LEU190     -0.1231
    153  CA        -3.5960   29.5500   54.4740 C.3   190  LEU190      0.1693
    154  C         -5.0190   29.7160   53.8890 C.2   190  LEU190      0.2591
    155  O         -5.2020   30.4750   52.9400 O.2   190  LEU190     -0.2718
    156  CB        -3.0260   28.2020   54.0900 C.3   190  LEU190      0.0284
    157  CG        -2.8640   27.8350   52.6410 C.3   190  LEU190      0.0019
    158  CD1       -1.9020   28.8450   51.9740 C.3   190  LEU190      0.0001
    159  CD2       -2.3270   26.3960   52.5700 C.3   190  LEU190      0.0001
    160  N         -5.9940   29.0400   54.4980 N.am  191  ARG191     -0.1980
    161  CA        -7.3920   29.2960   54.1040 C.3   191  ARG191      0.1597
    162  C         -8.2730   29.3710   55.3260 C.2   191  ARG191      0.2287
    163  O         -7.9600   28.7930   56.3660 O.2   191  ARG191     -0.2864
    164  CB        -7.9200   28.1640   53.1890 C.3   191  ARG191      0.0334
    165  CG        -7.2440   28.2170   51.8490 C.3   191  ARG191      0.0492
    166  CD        -7.7380   27.1250   50.9560 C.3   191  ARG191      0.2205
    167  NE        -7.2410   25.7830   51.3060 N.pl3 191  ARG191     -0.0865
    168  CZ        -6.1220   25.2170   50.8240 C.cat 191  ARG191      0.5346
    169  NH1       -5.2650   25.8580   50.0730 N.pl3 191  ARG191      0.1354
    170  NH2       -5.7910   24.0020   51.1800 N.pl3 191  ARG191      0.1354
    171  N         -3.3460   27.7210   38.0580 N.3   214  ASP214     -0.1225
    172  CA        -3.6890   26.7480   39.1270 C.3   214  ASP214      0.1805
    173  C         -4.7440   25.7310   38.6850 C.2   214  ASP214      0.2597
    174  O         -5.7100   25.4260   39.4200 O.2   214  ASP214     -0.2718
    175  CB        -4.1760   27.5330   40.3280 C.3   214  ASP214      0.1424
    176  CG        -4.4860   26.6430   41.5770 C.2   214  ASP214      0.3668
    177  OD1       -3.7750   25.6080   41.8280 O.co2 214  ASP214     -0.2456
    178  OD2       -5.4630   26.9830   42.2770 O.co2 214  ASP214     -0.2456
    179  N         -4.5530   25.1390   37.5060 N.am  215  ASN215     -0.1974
    180  CA        -5.4830   24.1520   36.9530 C.3   215  ASN215      0.1688
    181  C         -6.9020   24.6100   36.9250 C.2   215  ASN215      0.2292
    182  O         -7.8240   23.8060   37.1480 O.2   215  ASN215     -0.2864
    183  CB        -5.4380   22.7960   37.6730 C.3   215  ASN215      0.1181
    184  CG        -4.1300   22.0740   37.4340 C.2   215  ASN215      0.2629
    185  OD1       -3.1960   22.6140   36.7680 O.2   215  ASN215     -0.2716
    186  ND2       -4.0760   20.8370   37.8920 N.am  215  ASN215     -0.0877
    187  N         -8.2550   25.5640   41.1630 N.3   218  VAL218     -0.1231
    188  CA        -8.7200   24.4850   42.0770 C.3   218  VAL218      0.1692
    189  C         -8.4560   24.9070   43.5340 C.2   218  VAL218      0.2592
    190  O         -9.2790   24.5650   44.3740 O.2   218  VAL218     -0.2718
    191  CB        -8.0630   23.1060   41.7250 C.3   218  VAL218      0.0266
    192  CG1       -8.3660   22.7170   40.2200 C.3   218  VAL218      0.0020
    193  CG2       -6.5680   23.0910   42.0520 C.3   218  VAL218      0.0020
    194  N         -7.3750   25.6560   43.8340 N.am  219  HIS219     -0.1976
    195  CA        -7.1830   26.1350   45.2570 C.3   219  HIS219      0.1656
    196  C         -7.8430   27.4380   45.5880 C.2   219  HIS219      0.2291
    197  O         -7.8010   27.9450   46.7430 O.2   219  HIS219     -0.2864
    198  CB        -5.7430   26.2560   45.6190 C.3   219  HIS219      0.0771
    199  CG        -5.0170   24.9400   45.5540 C.ar  219  HIS219      0.0820
    200  ND1       -4.2420   24.6160   44.5190 N.ar  219  HIS219     -0.2267
    201  CD2       -4.9130   23.8890   46.4790 C.ar  219  HIS219      0.1154
    202  CE1       -3.6370   23.4790   44.7230 C.ar  219  HIS219      0.1986
    203  NE2       -4.0770   22.9880   45.9290 N.ar  219  HIS219     -0.2212
@<TRIPOS>BOND
     1   185   184    2
     2   181   180    1
     3   181   182    2
     4   180   179    1
     5   180   183    1
     6   184   183    1
     7   184   186   am
     8   179   173   am
     9   171   172    1
    10   114   115    2
    11   114   113    1
    12   112   113    1
    13   173   172    1
    14   173   174    2
    15   113   116    1
    16   172   175    1
    17   116   117    1
    18   118   117   ar
    19   118   120   ar
    20   192   191    1
    21   175   176    1
    22   117   119   ar
    23   187   188    1
    24   120   122   ar
    25   176   177   ar
    26   176   178   ar
    27   119   121   ar
    28   191   193    1
    29   191   188    1
    30   188   189    1
    31   122   121   ar
    32   122   123    1
    33   189   194   am
    34   189   190    2
    35   194   195    1
    36   200   202   ar
    37   200   199   ar
    38   202   203   ar
    39    36    35    2
    40   195   196    1
    41   195   198    1
    42   199   198    1
    43   199   201   ar
    44   196   197    2
    45    30    28   ar
    46    30    32   ar
    47    41    39   ar
    48    41    42   ar
    49    28    27   ar
    50   129   128    1
    51   129   130    1
    52    32    31   ar
    53   203   201   ar
    54    39    38   ar
    55    35    34    1
    56   124   125    1
    57   132   130   ar
    58    16    14   am
    59    27    26    1
    60    27    29   ar
    61    31    29   ar
    62   105   104    2
    63   128   125    1
    64    26    23    1
    65   130   131   ar
    66    42    44   ar
    67    42    40   ar
    68   110   108   ar
    69   110   111   ar
    70   108   107   ar
    71    44    46   ar
    72    38    37    1
    73    38    40   ar
    74   125   126    1
    75    34    33    1
    76    34    37    1
    77   111   109   ar
    78    33    24   am
    79   107   106    1
    80   107   109   ar
    81    14    13    1
    82    14    15    2
    83   104   103    1
    84    40    43   ar
    85   106   103    1
    86    13    10    1
    87    23    24    1
    88    23    22    1
    89    24    25    2
    90   103   102    1
    91    46    45   ar
    92   126   127    2
    93    20    19    2
    94    43    45   ar
    95    22    19   am
    96     4     3    2
    97    10     9    1
    98    10    11    1
    99    19    18    1
   100     1     2    1
   101     9     3   am
   102     3     2    1
   103     5     2    1
   104     5     6    1
   105   100    99   ar
   106    92    91   ar
   107    92    90   ar
   108    17    11   am
   109    17    18    1
   110    11    12    2
   111   169   168    1
   112     7     6    2
   113    18    21    1
   114    91    89   ar
   115     6     8   am
   116    96    95    2
   117    90    88   ar
   118   168   170    1
   119   168   167    2
   120   166   167    1
   121   166   165    1
   122    99   101   ar
   123    99    98    1
   124    86    85    2
   125    95    94    1
   126    89    88   ar
   127    63    64   ar
   128    63    61   ar
   129   165   164    1
   130    94    97    1
   131    94    93    1
   132   158   157    1
   133    88    87    1
   134    97    98    1
   135    64    62   ar
   136    85    93   am
   137    85    84    1
   138    75    74   ar
   139    75    73   ar
   140   159   157    1
   141    61    59   ar
   142    52    51    1
   143   157   156    1
   144    53    51    1
   145    74    72   ar
   146   155   154    2
   147    73    71   ar
   148    51    48    1
   149   164   161    1
   150    87    84    1
   151    84    83    1
   152    62    60   ar
   153    72    70   ar
   154    71    70   ar
   155   154   153    1
   156   154   160   am
   157    59    60   ar
   158    59    58    1
   159    70    69    1
   160   156   153    1
   161   161   160    1
   162   161   162    1
   163   153   152    1
   164    48    47    1
   165    48    49    1
   166    58    55    1
   167    79    78    2
   168   138   137    1
   169    69    66    1
   170    81    80    1
   171   162   163    2
   172    49    54   am
   173    49    50    2
   174    54    55    1
   175   139   137    1
   176   137   134    1
   177    55    56    1
   178    78    77    1
   179    77    80    1
   180    77    76    1
   181   151   149    1
   182    80    82    1
   183    57    56    2
   184    66    65    1
   185    66    67    1
   186   136   135    2
   187   135   134    1
   188   135   140   am
   189   134   133    1
   190    67    68    2
   191   141   140    1
   192   141   142    1
   193   149   148    1
   194   147   146    2
   195   143   142    2
   196   148   150    1
   197   148   145    1
   198   146   145    1
   199   145   144    1
