@<TRIPOS>MOLECULE
tmp/4b55A00.pdb
 128 127 0 0 0
SMALL
GASTEIGER

@<TRIPOS>ATOM
      1  N          3.1580   28.1580  -13.8410 N.3    36  PHE36      -0.1241
      2  CA         4.0370   27.1320  -13.3180 C.3    36  PHE36       0.1605
      3  C          5.4300   27.7260  -13.5240 C.2    36  PHE36       0.2264
      4  O          5.7080   28.2680  -14.5960 O.2    36  PHE36      -0.2867
      5  CB         3.9060   25.8220  -14.1060 C.3    36  PHE36       0.0534
      6  CG         4.9070   24.7620  -13.7110 C.ar   36  PHE36      -0.0203
      7  CD1        6.1350   24.6610  -14.3590 C.ar   36  PHE36      -0.0042
      8  CD2        4.6050   23.8340  -12.7290 C.ar   36  PHE36      -0.0042
      9  CE1        7.0390   23.6570  -14.0220 C.ar   36  PHE36      -0.0003
     10  CE2        5.5000   22.8130  -12.4180 C.ar   36  PHE36      -0.0003
     11  CZ         6.7320   22.7640  -13.0240 C.ar   36  PHE36      -0.0000
     12  N          5.6580   25.2660   -8.5050 N.3    67  TYR67      -0.1227
     13  CA         5.5080   23.9360   -9.0830 C.3    67  TYR67       0.1736
     14  C          4.3890   23.1130   -8.4260 C.2    67  TYR67       0.2596
     15  O          3.5910   23.6710   -7.6720 O.2    67  TYR67      -0.2718
     16  CB         6.8390   23.1770   -9.2910 C.3    67  TYR67       0.0548
     17  CG         7.6570   22.8220   -8.0650 C.ar   67  TYR67      -0.0200
     18  CD1        7.0480   22.3560   -6.9000 C.ar   67  TYR67      -0.0009
     19  CD2        9.0480   22.8330   -8.1090 C.ar   67  TYR67      -0.0009
     20  CE1        7.8010   21.9970   -5.7830 C.ar   67  TYR67       0.0417
     21  CE2        9.8120   22.4610   -7.0060 C.ar   67  TYR67       0.0417
     22  CZ         9.1830   22.0400   -5.8450 C.ar   67  TYR67       0.1957
     23  OH         9.9300   21.6580   -4.7580 O.3    67  TYR67      -0.2866
     24  N          4.3240   21.8050   -8.7220 N.am   68  CYS68      -0.1956
     25  CA         3.2690   20.8990   -8.2650 C.3    68  CYS68       0.1843
     26  C          2.8980   20.9730   -6.7930 C.2    68  CYS68       0.2625
     27  O          1.7130   21.0620   -6.4670 O.2    68  CYS68      -0.2714
     28  CB         3.5380   19.4660   -8.7070 C.3    68  CYS68       0.0997
     29  SG         4.9240   18.6660   -7.8620 S.3    68  CYS68      -0.0797
     30  N          3.9010   20.9380   -5.9100 N.am   69  TYR69      -0.1974
     31  CA         3.6900   21.0000   -4.4670 C.3    69  TYR69       0.1639
     32  C          3.0670   22.3230   -4.0440 C.2    69  TYR69       0.2290
     33  O          2.2780   22.3610   -3.0990 O.2    69  TYR69      -0.2864
     34  CB         5.0060   20.7540   -3.7170 C.3    69  TYR69       0.0560
     35  CG         5.5230   19.3410   -3.8530 C.ar   69  TYR69      -0.0198
     36  CD1        6.3380   18.9750   -4.9160 C.ar   69  TYR69      -0.0009
     37  CD2        5.2170   18.3740   -2.9070 C.ar   69  TYR69      -0.0009
     38  CE1        6.8050   17.6700   -5.0560 C.ar   69  TYR69       0.0417
     39  CE2        5.6730   17.0650   -3.0380 C.ar   69  TYR69       0.0417
     40  CZ         6.4760   16.7190   -4.1100 C.ar   69  TYR69       0.1957
     41  OH         6.9410   15.4340   -4.2330 O.3    69  TYR69      -0.2866
     42  N          6.5900   10.6930  -12.1790 N.3    93  VAL93      -0.1245
     43  CA         6.4870   11.2440  -13.5330 C.3    93  VAL93       0.1561
     44  C          7.1680   10.3640  -14.5800 C.2    93  VAL93       0.2260
     45  O          8.3660   10.1000  -14.4800 O.2    93  VAL93      -0.2867
     46  CB         6.9750   12.7120  -13.5840 C.3    93  VAL93       0.0252
     47  CG1        6.8250   13.2950  -14.9810 C.3    93  VAL93       0.0019
     48  CG2        6.2320   13.5690  -12.5640 C.3    93  VAL93       0.0019
     49  N          6.5600   11.0350  -18.1250 N.3    95  TRP95      -0.1241
     50  CA         6.3820   11.7840  -19.3740 C.3    95  TRP95       0.1605
     51  C          7.5390   11.6230  -20.3620 C.2    95  TRP95       0.2264
     52  O          8.7000   11.8400  -20.0070 O.2    95  TRP95      -0.2867
     53  CB         5.9840   13.2520  -19.0900 C.3    95  TRP95       0.0550
     54  CG         6.3150   14.2840  -20.1350 C.ar   95  TRP95       0.0003
     55  CD1        7.4600   15.0190  -20.2120 C.ar   95  TRP95       0.0946
     56  CD2        5.4760   14.7350  -21.2160 C.ar   95  TRP95       0.0152
     57  NE1        7.4100   15.8680  -21.2940 N.ar   95  TRP95      -0.2442
     58  CE2        6.2060   15.7130  -21.9310 C.ar   95  TRP95       0.0810
     59  CE3        4.2190   14.3440  -21.7050 C.ar   95  TRP95       0.0012
     60  CZ2        5.6990   16.3360  -23.0780 C.ar   95  TRP95       0.0191
     61  CZ3        3.7030   14.9870  -22.8180 C.ar   95  TRP95       0.0001
     62  CH2        4.4460   15.9570  -23.5040 C.ar   95  TRP95       0.0015
     63  N          7.9750   12.5000   -7.0200 N.3   107  THR107     -0.1203
     64  CA         8.1960   13.9470   -6.9630 C.3   107  THR107      0.1994
     65  C          7.0010   14.7660   -7.4240 C.2   107  THR107      0.2617
     66  O          7.1240   15.9790   -7.5900 O.2   107  THR107     -0.2717
     67  CB         9.4680   14.3270   -7.7170 C.3   107  THR107      0.1784
     68  OG1        9.3710   13.8890   -9.0740 O.3   107  THR107     -0.2211
     69  CG2       10.7230   13.7850   -7.0540 C.3   107  THR107      0.0376
     70  N          5.8580   14.1120   -7.6410 N.am  108  HIS108     -0.1975
     71  CA         4.6370   14.7900   -8.0500 C.3   108  HIS108      0.1656
     72  C          3.5590   14.5900   -7.0050 C.2   108  HIS108      0.2291
     73  O          3.5460   13.5700   -6.3160 O.2   108  HIS108     -0.2864
     74  CB         4.1580   14.3010   -9.4330 C.3   108  HIS108      0.0771
     75  CG         3.0240   15.1000  -10.0170 C.ar  108  HIS108      0.0820
     76  ND1        2.9860   16.4800   -9.9210 N.ar  108  HIS108     -0.2267
     77  CD2        1.9380   14.6860  -10.7090 C.ar  108  HIS108      0.1154
     78  CE1        1.8780   16.8590  -10.5350 C.ar  108  HIS108      0.1986
     79  NE2        1.2180   15.8170  -11.0300 N.ar  108  HIS108     -0.2212
     80  N         -0.7390   21.5930  -11.1200 N.3   127  GLY127     -0.1210
     81  CA         0.6960   21.7760  -10.9410 C.3   127  GLY127      0.1956
     82  C          1.6220   20.9760  -11.8300 C.2   127  GLY127      0.2612
     83  O          2.8370   20.9950  -11.6170 O.2   127  GLY127     -0.2717
     84  N          1.0740   20.2790  -12.8320 N.am  128  PHE128     -0.1962
     85  CA         1.8930   19.5060  -13.7570 C.3   128  PHE128      0.1771
     86  C          2.3190   20.3500  -14.9630 C.2   128  PHE128      0.2620
     87  O          1.8040   20.1660  -16.0660 O.2   128  PHE128     -0.2715
     88  CB         1.1760   18.2200  -14.1880 C.3   128  PHE128      0.0574
     89  CG         2.0690   17.2340  -14.8970 C.ar  128  PHE128     -0.0200
     90  CD1        3.0310   16.5150  -14.1980 C.ar  128  PHE128     -0.0042
     91  CD2        1.9350   17.0070  -16.2600 C.ar  128  PHE128     -0.0042
     92  CE1        3.8570   15.6030  -14.8530 C.ar  128  PHE128     -0.0003
     93  CE2        2.7660   16.0970  -16.9180 C.ar  128  PHE128     -0.0003
     94  CZ         3.7160   15.3960  -16.2070 C.ar  128  PHE128     -0.0000
     95  N          3.2540   21.2660  -14.7230 N.am  129  GLY129     -0.1940
     96  CA         3.8450   22.1720  -15.7030 C.3   129  GLY129      0.2014
     97  C          3.1440   22.3660  -17.0270 C.2   129  GLY129      0.2639
     98  O          2.0440   22.9280  -17.0800 O.2   129  GLY129     -0.2714
     99  N          3.8020   21.8890  -18.0820 N.am  130  GLY130     -0.1954
    100  CA         3.3920   21.9830  -19.4760 C.3   130  GLY130      0.1869
    101  C          2.2310   21.1470  -19.9670 C.2   130  GLY130      0.2309
    102  O          1.7880   21.3500  -21.0990 O.2   130  GLY130     -0.2863
    103  N         13.1890   17.4240   -5.0100 N.3   194  VAL194     -0.1245
    104  CA        13.0300   18.0470   -6.3220 C.3   194  VAL194      0.1561
    105  C         13.5060   19.4970   -6.4080 C.2   194  VAL194      0.2260
    106  O         13.7660   19.9850   -7.5110 O.2   194  VAL194     -0.2867
    107  CB        11.6470   17.8710   -7.0010 C.3   194  VAL194      0.0252
    108  CG1       11.7230   16.9390   -8.1910 C.3   194  VAL194      0.0019
    109  CG2       10.5010   17.5610   -6.0530 C.3   194  VAL194      0.0019
    110  N         14.5780   20.8000  -12.0730 N.3   202  PHE202     -0.1241
    111  CA        14.1680   22.0950  -11.5390 C.3   202  PHE202      0.1605
    112  C         15.3230   22.8670  -10.9060 C.2   202  PHE202      0.2264
    113  O         15.1840   24.0550  -10.6110 O.2   202  PHE202     -0.2867
    114  CB        12.9650   21.9570  -10.5960 C.3   202  PHE202      0.0534
    115  CG        11.7760   21.2700  -11.2290 C.ar  202  PHE202     -0.0203
    116  CD1       11.0270   21.9010  -12.2160 C.ar  202  PHE202     -0.0042
    117  CD2       11.4130   19.9870  -10.8480 C.ar  202  PHE202     -0.0042
    118  CE1        9.9340   21.2580  -12.8070 C.ar  202  PHE202     -0.0003
    119  CE2       10.3200   19.3470  -11.4370 C.ar  202  PHE202     -0.0003
    120  CZ         9.5840   19.9890  -12.4070 C.ar  202  PHE202     -0.0000
    121  N         12.0030   26.0970  -16.2380 N.3   207  MET207     -0.1245
    122  CA        10.7290   25.6600  -16.7850 C.3   207  MET207      0.1570
    123  C          9.6030   26.5730  -16.3330 C.2   207  MET207      0.2261
    124  O          9.4620   26.8430  -15.1400 O.2   207  MET207     -0.2867
    125  CB        10.4280   24.1970  -16.4350 C.3   207  MET207      0.0387
    126  CG        11.3570   23.2780  -17.2300 C.3   207  MET207      0.0595
    127  SD        11.2730   21.5900  -16.5780 S.3   207  MET207     -0.1393
    128  CE         9.5470   21.2650  -16.8080 C.3   207  MET207      0.0692
@<TRIPOS>BOND
     1    62    60   ar
     2    62    61   ar
     3    60    58   ar
     4    61    59   ar
     5    58    57   ar
     6    58    56   ar
     7    59    56   ar
     8    57    55   ar
     9    56    54   ar
    10   102   101    2
    11    51    52    2
    12    51    50    1
    13    55    54   ar
    14    54    53    1
    15   101   100    1
    16   100    99    1
    17    50    53    1
    18    50    49    1
    19    99    97   am
    20   126   127    1
    21   126   125    1
    22    98    97    2
    23    97    96    1
    24    93    91   ar
    25    93    94   ar
    26   128   127    1
    27   122   125    1
    28   122   123    1
    29   122   121    1
    30   123   124    2
    31    91    89   ar
    32    94    92   ar
    33    87    86    2
    34    96    95    1
    35    47    46    1
    36    86    95   am
    37    86    85    1
    38    89    90   ar
    39    89    88    1
    40    92    90   ar
    41     4     3    2
    42    44    45    2
    43    44    43    1
    44     7     9   ar
    45     7     6   ar
    46    88    85    1
    47     5     6    1
    48     5     2    1
    49     9    11   ar
    50     1     2    1
    51    85    84    1
    52     6     8   ar
    53    46    43    1
    54    46    48    1
    55    43    42    1
    56     3     2    1
    57    11    10   ar
    58    84    82   am
    59   118   120   ar
    60   118   116   ar
    61     8    10   ar
    62   120   119   ar
    63   116   115   ar
    64   110   111    1
    65    82    83    2
    66    82    81    1
    67   111   112    1
    68   111   114    1
    69   119   117   ar
    70   115   117   ar
    71   115   114    1
    72    80    81    1
    73    79    77   ar
    74    79    78   ar
    75   112   113    2
    76    77    75   ar
    77    78    76   ar
    78    75    76   ar
    79    75    74    1
    80    74    71    1
    81    16    13    1
    82    16    17    1
    83    13    12    1
    84    13    14    1
    85    68    67    1
    86    24    14   am
    87    24    25    1
    88    28    25    1
    89    28    29    1
    90    14    15    2
    91    25    26    1
    92   108   107    1
    93    19    17   ar
    94    19    21   ar
    95    17    18   ar
    96    71    70    1
    97    71    72    1
    98    67    69    1
    99    67    64    1
   100    70    65   am
   101    66    65    2
   102   106   105    2
   103    65    64    1
   104    63    64    1
   105    21    22   ar
   106    72    73    2
   107   107   104    1
   108   107   109    1
   109    18    20   ar
   110    26    27    2
   111    26    30   am
   112   105   104    1
   113   104   103    1
   114    30    31    1
   115    22    20   ar
   116    22    23    1
   117    38    36   ar
   118    38    40   ar
   119    36    35   ar
   120    31    32    1
   121    31    34    1
   122    41    40    1
   123    40    39   ar
   124    32    33    2
   125    35    34    1
   126    35    37   ar
   127    39    37   ar
