@<TRIPOS>MOLECULE
tmp/4b56A00.pdb
 121 116 0 0 0
SMALL
GASTEIGER

@<TRIPOS>ATOM
      1  N         25.4310   36.8070   85.5180 N.3   162  LEU162     -0.1231
      2  CA        25.9780   38.0670   85.9760 C.3   162  LEU162      0.1693
      3  C         27.2930   37.8730   86.7000 C.2   162  LEU162      0.2592
      4  O         27.5470   36.8060   87.2650 O.2   162  LEU162     -0.2718
      5  CB        24.9950   38.7410   86.9300 C.3   162  LEU162      0.0284
      6  CG        23.7750   39.3880   86.3040 C.3   162  LEU162      0.0019
      7  CD1       22.8550   39.9110   87.3940 C.3   162  LEU162      0.0001
      8  CD2       24.2030   40.5110   85.3720 C.3   162  LEU162      0.0001
      9  N         28.1200   38.9170   86.6820 N.am  163  TYR163     -0.1976
     10  CA        29.3130   38.9680   87.5130 C.3   163  TYR163      0.1639
     11  C         28.8580   39.0880   88.9480 C.2   163  TYR163      0.2290
     12  O         27.8280   39.6890   89.2120 O.2   163  TYR163     -0.2864
     13  CB        30.1780   40.1850   87.1730 C.3   163  TYR163      0.0560
     14  CG        30.7650   40.1620   85.7840 C.ar  163  TYR163     -0.0198
     15  CD1       31.5740   39.1260   85.3800 C.ar  163  TYR163     -0.0009
     16  CD2       30.5200   41.1820   84.8800 C.ar  163  TYR163     -0.0009
     17  CE1       32.1260   39.0920   84.1100 C.ar  163  TYR163      0.0417
     18  CE2       31.0700   41.1570   83.6070 C.ar  163  TYR163      0.0417
     19  CZ        31.8740   40.1080   83.2290 C.ar  163  TYR163      0.1957
     20  OH        32.4150   40.0530   81.9610 O.3   163  TYR163     -0.2866
     21  N         30.0640   41.0950   91.1280 N.3   165  GLU165     -0.1231
     22  CA        29.9810   42.5200   91.4520 C.3   165  GLU165      0.1699
     23  C         28.5720   43.0050   91.1990 C.2   165  GLU165      0.2592
     24  O         28.1070   43.8410   91.9260 O.2   165  GLU165     -0.2718
     25  CB        31.0360   43.3740   90.7050 C.3   165  GLU165      0.0402
     26  CG        30.7920   43.6400   89.2170 C.3   165  GLU165      0.1161
     27  CD        31.9420   44.3880   88.5490 C.2   165  GLU165      0.3649
     28  OE1       32.7130   45.1100   89.2370 O.co2 165  GLU165     -0.2457
     29  OE2       32.0850   44.2460   87.3170 O.co2 165  GLU165     -0.2457
     30  N         27.8880   42.4500   90.1990 N.am  166  SER166     -0.1952
     31  CA        26.5040   42.8300   89.8790 C.3   166  SER166      0.1924
     32  C         25.4410   42.0440   90.6450 C.2   166  SER166      0.2314
     33  O         24.5200   42.6580   91.1890 O.2   166  SER166     -0.2863
     34  CB        26.2150   42.6610   88.3900 C.3   166  SER166      0.2116
     35  OG        27.1110   43.4210   87.6160 O.3   166  SER166     -0.2180
     36  N         20.6250   39.8670   94.2140 N.3   197  LYS197     -0.1231
     37  CA        20.2030   40.7730   93.1390 C.3   197  LYS197      0.1693
     38  C         20.1980   40.0240   91.8070 C.2   197  LYS197      0.2592
     39  O         20.4960   38.8380   91.7660 O.2   197  LYS197     -0.2718
     40  CB        21.1290   41.9900   93.0800 C.3   197  LYS197      0.0285
     41  CG        21.2510   42.7400   94.4010 C.3   197  LYS197      0.0035
     42  CD        20.7660   44.1700   94.2730 C.3   197  LYS197      0.0206
     43  CE        20.8490   44.9360   95.5880 C.3   197  LYS197      0.1093
     44  NZ        19.5470   44.9690   96.3210 N.3   197  LYS197     -0.1314
     45  N         19.8360   40.7040   90.7230 N.am  198  GLY198     -0.1957
     46  CA        19.7550   40.0610   89.4070 C.3   198  GLY198      0.1869
     47  C         18.5260   39.1780   89.2720 C.2   198  GLY198      0.2309
     48  O         17.7050   39.1120   90.1820 O.2   198  GLY198     -0.2863
     49  N         36.5310   41.7720   87.0500 N.3   395  HIS395     -0.1241
     50  CA        35.2310   42.4080   87.2340 C.3   395  HIS395      0.1621
     51  C         34.7970   42.3750   88.6880 C.2   395  HIS395      0.2264
     52  O         33.6860   41.9530   89.0130 O.2   395  HIS395     -0.2867
     53  CB        34.1970   41.7630   86.3160 C.3   395  HIS395      0.0745
     54  CG        34.4230   42.0610   84.8620 C.ar  395  HIS395      0.0817
     55  ND1       33.8910   43.1720   84.2410 N.ar  395  HIS395     -0.2268
     56  CD2       35.1390   41.4110   83.9140 C.ar  395  HIS395      0.1154
     57  CE1       34.2610   43.1830   82.9710 C.ar  395  HIS395      0.1986
     58  NE2       35.0250   42.1300   82.7490 N.ar  395  HIS395     -0.2212
     59  N         32.6870   46.8890   91.4690 N.3   398  LYS398     -0.1245
     60  CA        31.4590   47.7160   91.5350 C.3   398  LYS398      0.1561
     61  C         30.4070   47.1610   92.4890 C.2   398  LYS398      0.2260
     62  O         29.3720   46.6610   92.0670 O.2   398  LYS398     -0.2867
     63  CB        30.8740   47.8830   90.1200 C.3   398  LYS398      0.0271
     64  CG        29.4150   48.3180   90.0030 C.3   398  LYS398      0.0035
     65  CD        28.7940   47.8800   88.6730 C.3   398  LYS398      0.0206
     66  CE        27.2650   47.8490   88.7410 C.3   398  LYS398      0.1093
     67  NZ        26.6080   47.9310   87.4000 N.3   398  LYS398     -0.1314
     68  N         18.7290   40.8130   81.0270 N.3   478  PRO478     -0.2102
     69  CA        20.0410   41.3790   80.7010 C.3   478  PRO478      0.1504
     70  C         21.1380   40.8170   81.6170 C.2   478  PRO478      0.2576
     71  O         21.0390   40.9330   82.8360 O.2   478  PRO478     -0.2718
     72  CB        19.8430   42.8850   80.9050 C.3   478  PRO478      0.0282
     73  CG        18.6860   42.9980   81.8220 C.3   478  PRO478      0.0208
     74  CD        17.7960   41.8330   81.5240 C.3   478  PRO478      0.0893
     75  N         22.1470   40.1880   81.0210 N.am  479  ASN479     -0.1961
     76  CA        23.2600   39.5920   81.7620 C.3   479  ASN479      0.1819
     77  C         24.5840   40.0220   81.1370 C.2   479  ASN479      0.2621
     78  O         24.5810   40.8510   80.2380 O.2   479  ASN479     -0.2715
     79  CB        23.1270   38.0510   81.8530 C.3   479  ASN479      0.1195
     80  CG        23.0990   37.3410   80.4980 C.2   479  ASN479      0.2630
     81  OD1       23.9700   36.5170   80.1820 O.2   479  ASN479     -0.2716
     82  ND2       22.0620   37.5990   79.7230 N.am  479  ASN479     -0.0877
     83  N         25.7000   39.4810   81.6270 N.am  480  ASN480     -0.1972
     84  CA        27.0360   39.7830   81.1020 C.3   480  ASN480      0.1688
     85  C         27.5520   38.7330   80.1290 C.2   480  ASN480      0.2292
     86  O         28.7270   38.7500   79.7560 O.2   480  ASN480     -0.2864
     87  CB        28.0190   39.9330   82.2580 C.3   480  ASN480      0.1181
     88  CG        27.5060   40.8730   83.3070 C.2   480  ASN480      0.2629
     89  OD1       27.3780   40.5170   84.4750 O.2   480  ASN480     -0.2716
     90  ND2       27.1950   42.0870   82.8850 N.am  480  ASN480     -0.0877
     91  N         32.8630   50.6170   86.9470 N.3   698  ASP698     -0.1225
     92  CA        31.7830   49.6760   86.6510 C.3   698  ASP698      0.1805
     93  C         32.0770   48.8790   85.3980 C.2   698  ASP698      0.2598
     94  O         31.1860   48.2100   84.8750 O.2   698  ASP698     -0.2718
     95  CB        30.4350   50.3970   86.5200 C.3   698  ASP698      0.1424
     96  CG        30.3140   51.2410   85.2560 C.2   698  ASP698      0.3668
     97  OD1       31.2410   51.2370   84.4140 O.co2 698  ASP698     -0.2456
     98  OD2       29.2800   51.9380   85.1160 O.co2 698  ASP698     -0.2456
     99  N         33.3090   48.9720   84.9000 N.am  699  GLY699     -0.1942
    100  CA        33.7370   48.2000   83.7420 C.3   699  GLY699      0.2014
    101  C         33.2320   48.6630   82.3950 C.2   699  GLY699      0.2638
    102  O         33.4850   48.0080   81.3820 O.2   699  GLY699     -0.2714
    103  N         32.5250   49.7890   82.3630 N.am  700  ARG700     -0.1977
    104  CA        31.9170   50.2790   81.1260 C.3   700  ARG700      0.1597
    105  C         32.3230   51.7180   80.8580 C.2   700  ARG700      0.2287
    106  O         32.6980   52.4440   81.7840 O.2   700  ARG700     -0.2864
    107  CB        30.4060   50.1090   81.2030 C.3   700  ARG700      0.0334
    108  CG        30.0640   48.6440   81.4410 C.3   700  ARG700      0.0492
    109  CD        28.7640   48.1470   80.8220 C.3   700  ARG700      0.2205
    110  NE        27.5910   48.9370   81.1630 N.pl3 700  ARG700     -0.0865
    111  CZ        26.3450   48.4800   81.0880 C.cat 700  ARG700      0.5346
    112  NH1       26.0940   47.2420   80.6710 N.pl3 700  ARG700      0.1354
    113  NH2       25.3380   49.2660   81.4300 N.pl3 700  ARG700      0.1354
    114  N         33.4680   46.7230   76.0290 N.3   788  LEU788     -0.1245
    115  CA        32.5490   47.2370   77.0510 C.3   788  LEU788      0.1561
    116  C         33.0290   48.5430   77.6910 C.2   788  LEU788      0.2260
    117  O         32.2240   49.4510   77.9380 O.2   788  LEU788     -0.2867
    118  CB        32.3120   46.2130   78.1610 C.3   788  LEU788      0.0270
    119  CG        31.6270   44.8930   77.8180 C.3   788  LEU788      0.0019
    120  CD1       31.3370   44.1280   79.0940 C.3   788  LEU788      0.0001
    121  CD2       30.3450   45.0820   77.0290 C.3   788  LEU788      0.0001
@<TRIPOS>BOND
     1   114   115    1
     2   121   119    1
     3   115   116    1
     4   115   118    1
     5   116   117    2
     6   119   118    1
     7   119   120    1
     8    82    80   am
     9    86    85    2
    10    85    84    1
    11    81    80    2
    12    78    77    2
    13    80    79    1
    14   112   111    1
    15    69    72    1
    16    69    68    1
    17    69    70    1
    18   109   110    1
    19   109   108    1
    20   105   104    1
    21   105   106    2
    22    72    73    1
    23    75    70   am
    24    75    76    1
    25    68    74    1
    26   111   110    2
    27   111   113    1
    28    84    83    1
    29    84    87    1
    30   104   107    1
    31   104   103    1
    32    77    83   am
    33    77    76    1
    34   107   108    1
    35   102   101    2
    36    74    73    1
    37    70    71    2
    38    76    79    1
    39    20    19    1
    40    87    88    1
    41   103   101   am
    42   101   100    1
    43    58    57   ar
    44    58    56   ar
    45    90    88   am
    46    57    55   ar
    47    19    18   ar
    48    19    17   ar
    49    88    89    2
    50    18    16   ar
    51   100    99    1
    52    56    54   ar
    53    17    15   ar
    54    55    54   ar
    55    97    96   ar
    56    54    53    1
    57    94    93    2
    58    16    14   ar
    59    99    93   am
    60    98    96   ar
    61    96    95    1
    62     8     6    1
    63    15    14   ar
    64    93    92    1
    65     1     2    1
    66    14    13    1
    67     2     3    1
    68     2     5    1
    69     6     5    1
    70     6     7    1
    71    53    50    1
    72    95    92    1
    73    92    91    1
    74     9     3   am
    75     9    10    1
    76     3     4    2
    77    49    50    1
    78    13    10    1
    79    50    51    1
    80    29    27   ar
    81    67    66    1
    82    10    11    1
    83    35    34    1
    84    34    31    1
    85    27    26    1
    86    27    28   ar
    87    65    66    1
    88    65    64    1
    89    51    52    2
    90    11    12    2
    91    26    25    1
    92    47    46    1
    93    47    48    2
    94    46    45    1
    95    31    30    1
    96    31    32    1
    97    64    63    1
    98    63    60    1
    99    30    23   am
   100    32    33    2
   101    25    22    1
   102    45    38   am
   103    21    22    1
   104    23    22    1
   105    23    24    2
   106    59    60    1
   107    60    61    1
   108    39    38    2
   109    38    37    1
   110    62    61    2
   111    40    37    1
   112    40    41    1
   113    37    36    1
   114    42    41    1
   115    42    43    1
   116    43    44    1
