@<TRIPOS>MOLECULE
tmp/4b5nA01.pdb
 114 112 0 0 0
SMALL
GASTEIGER

@<TRIPOS>ATOM
      1  N         25.4150    6.5780   19.4590 N.3    34  THR34      -0.1218
      2  CA        25.2540    7.5590   20.5210 C.3    34  THR34       0.1862
      3  C         26.6040    7.8940   21.1450 C.2    34  THR34       0.2287
      4  O         27.3380    7.0030   21.5410 O.2    34  THR34      -0.2866
      5  CB        24.3130    6.9740   21.5890 C.3    34  THR34       0.1770
      6  OG1       22.9790    6.9430   21.0680 O.3    34  THR34      -0.2211
      7  CG2       24.3000    7.7580   22.8720 C.3    34  THR34       0.0375
      8  N         19.7740    9.4270   28.3100 N.3    75  TYR75      -0.1241
      9  CA        21.2300    9.4690   28.4740 C.3    75  TYR75       0.1605
     10  C         21.6530   10.9130   28.3840 C.2    75  TYR75       0.2264
     11  O         20.9680   11.7270   27.7700 O.2    75  TYR75      -0.2867
     12  CB        21.9350    8.6270   27.3970 C.3    75  TYR75       0.0534
     13  CG        21.3910    7.2170   27.3110 C.ar   75  TYR75      -0.0201
     14  CD1       20.3090    6.9180   26.4770 C.ar   75  TYR75      -0.0009
     15  CD2       21.9320    6.1760   28.0710 C.ar   75  TYR75      -0.0009
     16  CE1       19.8000    5.6440   26.3980 C.ar   75  TYR75       0.0417
     17  CE2       21.4160    4.8890   27.9830 C.ar   75  TYR75       0.0417
     18  CZ        20.3610    4.6350   27.1500 C.ar   75  TYR75       0.1957
     19  OH        19.8440    3.3700   27.0540 O.3    75  TYR75      -0.2866
     20  N         13.9230    0.3160   22.4890 N.3   186  TYR186     -0.1241
     21  CA        13.3850    1.6510   22.6800 C.3   186  TYR186      0.1605
     22  C         11.8790    1.7130   22.3300 C.2   186  TYR186      0.2264
     23  O         11.2400    0.6620   22.2580 O.2   186  TYR186     -0.2867
     24  CB        14.3020    2.6680   22.0020 C.3   186  TYR186      0.0534
     25  CG        15.6550    2.6680   22.6830 C.ar  186  TYR186     -0.0201
     26  CD1       15.7960    3.0450   24.0280 C.ar  186  TYR186     -0.0009
     27  CD2       16.7910    2.2850   21.9970 C.ar  186  TYR186     -0.0009
     28  CE1       17.0290    3.0560   24.6530 C.ar  186  TYR186      0.0417
     29  CE2       18.0400    2.3070   22.6110 C.ar  186  TYR186      0.0417
     30  CZ        18.1490    2.7040   23.9350 C.ar  186  TYR186      0.1957
     31  OH        19.3780    2.7120   24.5270 O.3   186  TYR186     -0.2866
     32  N         15.2500  -10.1190   20.9280 N.3   238  ALA238     -0.1231
     33  CA        15.3920   -9.3540   22.1620 C.3   238  ALA238      0.1694
     34  C         16.7920   -9.5170   22.7190 C.2   238  ALA238      0.2592
     35  O         17.2640  -10.6250   22.8640 O.2   238  ALA238     -0.2718
     36  CB        14.3570   -9.8060   23.1810 C.3   238  ALA238      0.0304
     37  N         17.4400   -8.4210   23.0600 N.am  239  TYR239     -0.1962
     38  CA        18.7680   -8.5070   23.6410 C.3   239  TYR239      0.1771
     39  C         19.2030   -7.3170   24.4810 C.2   239  TYR239      0.2619
     40  O         20.1020   -7.4660   25.2790 O.2   239  TYR239     -0.2715
     41  CB        19.7930   -8.7590   22.5450 C.3   239  TYR239      0.0574
     42  CG        20.1680   -7.5380   21.7450 C.ar  239  TYR239     -0.0198
     43  CD1       19.3030   -7.0110   20.8020 C.ar  239  TYR239     -0.0009
     44  CD2       21.3980   -6.9150   21.9190 C.ar  239  TYR239     -0.0009
     45  CE1       19.6520   -5.8760   20.0740 C.ar  239  TYR239      0.0417
     46  CE2       21.7520   -5.8180   21.1970 C.ar  239  TYR239      0.0417
     47  CZ        20.8830   -5.2950   20.2840 C.ar  239  TYR239      0.1957
     48  OH        21.2870   -4.1860   19.5790 O.3   239  TYR239     -0.2866
     49  N         18.5810   -6.1300   24.3630 N.am  240  PHE240     -0.1974
     50  CA        18.9650   -4.9350   25.1610 C.3   240  PHE240      0.1639
     51  C         17.7250   -4.3290   25.8550 C.2   240  PHE240      0.2290
     52  O         16.7700   -3.8880   25.1940 O.2   240  PHE240     -0.2864
     53  CB        19.6860   -3.9050   24.2660 C.3   240  PHE240      0.0560
     54  CG        20.2550   -2.7070   24.9960 C.ar  240  PHE240     -0.0200
     55  CD1       21.2040   -2.8610   25.9840 C.ar  240  PHE240     -0.0042
     56  CD2       19.8780   -1.4230   24.6480 C.ar  240  PHE240     -0.0042
     57  CE1       21.7310   -1.7640   26.6400 C.ar  240  PHE240     -0.0003
     58  CE2       20.4120   -0.3290   25.3090 C.ar  240  PHE240     -0.0003
     59  CZ        21.3280   -0.4980   26.2990 C.ar  240  PHE240     -0.0000
     60  N         24.2850   -6.4090   17.9630 N.3   272  PHE272     -0.1241
     61  CA        25.7250   -6.1570   18.1310 C.3   272  PHE272      0.1605
     62  C         26.6190   -7.2090   17.4850 C.2   272  PHE272      0.2264
     63  O         27.7080   -6.8900   17.0370 O.2   272  PHE272     -0.2867
     64  CB        26.0990   -5.9530   19.6120 C.3   272  PHE272      0.0534
     65  CG        25.8950   -4.5410   20.0840 C.ar  272  PHE272     -0.0203
     66  CD1       24.6270   -3.9800   20.0830 C.ar  272  PHE272     -0.0042
     67  CD2       26.9450   -3.7730   20.5240 C.ar  272  PHE272     -0.0042
     68  CE1       24.4150   -2.7040   20.5390 C.ar  272  PHE272     -0.0003
     69  CE2       26.7240   -2.4680   20.9710 C.ar  272  PHE272     -0.0003
     70  CZ        25.4550   -1.9670   20.9910 C.ar  272  PHE272     -0.0000
     71  N         25.3590  -14.2980   16.0240 N.3   276  ILE276     -0.1231
     72  CA        24.5520  -14.9670   17.0410 C.3   276  ILE276      0.1692
     73  C         23.2570  -15.4750   16.4490 C.2   276  ILE276      0.2592
     74  O         22.5540  -14.7700   15.7230 O.2   276  ILE276     -0.2718
     75  CB        24.2200  -14.0020   18.2150 C.3   276  ILE276      0.0266
     76  CG1       25.4960  -13.6510   18.9870 C.3   276  ILE276      0.0019
     77  CG2       23.1220  -14.5530   19.1330 C.3   276  ILE276      0.0020
     78  CD1       25.3240  -12.5510   20.0080 C.3   276  ILE276      0.0001
     79  N         22.9440  -16.7280   16.7380 N.am  277  GLU277     -0.1966
     80  CA        21.6520  -17.2730   16.3790 C.3   277  GLU277      0.1733
     81  C         20.6410  -17.1180   17.5120 C.2   277  GLU277      0.2616
     82  O         20.9520  -17.3940   18.6820 O.2   277  GLU277     -0.2715
     83  CB        21.8050  -18.7470   16.0020 C.3   277  GLU277      0.0429
     84  CG        22.6590  -18.9620   14.7670 C.3   277  GLU277      0.1163
     85  CD        23.0060  -20.4180   14.5300 C.2   277  GLU277      0.3649
     86  OE1       22.7460  -21.2470   15.4280 O.co2 277  GLU277     -0.2457
     87  OE2       23.5430  -20.7270   13.4450 O.co2 277  GLU277     -0.2457
     88  N         19.4260  -16.7520   17.1510 N.am  278  PHE278     -0.1974
     89  CA        18.3320  -16.6440   18.1010 C.3   278  PHE278      0.1639
     90  C         17.4140  -17.8390   17.9540 C.2   278  PHE278      0.2290
     91  O         16.8790  -18.0730   16.8700 O.2   278  PHE278     -0.2864
     92  CB        17.5190  -15.3880   17.8210 C.3   278  PHE278      0.0560
     93  CG        18.1940  -14.1220   18.2010 C.ar  278  PHE278     -0.0200
     94  CD1       19.0810  -13.5000   17.3390 C.ar  278  PHE278     -0.0042
     95  CD2       17.9050  -13.5230   19.4170 C.ar  278  PHE278     -0.0042
     96  CE1       19.6880  -12.3020   17.6970 C.ar  278  PHE278     -0.0003
     97  CE2       18.4870  -12.3390   19.7910 C.ar  278  PHE278     -0.0003
     98  CZ        19.3900  -11.7180   18.9400 C.ar  278  PHE278     -0.0000
     99  N         36.3310    0.2550   24.2920 N.3   347  ASP347     -0.1239
    100  CA        35.3530    1.1450   24.9170 C.3   347  ASP347      0.1674
    101  C         35.9700    2.4510   25.4120 C.2   347  ASP347      0.2266
    102  O         35.3040    3.4830   25.5220 O.2   347  ASP347     -0.2867
    103  CB        34.6780    0.4340   26.0930 C.3   347  ASP347      0.1410
    104  CG        33.6520    1.3040   26.7860 C.2   347  ASP347      0.3668
    105  OD1       32.4970    1.3450   26.3150 O.co2 347  ASP347     -0.2456
    106  OD2       33.9990    1.9540   27.7970 O.co2 347  ASP347     -0.2456
    107  N         35.4260    5.8870   23.6510 N.3   350  LEU350     -0.1245
    108  CA        34.2160    6.6930   23.7370 C.3   350  LEU350      0.1561
    109  C         34.4560    8.0120   24.4500 C.2   350  LEU350      0.2260
    110  O         33.6720    8.9430   24.3080 O.2   350  LEU350     -0.2867
    111  CB        33.0960    5.9080   24.4240 C.3   350  LEU350      0.0270
    112  CG        32.6320    4.6680   23.6420 C.3   350  LEU350      0.0019
    113  CD1       31.5570    3.9690   24.4030 C.3   350  LEU350      0.0001
    114  CD2       32.1410    5.0480   22.2360 C.3   350  LEU350      0.0001
@<TRIPOS>BOND
     1    87    85   ar
     2    85    84    1
     3    85    86   ar
     4    84    83    1
     5    74    73    2
     6    83    80    1
     7    71    72    1
     8    80    79    1
     9    80    81    1
    10    73    79   am
    11    73    72    1
    12    91    90    2
    13    63    62    2
    14    72    75    1
    15    88    81   am
    16    88    89    1
    17    94    96   ar
    18    94    93   ar
    19    62    61    1
    20    81    82    2
    21    96    98   ar
    22    92    89    1
    23    92    93    1
    24    90    89    1
    25    60    61    1
    26    61    64    1
    27    93    95   ar
    28    75    76    1
    29    75    77    1
    30    98    97   ar
    31    76    78    1
    32    95    97   ar
    33     1     2    1
    34    48    47    1
    35    64    65    1
    36    45    47   ar
    37    45    43   ar
    38    66    65   ar
    39    66    68   ar
    40    65    67   ar
    41    47    46   ar
    42     2     3    1
    43     2     5    1
    44    67    69   ar
    45    68    70   ar
    46    43    42   ar
    47    32    33    1
    48    69    70   ar
    49     6     5    1
    50     3     4    2
    51    46    44   ar
    52     5     7    1
    53    42    44   ar
    54    42    41    1
    55    27    29   ar
    56    27    25   ar
    57    24    21    1
    58    24    25    1
    59    33    34    1
    60    33    36    1
    61   114   112    1
    62    23    22    2
    63    22    21    1
    64    20    21    1
    65    41    38    1
    66    29    30   ar
    67    25    26   ar
    68    34    35    2
    69    34    37   am
    70    37    38    1
    71    38    39    1
    72   112   113    1
    73   112   111    1
    74   107   108    1
    75   108   111    1
    76   108   109    1
    77    30    31    1
    78    30    28   ar
    79    26    28   ar
    80    53    54    1
    81    53    50    1
    82    99   100    1
    83   110   109    2
    84    49    39   am
    85    49    50    1
    86    39    40    2
    87    56    54   ar
    88    56    58   ar
    89   100   101    1
    90   100   103    1
    91    54    55   ar
    92    50    51    1
    93    52    51    2
    94    58    59   ar
    95   101   102    2
    96    55    57   ar
    97   103   104    1
    98    59    57   ar
    99   105   104   ar
   100    16    14   ar
   101    16    18   ar
   102    14    13   ar
   103   104   106   ar
   104    19    18    1
   105    18    17   ar
   106    13    12    1
   107    13    15   ar
   108    12     9    1
   109    11    10    2
   110    17    15   ar
   111     8     9    1
   112    10     9    1
