@<TRIPOS>MOLECULE
tmp/4b5tB00.pdb
 96 93 0 0 0
SMALL
GASTEIGER

@<TRIPOS>ATOM
      1  N        -34.2050  -29.3720   -4.8620 N.3    19  TRP19      -0.1241
      2  CA       -34.0410  -29.0040   -6.2740 C.3    19  TRP19       0.1605
      3  C        -33.1020  -27.8050   -6.3580 C.2    19  TRP19       0.2264
      4  O        -33.2530  -26.8510   -5.5960 O.2    19  TRP19      -0.2867
      5  CB       -35.3900  -28.6220   -6.8260 C.3    19  TRP19       0.0550
      6  CG       -35.6630  -29.0020   -8.2330 C.ar   19  TRP19       0.0003
      7  CD1      -35.5510  -28.2090   -9.3350 C.ar   19  TRP19       0.0946
      8  CD2      -36.1570  -30.2560   -8.6880 C.ar   19  TRP19       0.0152
      9  NE1      -35.9320  -28.8970  -10.4450 N.ar   19  TRP19      -0.2442
     10  CE2      -36.3280  -30.1520  -10.0760 C.ar   19  TRP19       0.0810
     11  CE3      -36.5010  -31.4510   -8.0510 C.ar   19  TRP19       0.0012
     12  CZ2      -36.7960  -31.2050  -10.8390 C.ar   19  TRP19       0.0191
     13  CZ3      -36.9560  -32.4890   -8.8100 C.ar   19  TRP19       0.0001
     14  CH2      -37.1100  -32.3610  -10.1860 C.ar   19  TRP19       0.0015
     15  N        -35.1280  -26.4440  -16.6400 N.3    45  HIS45      -0.1241
     16  CA       -35.8270  -25.2250  -16.3030 C.3    45  HIS45       0.1621
     17  C        -34.9830  -24.1750  -15.6030 C.2    45  HIS45       0.2264
     18  O        -35.5040  -23.2010  -15.1450 O.2    45  HIS45      -0.2867
     19  CB       -37.0770  -25.5550  -15.4960 C.3    45  HIS45       0.0745
     20  CG       -38.2050  -26.0740  -16.3250 C.ar   45  HIS45       0.0817
     21  ND1      -38.9260  -25.3140  -17.0960 N.ar   45  HIS45      -0.2268
     22  CD2      -38.6930  -27.3350  -16.4830 C.ar   45  HIS45       0.1154
     23  CE1      -39.8110  -26.0360  -17.7200 C.ar   45  HIS45       0.1986
     24  NE2      -39.6660  -27.2690  -17.3520 N.ar   45  HIS45      -0.2212
     25  N        -30.9060  -33.4260  -14.3300 N.3    70  ARG70      -0.1245
     26  CA       -31.9910  -33.4270  -15.2810 C.3    70  ARG70       0.1563
     27  C        -31.5600  -32.7570  -16.6050 C.2    70  ARG70       0.2260
     28  O        -31.3200  -31.5550  -16.6340 O.2    70  ARG70      -0.2867
     29  CB       -33.1940  -32.6790  -14.7270 C.3    70  ARG70       0.0307
     30  CG       -34.2720  -32.5420  -15.7690 C.3    70  ARG70       0.0489
     31  CD       -35.6800  -32.4200  -15.2220 C.3    70  ARG70       0.2205
     32  NE       -35.9840  -31.0870  -14.7270 N.pl3  70  ARG70      -0.0865
     33  CZ       -37.2000  -30.7140  -14.3460 C.cat  70  ARG70       0.5346
     34  NH1      -38.1970  -31.6060  -14.3610 N.pl3  70  ARG70       0.1354
     35  NH2      -37.4090  -29.4750  -13.9190 N.pl3  70  ARG70       0.1354
     36  N        -39.4970  -39.2060  -16.1900 N.3   147  GLN147     -0.1245
     37  CA       -40.6110  -38.3550  -15.7770 C.3   147  GLN147      0.1566
     38  C        -41.8750  -38.6430  -16.5920 C.2   147  GLN147      0.2260
     39  O        -41.8620  -38.6440  -17.8330 O.2   147  GLN147     -0.2867
     40  CB       -40.2890  -36.8720  -15.9710 C.3   147  GLN147      0.0367
     41  CG       -39.2330  -36.3270  -15.0350 C.3   147  GLN147      0.0905
     42  CD       -39.1710  -34.7990  -15.0680 C.2   147  GLN147      0.2608
     43  OE1      -38.0980  -34.2220  -15.1350 O.2   147  GLN147     -0.2717
     44  NE2      -40.3330  -34.1460  -15.0170 N.am  147  GLN147     -0.0878
     45  N        -45.4810  -37.0870  -17.3420 N.3   149  GLU149     -0.1245
     46  CA       -45.9520  -35.7170  -17.2040 C.3   149  GLU149      0.1567
     47  C        -47.2430  -35.4340  -17.9510 C.2   149  GLU149      0.2260
     48  O        -47.6950  -34.2900  -17.9760 O.2   149  GLU149     -0.2867
     49  CB       -44.8740  -34.7230  -17.6960 C.3   149  GLU149      0.0388
     50  CG       -43.4890  -35.0340  -17.1840 C.3   149  GLU149      0.1160
     51  CD       -42.5270  -33.8510  -17.2360 C.2   149  GLU149      0.3649
     52  OE1      -42.7560  -32.8870  -16.4600 O.co2 149  GLU149     -0.2457
     53  OE2      -41.5220  -33.9070  -18.0000 O.co2 149  GLU149     -0.2457
     54  N        -40.7570  -40.7000  -12.0150 N.3   170  PHE170     -0.1241
     55  CA       -40.9710  -39.4580  -11.3200 C.3   170  PHE170      0.1605
     56  C        -42.2100  -38.8220  -11.9170 C.2   170  PHE170      0.2264
     57  O        -42.3950  -38.7860  -13.1460 O.2   170  PHE170     -0.2867
     58  CB       -39.7370  -38.5540  -11.5080 C.3   170  PHE170      0.0534
     59  CG       -39.8840  -37.1460  -10.9690 C.ar  170  PHE170     -0.0203
     60  CD1      -40.4940  -36.1690  -11.7150 C.ar  170  PHE170     -0.0042
     61  CD2      -39.3540  -36.7940   -9.7420 C.ar  170  PHE170     -0.0042
     62  CE1      -40.5840  -34.8750  -11.2330 C.ar  170  PHE170     -0.0003
     63  CE2      -39.4530  -35.4860   -9.2570 C.ar  170  PHE170     -0.0003
     64  CZ       -40.0560  -34.5420  -10.0050 C.ar  170  PHE170     -0.0000
     65  N        -44.3480  -35.3920  -12.3350 N.3   172  GLY172     -0.1210
     66  CA       -44.2430  -33.9440  -12.2430 C.3   172  GLY172      0.1940
     67  C        -45.6400  -33.3520  -12.1410 C.2   172  GLY172      0.2454
     68  O        -46.3480  -33.2930  -13.1410 O.2   172  GLY172     -0.2732
     69  N        -46.0510  -32.9520  -10.9310 N.am  173  PRO173     -0.2717
     70  CA       -47.4430  -32.5290  -10.6850 C.3   173  PRO173      0.1535
     71  C        -47.8780  -31.3100  -11.4810 C.2   173  PRO173      0.2598
     72  O        -49.0250  -31.2900  -11.9110 O.2   173  PRO173     -0.2715
     73  CB       -47.4560  -32.2010   -9.1860 C.3   173  PRO173      0.0310
     74  CG       -46.2430  -32.9100   -8.6360 C.3   173  PRO173      0.0237
     75  CD       -45.2390  -32.8610   -9.7070 C.3   173  PRO173      0.0939
     76  N        -46.9960  -30.3360  -11.6690 N.am  174  ALA174     -0.1964
     77  CA       -47.3380  -29.0950  -12.3920 C.3   174  ALA174      0.1728
     78  C        -47.6490  -29.3680  -13.8640 C.2   174  ALA174      0.2616
     79  O        -48.7180  -29.0130  -14.3550 O.2   174  ALA174     -0.2715
     80  CB       -46.2070  -28.0930  -12.2750 C.3   174  ALA174      0.0334
     81  N        -46.7180  -30.0220  -14.5490 N.am  175  ASP175     -0.1971
     82  CA       -46.9170  -30.4360  -15.9320 C.3   175  ASP175      0.1709
     83  C        -48.1260  -31.3790  -16.0660 C.2   175  ASP175      0.2293
     84  O        -48.9170  -31.2520  -16.9830 O.2   175  ASP175     -0.2864
     85  CB       -45.6440  -31.1080  -16.4910 C.3   175  ASP175      0.1436
     86  CG       -44.6650  -30.1080  -17.1120 C.2   175  ASP175      0.3671
     87  OD1      -45.1020  -29.1980  -17.8430 O.co2 175  ASP175     -0.2456
     88  OD2      -43.4430  -30.2340  -16.8880 O.co2 175  ASP175     -0.2456
     89  N        -41.6120  -34.1170   -6.9080 N.3   212  LEU212     -0.1245
     90  CA       -41.2190  -32.8500   -6.3220 C.3   212  LEU212      0.1561
     91  C        -42.4730  -32.2430   -5.7540 C.2   212  LEU212      0.2260
     92  O        -43.4480  -32.1030   -6.4680 O.2   212  LEU212     -0.2867
     93  CB       -40.6870  -31.8730   -7.3840 C.3   212  LEU212      0.0270
     94  CG       -40.5120  -30.4180   -6.9290 C.3   212  LEU212      0.0019
     95  CD1      -39.5260  -30.2850   -5.7430 C.3   212  LEU212      0.0001
     96  CD2      -40.0650  -29.5150   -8.0900 C.3   212  LEU212      0.0001
@<TRIPOS>BOND
     1    53    51   ar
     2    48    47    2
     3    47    46    1
     4    87    86   ar
     5    39    38    2
     6    23    24   ar
     7    23    21   ar
     8    49    46    1
     9    49    50    1
    10    24    22   ar
    11    45    46    1
    12    51    50    1
    13    51    52   ar
    14    86    88   ar
    15    86    85    1
    16    21    20   ar
    17    84    83    2
    18    15    16    1
    19    28    27    2
    20    27    26    1
    21    38    37    1
    22    85    82    1
    23    22    20   ar
    24    20    19    1
    25    16    17    1
    26    16    19    1
    27    36    37    1
    28    83    82    1
    29    40    37    1
    30    40    41    1
    31    82    81    1
    32    30    31    1
    33    30    29    1
    34    17    18    2
    35    26    29    1
    36    26    25    1
    37    31    32    1
    38    43    42    2
    39    42    41    1
    40    42    44   am
    41    32    33    2
    42    81    78   am
    43    34    33    1
    44    79    78    2
    45    33    35    1
    46    78    77    1
    47    57    56    2
    48    68    67    2
    49    77    80    1
    50    77    76    1
    51    65    66    1
    52    66    67    1
    53    67    69   am
    54    54    55    1
    55    56    55    1
    56    72    71    2
    57    60    62   ar
    58    60    59   ar
    59    76    71   am
    60    58    55    1
    61    58    59    1
    62    71    70    1
    63    62    64   ar
    64    59    61   ar
    65    69    70    1
    66    69    75    1
    67    12    14   ar
    68    12    10   ar
    69    70    73    1
    70     9    10   ar
    71     9     7   ar
    72    14    13   ar
    73    10     8   ar
    74    64    63   ar
    75    61    63   ar
    76    75    74    1
    77     7     6   ar
    78    73    74    1
    79    13    11   ar
    80     8     6   ar
    81     8    11   ar
    82     6     5    1
    83    96    94    1
    84    93    94    1
    85    93    90    1
    86    94    95    1
    87    89    90    1
    88     5     2    1
    89    92    91    2
    90     3     2    1
    91     3     4    2
    92    90    91    1
    93     2     1    1
