@<TRIPOS>MOLECULE
tmp/4b5vA00.pdb
 111 106 0 0 0
SMALL
GASTEIGER

@<TRIPOS>ATOM
      1  N        -28.4130   -8.0630    2.5780 N.3    19  TRP19      -0.1241
      2  CA       -27.0070   -8.2610    2.2530 C.3    19  TRP19       0.1605
      3  C        -26.8900   -9.3230    1.1620 C.2    19  TRP19       0.2264
      4  O        -27.5100  -10.3800    1.2590 O.2    19  TRP19      -0.2867
      5  CB       -26.2750   -8.7320    3.5080 C.3    19  TRP19       0.0550
      6  CG       -24.8730   -8.2310    3.6740 C.ar   19  TRP19       0.0003
      7  CD1      -23.7210   -8.8900    3.3440 C.ar   19  TRP19       0.0946
      8  CD2      -24.4700   -6.9790    4.2430 C.ar   19  TRP19       0.0152
      9  NE1      -22.6280   -8.1220    3.6690 N.ar   19  TRP19      -0.2442
     10  CE2      -23.0610   -6.9450    4.2220 C.ar   19  TRP19       0.0810
     11  CE3      -25.1640   -5.8840    4.7690 C.ar   19  TRP19       0.0012
     12  CZ2      -22.3340   -5.8570    4.7030 C.ar   19  TRP19       0.0191
     13  CZ3      -24.4410   -4.8060    5.2450 C.ar   19  TRP19       0.0001
     14  CH2      -23.0400   -4.8010    5.2100 C.ar   19  TRP19       0.0015
     15  N        -21.5300   -7.2760   -1.5700 N.3    42  ASP42      -0.1239
     16  CA       -20.3870   -7.3510   -0.6740 C.3    42  ASP42       0.1674
     17  C        -19.1090   -7.7760   -1.3910 C.2    42  ASP42       0.2266
     18  O        -18.9490   -8.9390   -1.7510 O.2    42  ASP42      -0.2867
     19  CB       -20.6860   -8.3320    0.4580 C.3    42  ASP42       0.1410
     20  CG       -19.6830   -8.2430    1.5800 C.2    42  ASP42       0.3668
     21  OD1      -18.6490   -7.5600    1.4080 O.co2  42  ASP42      -0.2456
     22  OD2      -19.9310   -8.8530    2.6390 O.co2  42  ASP42      -0.2456
     23  N        -16.3930   -9.6500    1.8860 N.3    45  HIS45      -0.1241
     24  CA       -16.5330  -10.9560    2.5270 C.3    45  HIS45       0.1621
     25  C        -17.2490  -11.9920    1.6640 C.2    45  HIS45       0.2264
     26  O        -17.5490  -13.0930    2.1260 O.2    45  HIS45      -0.2867
     27  CB       -17.2280  -10.8020    3.8840 C.3    45  HIS45       0.0745
     28  CG       -16.3070  -10.3550    4.9770 C.ar   45  HIS45       0.0817
     29  ND1      -15.3180  -11.1660    5.4940 N.ar   45  HIS45      -0.2268
     30  CD2      -16.2150   -9.1790    5.6430 C.ar   45  HIS45       0.1154
     31  CE1      -14.6610  -10.5100    6.4350 C.ar   45  HIS45       0.1986
     32  NE2      -15.1850   -9.3020    6.5460 N.ar   45  HIS45      -0.2212
     33  N        -19.8400   -2.6230   -1.1960 N.3    70  ARG70      -0.1245
     34  CA       -18.7360   -2.6070   -0.2470 C.3    70  ARG70       0.1563
     35  C        -17.4420   -3.0960   -0.8930 C.2    70  ARG70       0.2260
     36  O        -17.3300   -4.2720   -1.2380 O.2    70  ARG70      -0.2867
     37  CB       -19.0450   -3.4870    0.9630 C.3    70  ARG70       0.0307
     38  CG       -17.8500   -3.6230    1.8970 C.3    70  ARG70       0.0489
     39  CD       -18.2560   -3.9700    3.3110 C.3    70  ARG70       0.2205
     40  NE       -18.5300   -5.3920    3.4810 N.pl3  70  ARG70      -0.0865
     41  CZ       -18.7520   -5.9690    4.6590 C.cat  70  ARG70       0.5346
     42  NH1      -18.7430   -5.2410    5.7690 N.pl3  70  ARG70       0.1354
     43  NH2      -18.9890   -7.2700    4.7270 N.pl3  70  ARG70       0.1354
     44  N        -17.5840    2.4320    7.7740 N.3   147  GLN147     -0.1245
     45  CA       -17.7730    1.4480    8.8300 C.3   147  GLN147      0.1566
     46  C        -16.8580    1.7140   10.0170 C.2   147  GLN147      0.2260
     47  O        -15.6460    1.8610    9.8590 O.2   147  GLN147     -0.2867
     48  CB       -17.4920    0.0350    8.3180 C.3   147  GLN147      0.0367
     49  CG       -18.4870   -0.4850    7.2980 C.3   147  GLN147      0.0905
     50  CD       -18.3560   -1.9830    7.0560 C.2   147  GLN147      0.2608
     51  OE1      -18.3980   -2.4430    5.9170 O.2   147  GLN147     -0.2717
     52  NE2      -18.2110   -2.7500    8.1290 N.am  147  GLN147     -0.0878
     53  N        -15.6000   -0.1740   13.3490 N.3   149  GLU149     -0.1245
     54  CA       -15.5500   -1.5830   13.7210 C.3   149  GLU149      0.1567
     55  C        -14.6130   -1.8840   14.8860 C.2   149  GLU149      0.2260
     56  O        -14.3690   -3.0470   15.1950 O.2   149  GLU149     -0.2867
     57  CB       -15.0980   -2.4120   12.5170 C.3   149  GLU149      0.0388
     58  CG       -15.5630   -1.8770   11.1780 C.3   149  GLU149      0.1160
     59  CD       -15.5560   -2.9500   10.1090 C.2   149  GLU149      0.3649
     60  OE1      -16.2320   -3.9730   10.3220 O.co2 149  GLU149     -0.2457
     61  OE2      -14.8840   -2.7800    9.0670 O.co2 149  GLU149     -0.2457
     62  N        -21.7730    3.3000    9.5590 N.3   170  PHE170     -0.1241
     63  CA       -22.3010    1.9570    9.7210 C.3   170  PHE170      0.1605
     64  C        -21.5540    1.2560   10.8460 C.2   170  PHE170      0.2264
     65  O        -20.3290    1.3510   10.9430 O.2   170  PHE170     -0.2867
     66  CB       -22.1220    1.2020    8.3990 C.3   170  PHE170      0.0534
     67  CG       -22.4840   -0.2530    8.4580 C.ar  170  PHE170     -0.0203
     68  CD1      -21.5670   -1.1910    8.8990 C.ar  170  PHE170     -0.0042
     69  CD2      -23.7310   -0.6880    8.0420 C.ar  170  PHE170     -0.0042
     70  CE1      -21.8930   -2.5300    8.9370 C.ar  170  PHE170     -0.0003
     71  CE2      -24.0600   -2.0240    8.0790 C.ar  170  PHE170     -0.0003
     72  CZ       -23.1410   -2.9480    8.5220 C.ar  170  PHE170     -0.0000
     73  N        -20.6510   -2.3530   12.4120 N.3   172  GLY172     -0.1210
     74  CA       -20.6250   -3.7870   12.2020 C.3   172  GLY172      0.1940
     75  C        -20.4560   -4.4910   13.5330 C.2   172  GLY172      0.2454
     76  O        -19.3630   -4.4930   14.0910 O.2   172  GLY172     -0.2732
     77  N        -21.5400   -5.0930   14.0520 N.am  173  PRO173     -0.2717
     78  CA       -21.5150   -5.6800   15.3970 C.3   173  PRO173      0.1535
     79  C        -20.5450   -6.8460   15.5360 C.2   173  PRO173      0.2598
     80  O        -19.9780   -7.0280   16.6120 O.2   173  PRO173     -0.2715
     81  CB       -22.9560   -6.1700   15.5960 C.3   173  PRO173      0.0310
     82  CG       -23.7660   -5.4060   14.6100 C.3   173  PRO173      0.0237
     83  CD       -22.8710   -5.2090   13.4340 C.3   173  PRO173      0.0939
     84  N        -20.3670   -7.6200   14.4710 N.am  174  ALA174     -0.1964
     85  CA       -19.4810   -8.7800   14.5070 C.3   174  ALA174      0.1728
     86  C        -18.0370   -8.3590   14.7580 C.2   174  ALA174      0.2616
     87  O        -17.4020   -8.8310   15.6990 O.2   174  ALA174     -0.2715
     88  CB       -19.5830   -9.5640   13.2070 C.3   174  ALA174      0.0334
     89  N        -17.5250   -7.4730   13.9100 N.am  175  ASP175     -0.1971
     90  CA       -16.1600   -6.9810   14.0520 C.3   175  ASP175      0.1709
     91  C        -15.9690   -6.1860   15.3400 C.2   175  ASP175      0.2293
     92  O        -14.9460   -6.3180   16.0090 O.2   175  ASP175     -0.2864
     93  CB       -15.7640   -6.1190   12.8510 C.3   175  ASP175      0.1436
     94  CG       -15.0560   -6.9160   11.7660 C.2   175  ASP175      0.3671
     95  OD1      -14.4270   -7.9440   12.0850 O.co2 175  ASP175     -0.2456
     96  OD2      -15.1120   -6.5070   10.5910 O.co2 175  ASP175     -0.2456
     97  N        -26.0280   -3.8570   10.2810 N.3   212  LEU212     -0.1245
     98  CA       -26.5760   -5.1330    9.8390 C.3   212  LEU212      0.1561
     99  C        -26.8980   -5.9540   11.0690 C.2   212  LEU212      0.2260
    100  O        -26.0750   -6.0690   11.9710 O.2   212  LEU212     -0.2867
    101  CB       -25.5780   -5.8960    8.9600 C.3   212  LEU212      0.0270
    102  CG       -25.8600   -7.3960    8.7970 C.3   212  LEU212      0.0019
    103  CD1      -27.0880   -7.6430    7.9360 C.3   212  LEU212      0.0001
    104  CD2      -24.6570   -8.1190    8.2190 C.3   212  LEU212      0.0001
    105  N        -29.2970  -11.6490    5.4000 N.3   234  VAL234     -0.1245
    106  CA       -28.2180  -11.9640    4.4730 C.3   234  VAL234      0.1561
    107  C        -28.7110  -13.0690    3.5520 C.2   234  VAL234      0.2260
    108  O        -29.2900  -14.0470    4.0210 O.2   234  VAL234     -0.2867
    109  CB       -26.9720  -12.4650    5.2300 C.3   234  VAL234      0.0252
    110  CG1      -25.8390  -12.7890    4.2580 C.3   234  VAL234      0.0019
    111  CG2      -26.5250  -11.4380    6.2650 C.3   234  VAL234      0.0019
@<TRIPOS>BOND
     1    18    17    2
     2    15    16    1
     3    17    16    1
     4    36    35    2
     5    33    34    1
     6    35    34    1
     7    16    19    1
     8    34    37    1
     9    19    20    1
    10    37    38    1
    11     3     4    2
    12     3     2    1
    13    21    20   ar
    14    20    22   ar
    15    25    26    2
    16    25    24    1
    17    23    24    1
    18    38    39    1
    19     2     1    1
    20     2     5    1
    21    24    27    1
    22    39    40    1
    23     7     9   ar
    24     7     6   ar
    25    40    41    2
    26     5     6    1
    27   107   108    2
    28   107   106    1
    29     9    10   ar
    30     6     8   ar
    31    27    28    1
    32    10     8   ar
    33    10    12   ar
    34     8    11   ar
    35   110   109    1
    36   106   109    1
    37   106   105    1
    38    41    43    1
    39    41    42    1
    40    12    14   ar
    41    11    13   ar
    42    28    29   ar
    43    28    30   ar
    44    14    13   ar
    45   109   111    1
    46    29    31   ar
    47    30    32   ar
    48    51    50    2
    49    31    32   ar
    50    50    49    1
    51    50    52   am
    52    49    48    1
    53    44    45    1
    54   103   102    1
    55    69    71   ar
    56    69    67   ar
    57    71    72   ar
    58   104   102    1
    59    48    45    1
    60    66    67    1
    61    66    63    1
    62    67    68   ar
    63    72    70   ar
    64   102   101    1
    65    45    46    1
    66    68    70   ar
    67   101    98    1
    68    61    59   ar
    69    62    63    1
    70    63    64    1
    71    98    97    1
    72    98    99    1
    73    47    46    2
    74    59    60   ar
    75    59    58    1
    76    96    94   ar
    77    64    65    2
    78    99   100    2
    79    58    57    1
    80    94    95   ar
    81    94    93    1
    82    74    73    1
    83    74    75    1
    84    57    54    1
    85    93    90    1
    86    88    85    1
    87    53    54    1
    88    83    77    1
    89    83    82    1
    90    75    77   am
    91    75    76    2
    92    54    55    1
    93    89    90    1
    94    89    86   am
    95    90    91    1
    96    77    78    1
    97    84    85    1
    98    84    79   am
    99    85    86    1
   100    82    81    1
   101    86    87    2
   102    55    56    2
   103    91    92    2
   104    78    79    1
   105    78    81    1
   106    79    80    2
