@<TRIPOS>MOLECULE
tmp/4b61B09.pdb
 144 149 0 0 0
SMALL
GASTEIGER

@<TRIPOS>ATOM
      1  N        -29.0720   20.3620  -56.2390 N.3     2  PRO2       -0.2116
      2  CA       -28.7350   20.3360  -54.8090 C.3     2  PRO2        0.1372
      3  C        -29.3720   19.1760  -54.0420 C.2     2  PRO2        0.2244
      4  O        -30.5940   19.0540  -54.0400 O.2     2  PRO2       -0.2868
      5  CB       -29.3090   21.6660  -54.2900 C.3     2  PRO2        0.0268
      6  CG       -30.3210   22.0540  -55.2690 C.3     2  PRO2        0.0207
      7  CD       -29.7640   21.6150  -56.5810 C.3     2  PRO2        0.0892
      8  N        -30.9780   17.2440  -51.3630 N.3     4  ASN4       -0.1225
      9  CA       -31.7910   17.8490  -50.3180 C.3     4  ASN4        0.1785
     10  C        -31.7610   17.1340  -48.9840 C.2     4  ASN4        0.2597
     11  O        -32.1470   17.7070  -47.9630 O.2     4  ASN4       -0.2718
     12  CB       -33.2390   17.9610  -50.7740 C.3     4  ASN4        0.1169
     13  CG       -33.4130   18.9770  -51.8720 C.2     4  ASN4        0.2627
     14  OD1      -32.6110   19.9020  -52.0110 O.2     4  ASN4       -0.2716
     15  ND2      -34.4580   18.8110  -52.6710 N.am    4  ASN4       -0.0877
     16  N        -31.2620   15.9030  -48.9810 N.am    5  PHE5       -0.1976
     17  CA       -31.1480   15.1330  -47.7480 C.3     5  PHE5        0.1639
     18  C        -30.1180   14.0310  -47.9230 C.2     5  PHE5        0.2290
     19  O        -29.8170   13.5860  -49.0310 O.2     5  PHE5       -0.2864
     20  CB       -32.4860   14.5430  -47.2230 C.3     5  PHE5        0.0560
     21  CG       -33.6990   15.4260  -47.3860 C.ar    5  PHE5       -0.0200
     22  CD1      -34.4240   15.4190  -48.5690 C.ar    5  PHE5       -0.0042
     23  CD2      -34.1490   16.2170  -46.3370 C.ar    5  PHE5       -0.0042
     24  CE1      -35.5490   16.2130  -48.7190 C.ar    5  PHE5       -0.0003
     25  CE2      -35.2750   17.0130  -46.4810 C.ar    5  PHE5       -0.0003
     26  CZ       -35.9760   17.0090  -47.6730 C.ar    5  PHE5       -0.0000
     27  N        -30.3520   18.0120  -43.9410 N.3    40  ALA40      -0.1231
     28  CA       -31.3370   18.5500  -44.8580 C.3    40  ALA40       0.1694
     29  C        -30.7340   19.8240  -45.4150 C.2    40  ALA40       0.2592
     30  O        -30.1010   20.5880  -44.6860 O.2    40  ALA40      -0.2718
     31  CB       -32.6200   18.8580  -44.1150 C.3    40  ALA40       0.0304
     32  N        -30.9270   20.0610  -46.7060 N.am   41  PHE41      -0.1962
     33  CA       -30.3960   21.2620  -47.3220 C.3    41  PHE41       0.1771
     34  C        -31.4070   21.7280  -48.3540 C.2    41  PHE41       0.2620
     35  O        -31.9600   20.9290  -49.1090 O.2    41  PHE41      -0.2715
     36  CB       -29.0570   20.9610  -48.0030 C.3    41  PHE41       0.0574
     37  CG       -28.4500   22.1370  -48.7180 C.ar   41  PHE41      -0.0200
     38  CD1      -27.7870   23.1260  -48.0100 C.ar   41  PHE41      -0.0042
     39  CD2      -28.5110   22.2350  -50.0990 C.ar   41  PHE41      -0.0042
     40  CE1      -27.2170   24.2050  -48.6620 C.ar   41  PHE41      -0.0003
     41  CE2      -27.9410   23.3100  -50.7580 C.ar   41  PHE41      -0.0003
     42  CZ       -27.2940   24.2970  -50.0380 C.ar   41  PHE41      -0.0000
     43  N        -31.6320   23.0340  -48.3860 N.am   42  GLY42      -0.1940
     44  CA       -32.4350   23.6590  -49.4150 C.3    42  GLY42       0.2014
     45  C        -31.7800   24.8770  -50.0170 C.2    42  GLY42       0.2639
     46  O        -30.9910   25.5480  -49.3550 O.2    42  GLY42      -0.2714
     47  N        -32.0940   25.1600  -51.2750 N.am   43  GLN43      -0.1963
     48  CA       -31.5170   26.3110  -51.9470 C.3    43  GLN43       0.1733
     49  C        -32.5750   26.9450  -52.8410 C.2    43  GLN43       0.2616
     50  O        -33.2520   26.2720  -53.6180 O.2    43  GLN43      -0.2715
     51  CB       -30.3170   25.8810  -52.7880 C.3    43  GLN43       0.0408
     52  CG       -29.5220   27.0490  -53.3520 C.3    43  GLN43       0.0908
     53  CD       -28.0720   26.6890  -53.5910 C.2    43  GLN43       0.2608
     54  OE1      -27.7640   25.5720  -54.0070 O.2    43  GLN43      -0.2717
     55  NE2      -27.1720   27.6280  -53.3210 N.am   43  GLN43      -0.0878
     56  N        -32.6950   28.2600  -52.7070 N.am   44  TRP44      -0.1974
     57  CA       -33.6440   29.0810  -53.4490 C.3    44  TRP44       0.1640
     58  C        -32.9640   30.3960  -53.7970 C.2    44  TRP44       0.2290
     59  O        -32.8420   31.2940  -52.9620 O.2    44  TRP44      -0.2864
     60  CB       -34.9010   29.3330  -52.6090 C.3    44  TRP44       0.0576
     61  CG       -35.3730   28.1460  -51.8080 C.ar   44  TRP44       0.0006
     62  CD1      -36.2790   27.2050  -52.2080 C.ar   44  TRP44       0.0946
     63  CD2      -34.9460   27.7550  -50.4940 C.ar   44  TRP44       0.0152
     64  NE1      -36.4590   26.2680  -51.2190 N.ar   44  TRP44      -0.2442
     65  CE2      -35.6510   26.5800  -50.1580 C.ar   44  TRP44       0.0810
     66  CE3      -34.0450   28.2880  -49.5660 C.ar   44  TRP44       0.0012
     67  CZ2      -35.4810   25.9290  -48.9360 C.ar   44  TRP44       0.0191
     68  CZ3      -33.8770   27.6380  -48.3510 C.ar   44  TRP44       0.0001
     69  CH2      -34.5930   26.4710  -48.0480 C.ar   44  TRP44       0.0015
     70  N        -30.3430   27.0230  -46.7760 N.3    49  ALA49      -0.1231
     71  CA       -30.4880   26.7050  -45.3730 C.3    49  ALA49       0.1694
     72  C        -30.0880   25.2590  -45.1720 C.2    49  ALA49       0.2592
     73  O        -30.2250   24.4300  -46.0750 O.2    49  ALA49      -0.2718
     74  CB       -31.9140   26.9360  -44.9070 C.3    49  ALA49       0.0304
     75  N        -29.5920   24.9560  -43.9810 N.am   50  TYR50      -0.1962
     76  CA       -29.0770   23.6350  -43.7160 C.3    50  TYR50       0.1771
     77  C        -29.3110   23.2690  -42.2660 C.2    50  TYR50       0.2619
     78  O        -29.2310   24.1090  -41.3720 O.2    50  TYR50      -0.2715
     79  CB       -27.5740   23.6610  -43.9880 C.3    50  TYR50       0.0574
     80  CG       -26.8270   22.3650  -43.7890 C.ar   50  TYR50      -0.0198
     81  CD1      -26.9370   21.3310  -44.7050 C.ar   50  TYR50      -0.0009
     82  CD2      -25.9730   22.1950  -42.7060 C.ar   50  TYR50      -0.0009
     83  CE1      -26.2460   20.1500  -44.5340 C.ar   50  TYR50       0.0417
     84  CE2      -25.2720   21.0190  -42.5290 C.ar   50  TYR50       0.0417
     85  CZ       -25.4130   20.0010  -43.4460 C.ar   50  TYR50       0.1957
     86  OH       -24.7160   18.8290  -43.2810 O.3    50  TYR50      -0.2866
     87  N        -29.5990   21.9930  -42.0490 N.am   51  PHE51      -0.1974
     88  CA       -29.7030   21.4450  -40.7150 C.3    51  PHE51       0.1639
     89  C        -28.9710   20.1190  -40.7510 C.2    51  PHE51       0.2290
     90  O        -29.1470   19.3280  -41.6760 O.2    51  PHE51      -0.2864
     91  CB       -31.1630   21.2200  -40.3220 C.3    51  PHE51       0.0560
     92  CG       -31.3360   20.5440  -38.9900 C.ar   51  PHE51      -0.0200
     93  CD1      -31.2770   21.2810  -37.8180 C.ar   51  PHE51      -0.0042
     94  CD2      -31.5580   19.1790  -38.9060 C.ar   51  PHE51      -0.0042
     95  CE1      -31.4330   20.6720  -36.5870 C.ar   51  PHE51      -0.0003
     96  CE2      -31.7150   18.5630  -37.6760 C.ar   51  PHE51      -0.0003
     97  CZ       -31.6530   19.3110  -36.5160 C.ar   51  PHE51      -0.0000
     98  N        -27.1430   24.3410  -37.9260 N.3    83  PHE83      -0.1227
     99  CA       -28.4120   24.8800  -38.3760 C.3    83  PHE83       0.1736
    100  C        -28.1810   26.3260  -38.7730 C.2    83  PHE83       0.2595
    101  O        -27.8880   27.1680  -37.9270 O.2    83  PHE83      -0.2718
    102  CB       -29.5170   24.7330  -37.3200 C.3    83  PHE83       0.0547
    103  CG       -29.0620   24.9950  -35.9070 C.ar   83  PHE83      -0.0202
    104  CD1      -28.4970   23.9840  -35.1450 C.ar   83  PHE83      -0.0042
    105  CD2      -29.2290   26.2450  -35.3310 C.ar   83  PHE83      -0.0042
    106  CE1      -28.0870   24.2210  -33.8440 C.ar   83  PHE83      -0.0003
    107  CE2      -28.8210   26.4880  -34.0320 C.ar   83  PHE83      -0.0003
    108  CZ       -28.2510   25.4750  -33.2870 C.ar   83  PHE83      -0.0000
    109  N        -28.2960   26.6140  -40.0620 N.am   84  TRP84      -0.1962
    110  CA       -28.0490   27.9690  -40.5240 C.3    84  TRP84       0.1771
    111  C        -28.8280   28.3640  -41.7670 C.2    84  TRP84       0.2619
    112  O        -29.3390   27.5130  -42.4930 O.2    84  TRP84      -0.2715
    113  CB       -26.5450   28.2220  -40.7140 C.3    84  TRP84       0.0590
    114  CG       -25.8110   27.1870  -41.5340 C.ar   84  TRP84       0.0006
    115  CD1      -24.9410   26.2440  -41.0670 C.ar   84  TRP84       0.0946
    116  CD2      -25.8420   27.0290  -42.9610 C.ar   84  TRP84       0.0152
    117  NE1      -24.4490   25.4940  -42.1070 N.ar   84  TRP84      -0.2442
    118  CE2      -24.9840   25.9560  -43.2800 C.ar   84  TRP84       0.0810
    119  CE3      -26.5160   27.6830  -43.9970 C.ar   84  TRP84       0.0012
    120  CZ2      -24.7840   25.5230  -44.5920 C.ar   84  TRP84       0.0191
    121  CZ3      -26.3190   27.2480  -45.2970 C.ar   84  TRP84       0.0001
    122  CH2      -25.4610   26.1790  -45.5830 C.ar   84  TRP84       0.0015
    123  N        -28.9110   29.6680  -41.9990 N.am   85  VAL85      -0.1977
    124  CA       -29.4020   30.1810  -43.2640 C.3    85  VAL85       0.1596
    125  C        -28.2800   31.0040  -43.8780 C.2    85  VAL85       0.2287
    126  O        -27.4640   31.5850  -43.1620 O.2    85  VAL85      -0.2864
    127  CB       -30.6700   31.0340  -43.0720 C.3    85  VAL85       0.0276
    128  CG1      -31.8280   30.1660  -42.6110 C.3    85  VAL85       0.0022
    129  CG2      -30.4120   32.1600  -42.0790 C.3    85  VAL85       0.0022
    130  N        -25.6980   32.6510  -41.2000 N.3   100  PHE100     -0.1227
    131  CA       -26.2440   32.9010  -39.8680 C.3   100  PHE100      0.1736
    132  C        -26.7850   31.6270  -39.2340 C.2   100  PHE100      0.2596
    133  O        -27.7040   31.0070  -39.7640 O.2   100  PHE100     -0.2718
    134  CB       -27.3690   33.9310  -39.9670 C.3   100  PHE100      0.0547
    135  CG       -27.9430   34.3280  -38.6390 C.ar  100  PHE100     -0.0202
    136  CD1      -27.1430   34.8840  -37.6570 C.ar  100  PHE100     -0.0042
    137  CD2      -29.2860   34.1210  -38.3650 C.ar  100  PHE100     -0.0042
    138  CE1      -27.6740   35.2420  -36.4340 C.ar  100  PHE100     -0.0003
    139  CE2      -29.8220   34.4750  -37.1420 C.ar  100  PHE100     -0.0003
    140  CZ       -29.0150   35.0360  -36.1750 C.ar  100  PHE100     -0.0000
    141  N        -26.2280   31.2530  -38.0860 N.am  101  GLY101     -0.1957
    142  CA       -26.6900   30.0830  -37.3630 C.3   101  GLY101      0.1869
    143  C        -25.5110   29.3090  -36.8080 C.2   101  GLY101      0.2309
    144  O        -24.3800   29.7950  -36.8420 O.2   101  GLY101     -0.2863
@<TRIPOS>BOND
     1     7     1    1
     2     7     6    1
     3     1     2    1
     4     6     5    1
     5     2     5    1
     6     2     3    1
     7     3     4    2
     8    54    53    2
     9    58    57    1
    10    58    59    2
    11    50    49    2
    12    53    52    1
    13    53    55   am
    14    57    56    1
    15    57    60    1
    16    52    51    1
    17    49    56   am
    18    49    48    1
    19    51    48    1
    20    15    13   am
    21    60    61    1
    22    62    61   ar
    23    62    64   ar
    24    14    13    2
    25    48    47    1
    26    13    12    1
    27    61    63   ar
    28     8     9    1
    29    47    45   am
    30    64    65   ar
    31    12     9    1
    32    41    39   ar
    33    41    42   ar
    34    63    65   ar
    35    63    66   ar
    36     9    10    1
    37    65    67   ar
    38    39    37   ar
    39    42    40   ar
    40    45    44    1
    41    45    46    2
    42    66    68   ar
    43    44    43    1
    44    35    34    2
    45    19    18    2
    46    10    16   am
    47    10    11    2
    48    16    17    1
    49    67    69   ar
    50    24    22   ar
    51    24    26   ar
    52    37    38   ar
    53    37    36    1
    54    40    38   ar
    55    22    21   ar
    56    43    34   am
    57    34    33    1
    58    68    69   ar
    59    36    33    1
    60    18    17    1
    61    17    20    1
    62    26    25   ar
    63    21    20    1
    64    21    23   ar
    65    33    32    1
    66    70    71    1
    67    32    29   am
    68    25    23   ar
    69    73    72    2
    70   122   121   ar
    71   122   120   ar
    72    29    28    1
    73    29    30    2
    74    71    72    1
    75    71    74    1
    76   121   119   ar
    77    72    75   am
    78    28    31    1
    79    28    27    1
    80    81    83   ar
    81    81    80   ar
    82   120   118   ar
    83    83    85   ar
    84   119   116   ar
    85    79    80    1
    86    79    76    1
    87    75    76    1
    88   125   124    1
    89   125   126    2
    90    80    82   ar
    91    76    77    1
    92    85    86    1
    93    85    84   ar
    94   118   116   ar
    95   118   117   ar
    96   124   127    1
    97   124   123    1
    98   127   128    1
    99   127   129    1
   100   116   114   ar
   101    82    84   ar
   102   112   111    2
   103    77    87   am
   104    77    78    2
   105   117   115   ar
   106    87    88    1
   107   123   111   am
   108   111   110    1
   109    90    89    2
   110   114   115   ar
   111   114   113    1
   112   130   131    1
   113    89    88    1
   114    88    91    1
   115   113   110    1
   116   110   109    1
   117    91    92    1
   118   109   100   am
   119   134   131    1
   120   134   135    1
   121   131   132    1
   122   133   132    2
   123   132   141   am
   124    92    94   ar
   125    92    93   ar
   126    94    96   ar
   127   100    99    1
   128   100   101    2
   129   135   137   ar
   130   135   136   ar
   131    99    98    1
   132    99   102    1
   133   137   139   ar
   134   141   142    1
   135    93    95   ar
   136    96    97   ar
   137   136   138   ar
   138   142   143    1
   139   102   103    1
   140   139   140   ar
   141   144   143    2
   142    95    97   ar
   143   138   140   ar
   144   103   105   ar
   145   103   104   ar
   146   105   107   ar
   147   104   106   ar
   148   107   108   ar
   149   106   108   ar
