@<TRIPOS>MOLECULE
tmp/4b61B04.pdb
 73 69 0 0 0
SMALL
GASTEIGER

@<TRIPOS>ATOM
      1  N        -27.6840   11.0760  -45.0670 N.3     7  LEU7       -0.1245
      2  CA       -27.4720   10.5140  -43.7570 C.3     7  LEU7        0.1561
      3  C        -25.9830   10.2330  -43.7720 C.2     7  LEU7        0.2260
      4  O        -25.4960    9.5070  -44.6370 O.2     7  LEU7       -0.2867
      5  CB       -28.2820    9.2400  -43.5430 C.3     7  LEU7        0.0270
      6  CG       -27.9970    8.4840  -42.2490 C.3     7  LEU7        0.0019
      7  CD1      -28.5510    9.2630  -41.0650 C.3     7  LEU7        0.0001
      8  CD2      -28.5980    7.0920  -42.3090 C.3     7  LEU7        0.0001
      9  N        -24.7370    8.8700  -36.2070 N.3    36  LEU36      -0.1245
     10  CA       -25.6370    9.0410  -37.3390 C.3    36  LEU36       0.1561
     11  C        -25.9870   10.5090  -37.4670 C.2    36  LEU36       0.2260
     12  O        -26.4290   11.1380  -36.5060 O.2    36  LEU36      -0.2867
     13  CB       -26.9090    8.2090  -37.1830 C.3    36  LEU36       0.0270
     14  CG       -26.7370    6.7070  -36.9710 C.3    36  LEU36       0.0019
     15  CD1      -28.0780    6.0800  -36.6580 C.3    36  LEU36       0.0001
     16  CD2      -26.1120    6.0560  -38.1950 C.3    36  LEU36       0.0001
     17  N        -28.2780   12.6930  -39.7760 N.3    38  PRO38      -0.2116
     18  CA       -29.2020   13.0920  -40.8350 C.3    38  PRO38       0.1372
     19  C        -29.0320   14.5710  -41.1320 C.2    38  PRO38       0.2244
     20  O        -28.8250   15.3710  -40.2180 O.2    38  PRO38      -0.2868
     21  CB       -30.5720   12.8090  -40.2210 C.3    38  PRO38       0.0268
     22  CG       -30.3640   13.0280  -38.7560 C.3    38  PRO38       0.0207
     23  CD       -28.9500   12.5650  -38.4700 C.3    38  PRO38       0.0892
     24  N        -27.0000   11.5770  -33.8800 N.3    55  ALA55      -0.1231
     25  CA       -27.3160   10.6050  -32.8550 C.3    55  ALA55       0.1694
     26  C        -26.1090    9.7080  -32.6890 C.2    55  ALA55       0.2592
     27  O        -25.5510    9.2030  -33.6640 O.2    55  ALA55      -0.2718
     28  CB       -28.5220    9.7900  -33.2510 C.3    55  ALA55       0.0304
     29  N        -25.7180    9.5070  -31.4380 N.am   56  VAL56      -0.1966
     30  CA       -24.5020    8.7800  -31.1360 C.3    56  VAL56       0.1727
     31  C        -24.8300    7.7310  -30.0950 C.2    56  VAL56       0.2616
     32  O        -25.5620    7.9900  -29.1440 O.2    56  VAL56      -0.2715
     33  CB       -23.4280    9.7390  -30.5770 C.3    56  VAL56       0.0290
     34  CG1      -22.2170    8.9660  -30.0730 C.3    56  VAL56       0.0023
     35  CG2      -23.0150   10.7540  -31.6340 C.3    56  VAL56       0.0023
     36  N        -24.2940    6.5370  -30.2970 N.am   57  ALA57      -0.1977
     37  CA       -24.3140    5.4980  -29.2880 C.3    57  ALA57       0.1597
     38  C        -22.9460    4.8490  -29.2650 C.2    57  ALA57       0.2287
     39  O        -22.4330    4.4380  -30.3070 O.2    57  ALA57      -0.2864
     40  CB       -25.3780    4.4690  -29.6080 C.3    57  ALA57       0.0319
     41  N        -24.4380    7.7450  -24.8750 N.3    76  SER76      -0.1202
     42  CA       -25.3280    7.9850  -26.0070 C.3    76  SER76       0.2020
     43  C        -26.0880    9.2970  -25.8430 C.2    76  SER76       0.2619
     44  O        -26.4610    9.6740  -24.7310 O.2    76  SER76      -0.2717
     45  CB       -26.3280    6.8400  -26.1580 C.3    76  SER76       0.2103
     46  OG       -27.2770    6.8540  -25.1060 O.3    76  SER76      -0.2182
     47  N        -26.3190    9.9840  -26.9580 N.am   77  TYR77      -0.1961
     48  CA       -26.9760   11.2860  -26.9390 C.3    77  TYR77       0.1771
     49  C        -27.4860   11.6900  -28.3180 C.2    77  TYR77       0.2619
     50  O        -27.1520   11.0650  -29.3260 O.2    77  TYR77      -0.2715
     51  CB       -26.0360   12.3760  -26.4070 C.3    77  TYR77       0.0574
     52  CG       -24.7460   12.5440  -27.1820 C.ar   77  TYR77      -0.0198
     53  CD1      -23.6100   11.8190  -26.8480 C.ar   77  TYR77      -0.0009
     54  CD2      -24.6590   13.4450  -28.2370 C.ar   77  TYR77      -0.0009
     55  CE1      -22.4290   11.9760  -27.5490 C.ar   77  TYR77       0.0417
     56  CE2      -23.4820   13.6100  -28.9440 C.ar   77  TYR77       0.0417
     57  CZ       -22.3700   12.8730  -28.5950 C.ar   77  TYR77       0.1957
     58  OH       -21.1970   13.0300  -29.2960 O.3    77  TYR77      -0.2866
     59  N        -28.2980   12.7420  -28.3530 N.am   78  LEU78      -0.1977
     60  CA       -28.6900   13.3430  -29.6170 C.3    78  LEU78       0.1596
     61  C        -28.1310   14.7500  -29.6100 C.2    78  LEU78       0.2287
     62  O        -27.9400   15.3440  -28.5480 O.2    78  LEU78      -0.2864
     63  CB       -30.2120   13.4010  -29.7470 C.3    78  LEU78       0.0297
     64  CG       -31.0210   12.1170  -29.6060 C.3    78  LEU78       0.0022
     65  CD1      -32.5060   12.4240  -29.6060 C.3    78  LEU78       0.0001
     66  CD2      -30.6820   11.2320  -30.7720 C.3    78  LEU78       0.0001
     67  N        -28.3280   16.3090  -25.7590 N.3   144  THR144     -0.1218
     68  CA       -29.2280   15.7320  -24.7670 C.3   144  THR144      0.1862
     69  C        -28.5310   15.3640  -23.4600 C.2   144  THR144      0.2287
     70  O        -29.1770   15.2640  -22.4180 O.2   144  THR144     -0.2866
     71  CB       -29.9760   14.5050  -25.3310 C.3   144  THR144      0.1770
     72  OG1      -29.0300   13.5430  -25.8110 O.3   144  THR144     -0.2211
     73  CG2      -30.8980   14.9200  -26.4670 C.3   144  THR144      0.0375
@<TRIPOS>BOND
     1     1     2    1
     2     4     3    2
     3     3     2    1
     4     2     5    1
     5     5     6    1
     6     8     6    1
     7     6     7    1
     8    19    18    1
     9    19    20    2
    10    18    21    1
    11    18    17    1
    12    21    22    1
    13    17    23    1
    14    22    23    1
    15    16    14    1
    16    11    10    1
    17    11    12    2
    18    10    13    1
    19    10     9    1
    20    13    14    1
    21    14    15    1
    22    24    25    1
    23    27    26    2
    24    28    25    1
    25    25    26    1
    26    26    29   am
    27    35    33    1
    28    29    30    1
    29    30    33    1
    30    30    31    1
    31    66    64    1
    32    33    34    1
    33    39    38    2
    34    36    31   am
    35    36    37    1
    36    31    32    2
    37    63    60    1
    38    63    64    1
    39    60    61    1
    40    60    59    1
    41    61    62    2
    42    40    37    1
    43    65    64    1
    44    50    49    2
    45    58    57    1
    46    37    38    1
    47    56    57   ar
    48    56    54   ar
    49    57    55   ar
    50    59    49   am
    51    49    48    1
    52    54    52   ar
    53    55    53   ar
    54    52    53   ar
    55    52    51    1
    56    47    48    1
    57    47    43   am
    58    48    51    1
    59    73    71    1
    60    45    42    1
    61    45    46    1
    62    42    43    1
    63    42    41    1
    64    43    44    2
    65    72    71    1
    66    67    68    1
    67    71    68    1
    68    68    69    1
    69    69    70    2
