@<TRIPOS>MOLECULE
tmp/4b61A09.pdb
 77 75 0 0 0
SMALL
GASTEIGER

@<TRIPOS>ATOM
      1  N        -44.6170  -33.0870  -35.2740 N.3    12  GLY12      -0.1210
      2  CA       -44.2510  -33.8020  -34.0680 C.3    12  GLY12       0.1956
      3  C        -43.1000  -33.0880  -33.3920 C.2    12  GLY12       0.2612
      4  O        -42.1970  -32.5910  -34.0650 O.2    12  GLY12      -0.2717
      5  N        -43.1220  -33.0330  -32.0660 N.am   13  GLU13      -0.1965
      6  CA       -42.0240  -32.4240  -31.3310 C.3    13  GLU13       0.1733
      7  C        -41.5230  -33.3630  -30.2420 C.2    13  GLU13       0.2617
      8  O        -42.3080  -33.9200  -29.4740 O.2    13  GLU13      -0.2715
      9  CB       -42.4530  -31.0950  -30.7060 C.3    13  GLU13       0.0429
     10  CG       -41.3560  -30.4190  -29.8980 C.3    13  GLU13       0.1163
     11  CD       -41.7880  -29.0870  -29.3180 C.2    13  GLU13       0.3649
     12  OE1      -42.9630  -28.7080  -29.5020 O.co2  13  GLU13      -0.2457
     13  OE2      -40.9490  -28.4150  -28.6800 O.co2  13  GLU13      -0.2457
     14  N        -40.2070  -33.5330  -30.1840 N.am   14  SER14      -0.1950
     15  CA       -39.5730  -34.2290  -29.0740 C.3    14  SER14       0.1924
     16  C        -38.6310  -33.2830  -28.3450 C.2    14  SER14       0.2314
     17  O        -37.6980  -32.7430  -28.9360 O.2    14  SER14      -0.2863
     18  CB       -38.8260  -35.4700  -29.5680 C.3    14  SER14       0.2116
     19  OG       -38.0380  -36.0350  -28.5340 O.3    14  SER14      -0.2180
     20  N        -43.1940  -35.1170  -26.0620 N.3    29  ASN29      -0.1225
     21  CA       -43.1490  -36.2060  -27.0280 C.3    29  ASN29       0.1785
     22  C        -44.5470  -36.3050  -27.6010 C.2    29  ASN29       0.2597
     23  O        -45.3600  -37.1230  -27.1710 O.2    29  ASN29      -0.2718
     24  CB       -42.7180  -37.5080  -26.3570 C.3    29  ASN29       0.1169
     25  CG       -42.2680  -38.5550  -27.3600 C.2    29  ASN29       0.2627
     26  OD1      -43.0670  -39.3560  -27.8450 O.2    29  ASN29      -0.2716
     27  ND2      -40.9780  -38.5480  -27.6820 N.am   29  ASN29      -0.0877
     28  N        -44.8120  -35.4600  -28.5920 N.am   30  ASP30      -0.1960
     29  CA       -46.1840  -35.1530  -28.9680 C.3    30  ASP30       0.1840
     30  C        -46.3460  -34.7780  -30.4350 C.2    30  ASP30       0.2621
     31  O        -45.3700  -34.5300  -31.1410 O.2    30  ASP30      -0.2715
     32  CB       -46.7160  -34.0330  -28.0680 C.3    30  ASP30       0.1450
     33  CG       -46.9120  -34.4800  -26.6300 C.2    30  ASP30       0.3671
     34  OD1      -47.9770  -35.0580  -26.3260 O.co2  30  ASP30      -0.2456
     35  OD2      -46.0000  -34.2580  -25.8060 O.co2  30  ASP30      -0.2456
     36  N        -47.5980  -34.7360  -30.8780 N.am   31  ILE31      -0.1977
     37  CA       -47.9230  -34.5410  -32.2840 C.3    31  ILE31       0.1596
     38  C        -49.1250  -33.6020  -32.3920 C.2    31  ILE31       0.2287
     39  O        -49.9580  -33.5510  -31.4850 O.2    31  ILE31      -0.2864
     40  CB       -48.2280  -35.8850  -32.9880 C.3    31  ILE31       0.0276
     41  CG1      -48.3520  -35.6900  -34.5020 C.3    31  ILE31       0.0022
     42  CG2      -49.4750  -36.5350  -32.4050 C.3    31  ILE31       0.0022
     43  CD1      -48.2080  -36.9660  -35.2990 C.3    31  ILE31       0.0001
     44  N        -37.0310  -32.3760  -41.0850 N.3   399  PHE399     -0.1241
     45  CA       -36.5440  -32.6520  -39.7450 C.3   399  PHE399      0.1605
     46  C        -35.6900  -31.4840  -39.2620 C.2   399  PHE399      0.2264
     47  O        -34.8190  -31.0020  -39.9860 O.2   399  PHE399     -0.2867
     48  CB       -35.6900  -33.9210  -39.7470 C.3   399  PHE399      0.0534
     49  CG       -35.0030  -34.1880  -38.4390 C.ar  399  PHE399     -0.0203
     50  CD1      -35.6510  -34.9050  -37.4480 C.ar  399  PHE399     -0.0042
     51  CD2      -33.7130  -33.7420  -38.2020 C.ar  399  PHE399     -0.0042
     52  CE1      -35.0350  -35.1590  -36.2430 C.ar  399  PHE399     -0.0003
     53  CE2      -33.0910  -33.9930  -36.9960 C.ar  399  PHE399     -0.0003
     54  CZ       -33.7540  -34.7040  -36.0160 C.ar  399  PHE399     -0.0000
     55  N        -36.2660  -31.7290  -31.0770 N.3   421  ALA421     -0.1231
     56  CA       -36.3400  -32.1050  -32.4750 C.3   421  ALA421      0.1694
     57  C        -37.7660  -32.0340  -32.9890 C.2   421  ALA421      0.2592
     58  O        -38.7240  -32.2390  -32.2440 O.2   421  ALA421     -0.2718
     59  CB       -35.7670  -33.5000  -32.6980 C.3   421  ALA421      0.0304
     60  N        -37.8900  -31.7350  -34.2750 N.am  422  PHE422     -0.1962
     61  CA       -39.1840  -31.5900  -34.9090 C.3   422  PHE422      0.1771
     62  C        -39.1800  -32.3620  -36.2120 C.2   422  PHE422      0.2619
     63  O        -38.1590  -32.4420  -36.8950 O.2   422  PHE422     -0.2715
     64  CB       -39.4400  -30.1280  -35.2750 C.3   422  PHE422      0.0574
     65  CG       -39.5800  -29.2150  -34.0940 C.ar  422  PHE422     -0.0200
     66  CD1      -38.4690  -28.6000  -33.5410 C.ar  422  PHE422     -0.0042
     67  CD2      -40.8240  -28.9600  -33.5440 C.ar  422  PHE422     -0.0042
     68  CE1      -38.5950  -27.7540  -32.4580 C.ar  422  PHE422     -0.0003
     69  CE2      -40.9570  -28.1110  -32.4620 C.ar  422  PHE422     -0.0003
     70  CZ       -39.8410  -27.5090  -31.9170 C.ar  422  PHE422     -0.0000
     71  N        -40.3280  -32.9250  -36.5590 N.am  423  VAL423     -0.1977
     72  CA       -40.5880  -33.2550  -37.9440 C.3   423  VAL423      0.1596
     73  C        -41.8050  -32.4420  -38.3420 C.2   423  VAL423      0.2287
     74  O        -42.8150  -32.4410  -37.6370 O.2   423  VAL423     -0.2864
     75  CB       -40.8840  -34.7530  -38.1410 C.3   423  VAL423      0.0276
     76  CG1      -41.2760  -35.0370  -39.5840 C.3   423  VAL423      0.0022
     77  CG2      -39.6780  -35.5870  -37.7370 C.3   423  VAL423      0.0022
@<TRIPOS>BOND
     1    44    45    1
     2    47    46    2
     3    48    45    1
     4    48    49    1
     5    45    46    1
     6    76    75    1
     7    49    51   ar
     8    49    50   ar
     9    73    72    1
    10    73    74    2
    11    51    53   ar
    12    75    72    1
    13    75    77    1
    14    72    71    1
    15    50    52   ar
    16    53    54   ar
    17    63    62    2
    18    71    62   am
    19    52    54   ar
    20    62    61    1
    21    43    41    1
    22    64    61    1
    23    64    65    1
    24     1     2    1
    25    61    60    1
    26    41    40    1
    27    60    57   am
    28    65    67   ar
    29    65    66   ar
    30     2     3    1
    31     4     3    2
    32    67    69   ar
    33    66    68   ar
    34     3     5   am
    35    57    56    1
    36    57    58    2
    37    40    42    1
    38    40    37    1
    39    59    56    1
    40    56    55    1
    41    69    70   ar
    42    68    70   ar
    43    38    37    1
    44    38    39    2
    45    37    36    1
    46     5     6    1
    47     6     9    1
    48     6     7    1
    49    31    30    2
    50    36    30   am
    51     9    10    1
    52    30    29    1
    53     7    14   am
    54     7     8    2
    55    14    15    1
    56    10    11    1
    57    18    15    1
    58    18    19    1
    59    12    11   ar
    60    11    13   ar
    61    15    16    1
    62    29    28    1
    63    29    32    1
    64    17    16    2
    65    28    22   am
    66    32    33    1
    67    26    25    2
    68    27    25   am
    69    22    23    2
    70    22    21    1
    71    25    24    1
    72    21    24    1
    73    21    20    1
    74    33    34   ar
    75    33    35   ar
