@<TRIPOS>MOLECULE
tmp/4b61A04.pdb
 128 132 0 0 0
SMALL
GASTEIGER

@<TRIPOS>ATOM
      1  N        -57.1240  -16.7530  -54.9100 N.3     3  ASN3       -0.1225
      2  CA       -57.9200  -15.9620  -53.9700 C.3     3  ASN3        0.1785
      3  C        -58.1320  -16.6070  -52.6060 C.2     3  ASN3        0.2597
      4  O        -58.4800  -15.9170  -51.6490 O.2     3  ASN3       -0.2718
      5  CB       -59.2890  -15.6310  -54.5660 C.3     3  ASN3        0.1169
      6  CG       -59.2000  -14.6480  -55.7150 C.2     3  ASN3        0.2627
      7  OD1      -58.3380  -13.7690  -55.7280 O.2     3  ASN3       -0.2716
      8  ND2      -60.0920  -14.7900  -56.6880 N.am    3  ASN3       -0.0877
      9  N        -57.8610  -17.9030  -52.5000 N.am    4  PHE4       -0.1976
     10  CA       -57.9950  -18.6330  -51.2350 C.3     4  PHE4        0.1639
     11  C        -57.1660  -19.9000  -51.2950 C.2     4  PHE4        0.2290
     12  O        -56.8670  -20.4100  -52.3700 O.2     4  PHE4       -0.2864
     13  CB       -59.4520  -18.9650  -50.8170 C.3     4  PHE4        0.0560
     14  CG       -60.4730  -17.9040  -51.1200 C.ar    4  PHE4       -0.0200
     15  CD1      -61.1000  -17.8590  -52.3550 C.ar    4  PHE4       -0.0042
     16  CD2      -60.8490  -16.9880  -50.1500 C.ar    4  PHE4       -0.0042
     17  CE1      -62.0510  -16.8970  -52.6310 C.ar    4  PHE4       -0.0003
     18  CE2      -61.8000  -16.0220  -50.4200 C.ar    4  PHE4       -0.0003
     19  CZ       -62.4030  -15.9780  -51.6620 C.ar    4  PHE4       -0.0000
     20  N        -57.1010  -16.1060  -47.3390 N.3    39  ALA39      -0.1231
     21  CA       -57.8910  -15.4190  -48.3410 C.3    39  ALA39       0.1694
     22  C        -57.0450  -14.2590  -48.8300 C.2    39  ALA39       0.2592
     23  O        -56.3730  -13.5980  -48.0390 O.2    39  ALA39      -0.2718
     24  CB       -59.1720  -14.9050  -47.7210 C.3    39  ALA39       0.0304
     25  N        -57.0780  -14.0040  -50.1320 N.am   40  PHE40      -0.1962
     26  CA       -56.3080  -12.9070  -50.6930 C.3    40  PHE40       0.1771
     27  C        -57.1220  -12.2870  -51.8140 C.2    40  PHE40       0.2620
     28  O        -57.7260  -12.9890  -52.6230 O.2    40  PHE40      -0.2715
     29  CB       -54.9800  -13.4290  -51.2470 C.3    40  PHE40       0.0574
     30  CG       -54.1270  -12.3770  -51.8990 C.ar   40  PHE40      -0.0200
     31  CD1      -53.3800  -11.5010  -51.1300 C.ar   40  PHE40      -0.0042
     32  CD2      -54.0470  -12.2850  -53.2790 C.ar   40  PHE40      -0.0042
     33  CE1      -52.5860  -10.5380  -51.7230 C.ar   40  PHE40      -0.0003
     34  CE2      -53.2540  -11.3240  -53.8790 C.ar   40  PHE40      -0.0003
     35  CZ       -52.5220  -10.4500  -53.1000 C.ar   40  PHE40      -0.0000
     36  N        -57.1260  -10.9610  -51.8600 N.am   41  GLY41      -0.1954
     37  CA       -57.7100  -10.2180  -52.9580 C.3    41  GLY41       0.1869
     38  C        -56.7890   -9.1320  -53.4650 C.2    41  GLY41       0.2309
     39  O        -55.9700   -8.6120  -52.7110 O.2    41  GLY41      -0.2863
     40  N        -56.7970   -5.6460  -56.1680 N.3    43  TRP43      -0.1241
     41  CA       -57.5090   -4.6830  -56.9930 C.3    43  TRP43       0.1605
     42  C        -56.5720   -3.5150  -57.2570 C.2    43  TRP43       0.2264
     43  O        -56.3650   -2.6530  -56.4030 O.2    43  TRP43      -0.2867
     44  CB       -58.7770   -4.2040  -56.2840 C.3    43  TRP43       0.0550
     45  CG       -59.5100   -5.2810  -55.5430 C.ar   43  TRP43       0.0003
     46  CD1      -60.5140   -6.0660  -56.0290 C.ar   43  TRP43       0.0946
     47  CD2      -59.2820   -5.7140  -54.1940 C.ar   43  TRP43       0.0152
     48  NE1      -60.9390   -6.9460  -55.0640 N.ar   43  TRP43      -0.2442
     49  CE2      -60.1970   -6.7520  -53.9300 C.ar   43  TRP43       0.0810
     50  CE3      -58.3980   -5.3200  -53.1830 C.ar   43  TRP43       0.0012
     51  CZ2      -60.2550   -7.4030  -52.6970 C.ar   43  TRP43       0.0191
     52  CZ3      -58.4580   -5.9670  -51.9590 C.ar   43  TRP43       0.0001
     53  CH2      -59.3790   -6.9960  -51.7270 C.ar   43  TRP43       0.0015
     54  N        -55.2850   -7.2640  -50.0910 N.3    48  ALA48      -0.1231
     55  CA       -55.6380   -7.5340  -48.7140 C.3    48  ALA48       0.1694
     56  C        -55.5150   -9.0250  -48.4800 C.2    48  ALA48       0.2592
     57  O        -55.6860   -9.8310  -49.3970 O.2    48  ALA48      -0.2718
     58  CB       -57.0470   -7.0590  -48.4100 C.3    48  ALA48       0.0304
     59  N        -55.2170   -9.3930  -47.2430 N.am   49  TYR49      -0.1962
     60  CA       -54.9600  -10.7790  -46.9190 C.3    49  TYR49       0.1771
     61  C        -55.4130  -11.0940  -45.5080 C.2    49  TYR49       0.2619
     62  O        -55.3100  -10.2700  -44.6020 O.2    49  TYR49      -0.2715
     63  CB       -53.4500  -11.0010  -47.0120 C.3    49  TYR49       0.0574
     64  CG       -52.9560  -12.3990  -46.7250 C.ar   49  TYR49      -0.0198
     65  CD1      -53.1270  -13.4230  -47.6490 C.ar   49  TYR49      -0.0009
     66  CD2      -52.2810  -12.6860  -45.5470 C.ar   49  TYR49      -0.0009
     67  CE1      -52.6640  -14.6980  -47.3910 C.ar   49  TYR49       0.0417
     68  CE2      -51.8100  -13.9550  -45.2830 C.ar   49  TYR49       0.0417
     69  CZ       -52.0060  -14.9580  -46.2080 C.ar   49  TYR49       0.1957
     70  OH       -51.5330  -16.2230  -45.9520 O.3    49  TYR49      -0.2866
     71  N        -55.9190  -12.3070  -45.3420 N.am   50  PHE50      -0.1974
     72  CA       -56.2630  -12.8290  -44.0370 C.3    50  PHE50       0.1639
     73  C        -55.7510  -14.2540  -43.9870 C.2    50  PHE50       0.2290
     74  O        -55.9330  -15.0200  -44.9310 O.2    50  PHE50      -0.2864
     75  CB       -57.7790  -12.8240  -43.8310 C.3    50  PHE50       0.0560
     76  CG       -58.2200  -13.4600  -42.5420 C.ar   50  PHE50      -0.0200
     77  CD1      -58.1950  -12.7370  -41.3600 C.ar   50  PHE50      -0.0042
     78  CD2      -58.6580  -14.7740  -42.5090 C.ar   50  PHE50      -0.0042
     79  CE1      -58.5990  -13.3120  -40.1700 C.ar   50  PHE50      -0.0003
     80  CE2      -59.0620  -15.3550  -41.3200 C.ar   50  PHE50      -0.0003
     81  CZ       -59.0320  -14.6220  -40.1500 C.ar   50  PHE50      -0.0000
     82  N        -53.7950  -10.2470  -40.8840 N.3    83  PHE83      -0.1227
     83  CA       -54.9000   -9.5350  -41.4990 C.3    83  PHE83       0.1736
     84  C        -54.3920   -8.1490  -41.8400 C.2    83  PHE83       0.2595
     85  O        -54.1040   -7.3490  -40.9510 O.2    83  PHE83      -0.2718
     86  CB       -56.1530   -9.5030  -40.6120 C.3    83  PHE83       0.0547
     87  CG       -55.8690   -9.2850  -39.1490 C.ar   83  PHE83      -0.0202
     88  CD1      -55.5670  -10.3510  -38.3160 C.ar   83  PHE83      -0.0042
     89  CD2      -55.9320   -8.0120  -38.6010 C.ar   83  PHE83      -0.0042
     90  CE1      -55.3140  -10.1500  -36.9700 C.ar   83  PHE83      -0.0003
     91  CE2      -55.6800   -7.8050  -37.2570 C.ar   83  PHE83      -0.0003
     92  CZ       -55.3720   -8.8750  -36.4400 C.ar   83  PHE83      -0.0000
     93  N        -54.2760   -7.8650  -43.1290 N.am   84  TRP84      -0.1962
     94  CA       -53.7540   -6.5760  -43.5500 C.3    84  TRP84       0.1771
     95  C        -54.2790   -6.0930  -44.8900 C.2    84  TRP84       0.2619
     96  O        -54.8170   -6.8680  -45.6790 O.2    84  TRP84      -0.2715
     97  CB       -52.2180   -6.5670  -43.5180 C.3    84  TRP84       0.0590
     98  CG       -51.5430   -7.7200  -44.2190 C.ar   84  TRP84       0.0006
     99  CD1      -50.9090   -8.7760  -43.6260 C.ar   84  TRP84       0.0946
    100  CD2      -51.3850   -7.9050  -45.6340 C.ar   84  TRP84       0.0152
    101  NE1      -50.3920   -9.6180  -44.5810 N.ar   84  TRP84      -0.2442
    102  CE2      -50.6670   -9.1050  -45.8210 C.ar   84  TRP84       0.0810
    103  CE3      -51.7890   -7.1800  -46.7590 C.ar   84  TRP84       0.0012
    104  CZ2      -50.3460   -9.5940  -47.0870 C.ar   84  TRP84       0.0191
    105  CZ3      -51.4710   -7.6700  -48.0150 C.ar   84  TRP84       0.0001
    106  CH2      -50.7570   -8.8650  -48.1680 C.ar   84  TRP84       0.0015
    107  N        -54.1160   -4.7980  -45.1330 N.am   85  VAL85      -0.1977
    108  CA       -54.3390   -4.2400  -46.4530 C.3    85  VAL85       0.1596
    109  C        -53.0260   -3.6260  -46.9130 C.2    85  VAL85       0.2287
    110  O        -52.2220   -3.1750  -46.0960 O.2    85  VAL85      -0.2864
    111  CB       -55.4630   -3.1870  -46.4340 C.3    85  VAL85       0.0276
    112  CG1      -56.7910   -3.8370  -46.0790 C.3    85  VAL85       0.0022
    113  CG2      -55.1330   -2.0700  -45.4540 C.3    85  VAL85       0.0022
    114  N        -50.6040   -2.2910  -43.8580 N.3   100  PHE100     -0.1227
    115  CA       -51.2610   -1.9580  -42.5960 C.3   100  PHE100      0.1736
    116  C        -52.0850   -3.1220  -42.0560 C.2   100  PHE100      0.2596
    117  O        -53.0140   -3.5870  -42.7130 O.2   100  PHE100     -0.2718
    118  CB       -52.1740   -0.7510  -42.8010 C.3   100  PHE100      0.0547
    119  CG       -52.8250   -0.2720  -41.5370 C.ar  100  PHE100     -0.0202
    120  CD1      -52.0600    0.1300  -40.4550 C.ar  100  PHE100     -0.0042
    121  CD2      -54.2050   -0.2460  -41.4220 C.ar  100  PHE100     -0.0042
    122  CE1      -52.6590    0.5630  -39.2880 C.ar  100  PHE100     -0.0003
    123  CE2      -54.8100    0.1860  -40.2580 C.ar  100  PHE100     -0.0003
    124  CZ       -54.0360    0.5910  -39.1900 C.ar  100  PHE100     -0.0000
    125  N        -51.7480   -3.5820  -40.8560 N.am  101  GLY101     -0.1957
    126  CA       -52.4890   -4.6540  -40.2150 C.3   101  GLY101      0.1869
    127  C        -51.5440   -5.6160  -39.5280 C.2   101  GLY101      0.2309
    128  O        -50.3500   -5.3370  -39.4170 O.2   101  GLY101     -0.2863
@<TRIPOS>BOND
     1    42    41    1
     2    42    43    2
     3    41    44    1
     4    41    40    1
     5     8     6   am
     6    44    45    1
     7    46    45   ar
     8    46    48   ar
     9     7     6    2
    10     6     5    1
    11    45    47   ar
    12    48    49   ar
    13     1     2    1
    14     5     2    1
    15    47    49   ar
    16    47    50   ar
    17     2     3    1
    18    49    51   ar
    19    34    32   ar
    20    34    35   ar
    21    38    37    1
    22    38    39    2
    23    32    30   ar
    24    50    52   ar
    25    35    33   ar
    26    37    36    1
    27    51    53   ar
    28    17    15   ar
    29    17    19   ar
    30    28    27    2
    31     3     9   am
    32     3     4    2
    33     9    10    1
    34    12    11    2
    35    15    14   ar
    36    52    53   ar
    37    30    29    1
    38    30    31   ar
    39    36    27   am
    40    27    26    1
    41    33    31   ar
    42    19    18   ar
    43    11    10    1
    44    29    26    1
    45    10    13    1
    46    14    13    1
    47    14    16   ar
    48    26    25    1
    49    18    16   ar
    50    25    22   am
    51    54    55    1
    52    57    56    2
    53    22    21    1
    54    22    23    2
    55    55    56    1
    56    55    58    1
    57    56    59   am
    58    21    24    1
    59    21    20    1
    60   106   105   ar
    61   106   104   ar
    62   105   103   ar
    63    65    67   ar
    64    65    64   ar
    65    67    69   ar
    66    59    60    1
    67   104   102   ar
    68    63    60    1
    69    63    64    1
    70    60    61    1
    71   109   108    1
    72   109   110    2
    73   103   100   ar
    74    64    66   ar
    75   108   111    1
    76   108   107    1
    77   111   112    1
    78   111   113    1
    79    69    70    1
    80    69    68   ar
    81   102   100   ar
    82   102   101   ar
    83    96    95    2
    84   100    98   ar
    85    66    68   ar
    86    61    71   am
    87    61    62    2
    88    71    72    1
    89   107    95   am
    90    74    73    2
    91    95    94    1
    92   101    99   ar
    93    98    99   ar
    94    98    97    1
    95    72    73    1
    96    72    75    1
    97   114   115    1
    98    75    76    1
    99    94    97    1
   100    94    93    1
   101    93    84   am
   102   118   115    1
   103   118   119    1
   104   117   116    2
   105   115   116    1
   106    76    78   ar
   107    76    77   ar
   108    78    80   ar
   109   116   125   am
   110    84    83    1
   111    84    85    2
   112   119   121   ar
   113   119   120   ar
   114    83    82    1
   115    83    86    1
   116   121   123   ar
   117    77    79   ar
   118    80    81   ar
   119   125   126    1
   120    86    87    1
   121   120   122   ar
   122   123   124   ar
   123   126   127    1
   124    79    81   ar
   125   127   128    2
   126   122   124   ar
   127    87    89   ar
   128    87    88   ar
   129    89    91   ar
   130    88    90   ar
   131    91    92   ar
   132    90    92   ar
