@<TRIPOS>MOLECULE
tmp/4b61B07.pdb
 116 112 0 0 0
SMALL
GASTEIGER

@<TRIPOS>ATOM
      1  N        -13.7130    3.5180  -33.7160 N.3    13  GLY13      -0.1210
      2  CA       -13.1200    2.8660  -32.5680 C.3    13  GLY13       0.1956
      3  C        -12.0330    3.7590  -32.0160 C.2    13  GLY13       0.2612
      4  O        -11.2990    4.3880  -32.7770 O.2    13  GLY13      -0.2717
      5  N        -11.9210    3.8210  -30.6950 N.am   14  GLU14      -0.1965
      6  CA       -10.8620    4.6020  -30.0790 C.3    14  GLU14       0.1733
      7  C        -10.1010    3.7710  -29.0600 C.2    14  GLU14       0.2617
      8  O        -10.6970    3.1020  -28.2160 O.2    14  GLU14      -0.2715
      9  CB       -11.4260    5.8500  -29.3980 C.3    14  GLU14       0.0429
     10  CG       -10.3630    6.6930  -28.7080 C.3    14  GLU14       0.1163
     11  CD       -10.9250    7.9460  -28.0680 C.2    14  GLU14       0.3649
     12  OE1      -12.1570    8.1410  -28.1160 O.co2  14  GLU14      -0.2457
     13  OE2      -10.1330    8.7400  -27.5170 O.co2  14  GLU14      -0.2457
     14  N         -8.7770    3.8170  -29.1460 N.am   15  SER15      -0.1950
     15  CA        -7.9290    3.2470  -28.1130 C.3    15  SER15       0.1924
     16  C         -7.0890    4.3560  -27.4960 C.2    15  SER15       0.2314
     17  O         -6.3220    5.0240  -28.1880 O.2    15  SER15      -0.2863
     18  CB        -7.0460    2.1340  -28.6810 C.3    15  SER15       0.2116
     19  OG        -6.0760    1.7200  -27.7350 O.3    15  SER15      -0.2180
     20  N        -11.0120    1.9290  -24.6720 N.3    30  ASN30      -0.1225
     21  CA       -10.8750    0.8550  -25.6470 C.3    30  ASN30       0.1785
     22  C        -12.2780    0.4890  -26.0850 C.2    30  ASN30       0.2597
     23  O        -12.8820   -0.4610  -25.5880 O.2    30  ASN30      -0.2718
     24  CB       -10.1540   -0.3410  -25.0280 C.3    30  ASN30       0.1169
     25  CG        -9.6310   -1.3080  -26.0740 C.2    30  ASN30       0.2627
     26  OD1       -9.5000   -0.9590  -27.2470 O.2    30  ASN30      -0.2716
     27  ND2       -9.3290   -2.5310  -25.6530 N.am   30  ASN30      -0.0877
     28  N        -12.7810    1.2630  -27.0410 N.am   31  ASP31      -0.1960
     29  CA       -14.2130    1.3160  -27.2920 C.3    31  ASP31       0.1840
     30  C        -14.5880    1.6470  -28.7350 C.2    31  ASP31       0.2621
     31  O        -13.7490    2.0660  -29.5320 O.2    31  ASP31      -0.2715
     32  CB       -14.8490    2.3260  -26.3320 C.3    31  ASP31       0.1450
     33  CG       -14.8310    1.8510  -24.8890 C.2    31  ASP31       0.3671
     34  OD1      -15.7810    1.1490  -24.4830 O.co2  31  ASP31      -0.2456
     35  OD2      -13.8740    2.1820  -24.1570 O.co2  31  ASP31      -0.2456
     36  N        -15.8660    1.4600  -29.0470 N.am   32  ILE32      -0.1977
     37  CA       -16.3790    1.5780  -30.4050 C.3    32  ILE32       0.1596
     38  C        -17.7310    2.2890  -30.3310 C.2    32  ILE32       0.2287
     39  O        -18.4320    2.1810  -29.3240 O.2    32  ILE32      -0.2864
     40  CB       -16.5210    0.2000  -31.0940 C.3    32  ILE32       0.0276
     41  CG1      -16.8420    0.3680  -32.5830 C.3    32  ILE32       0.0022
     42  CG2      -17.5590   -0.6620  -30.3890 C.3    32  ILE32       0.0022
     43  CD1      -16.5660   -0.8660  -33.4130 C.3    32  ILE32       0.0001
     44  N        -22.3360    4.7800  -28.0890 N.3    58  ALA58      -0.1231
     45  CA       -21.0000    4.2150  -27.9870 C.3    58  ALA58       0.1694
     46  C        -20.8540    3.3930  -26.7160 C.2    58  ALA58       0.2593
     47  O        -21.6430    3.5260  -25.7800 O.2    58  ALA58      -0.2718
     48  CB       -19.9430    5.3090  -28.0580 C.3    58  ALA58       0.0304
     49  N        -19.8290    2.5490  -26.6890 N.am   59  THR59      -0.1939
     50  CA       -19.5560    1.7010  -25.5360 C.3    59  THR59       0.2028
     51  C        -18.9150    2.4730  -24.3820 C.2    59  THR59       0.2642
     52  O        -18.8890    2.0020  -23.2450 O.2    59  THR59      -0.2714
     53  CB       -18.7090    0.4780  -25.9390 C.3    59  THR59       0.1808
     54  OG1      -17.4590    0.9130  -26.4750 O.3    59  THR59      -0.2208
     55  CG2      -19.4310   -0.3290  -27.0060 C.3    59  THR59       0.0379
     56  N        -18.3970    3.6580  -24.6860 N.am   60  ASP60      -0.1971
     57  CA       -17.9000    4.5750  -23.6660 C.3    60  ASP60       0.1709
     58  C        -17.8300    5.9630  -24.2840 C.2    60  ASP60       0.2293
     59  O        -18.1910    6.1430  -25.4470 O.2    60  ASP60      -0.2864
     60  CB       -16.5140    4.1540  -23.1800 C.3    60  ASP60       0.1436
     61  CG       -16.2270    4.6140  -21.7630 C.2    60  ASP60       0.3671
     62  OD1      -16.7760    5.6570  -21.3500 O.co2  60  ASP60      -0.2456
     63  OD2      -15.4550    3.9280  -21.0590 O.co2  60  ASP60      -0.2456
     64  N        -22.7480    8.0640  -22.7510 N.3    75  LYS75      -0.1245
     65  CA       -22.3170    7.1730  -23.8200 C.3    75  LYS75       0.1561
     66  C        -23.1880    7.3330  -25.0630 C.2    75  LYS75       0.2260
     67  O        -22.7310    7.0860  -26.1780 O.2    75  LYS75      -0.2867
     68  CB       -22.4160    5.7220  -23.3490 C.3    75  LYS75       0.0271
     69  CG       -21.5760    5.4080  -22.1210 C.3    75  LYS75       0.0035
     70  CD       -21.6590    3.9340  -21.7630 C.3    75  LYS75       0.0206
     71  CE       -20.6610    3.5680  -20.6790 C.3    75  LYS75       0.1093
     72  NZ       -20.9300    4.3050  -19.4140 N.3    75  LYS75      -0.1314
     73  N         -7.2470    5.3010  -40.4020 N.3   412  PHE412     -0.1241
     74  CA        -6.5700    5.1300  -39.1230 C.3   412  PHE412      0.1605
     75  C         -5.8810    6.4280  -38.7110 C.2   412  PHE412      0.2264
     76  O         -5.1830    7.0450  -39.5140 O.2   412  PHE412     -0.2867
     77  CB        -5.5100    4.0320  -39.2340 C.3   412  PHE412      0.0534
     78  CG        -4.6370    3.9040  -38.0130 C.ar  412  PHE412     -0.0203
     79  CD1       -5.0230    3.0950  -36.9570 C.ar  412  PHE412     -0.0042
     80  CD2       -3.4230    4.5720  -37.9300 C.ar  412  PHE412     -0.0042
     81  CE1       -4.2270    2.9690  -35.8330 C.ar  412  PHE412     -0.0003
     82  CE2       -2.6240    4.4490  -36.8080 C.ar  412  PHE412     -0.0003
     83  CZ        -3.0260    3.6450  -35.7600 C.ar  412  PHE412     -0.0000
     84  N         -0.5380    6.0600  -25.7900 N.3   429  HIS429     -0.1241
     85  CA        -1.0300    6.2160  -27.1500 C.3   429  HIS429      0.1621
     86  C         -2.4940    6.6380  -27.1890 C.2   429  HIS429      0.2264
     87  O         -3.2410    6.4510  -26.2290 O.2   429  HIS429     -0.2867
     88  CB        -0.8590    4.8940  -27.9040 C.3   429  HIS429      0.0745
     89  CG        -1.8720    3.8530  -27.5390 C.ar  429  HIS429      0.0817
     90  ND1       -1.7000    2.9850  -26.4830 N.ar  429  HIS429     -0.2268
     91  CD2       -3.0650    3.5360  -28.0960 C.ar  429  HIS429      0.1154
     92  CE1       -2.7450    2.1810  -26.4020 C.ar  429  HIS429      0.1986
     93  NE2       -3.5880    2.4950  -27.3690 N.ar  429  HIS429     -0.2212
     94  N         -5.3370    6.2300  -30.4710 N.3   431  ALA431     -0.1231
     95  CA        -5.5360    5.8520  -31.8610 C.3   431  ALA431      0.1694
     96  C         -7.0070    5.6850  -32.2040 C.2   431  ALA431      0.2592
     97  O         -7.8230    5.3170  -31.3590 O.2   431  ALA431     -0.2718
     98  CB        -4.7770    4.5740  -32.1860 C.3   431  ALA431      0.0304
     99  N         -7.3300    5.9620  -33.4610 N.am  432  PHE432     -0.1962
    100  CA        -8.6950    5.8910  -33.9450 C.3   432  PHE432      0.1771
    101  C         -8.6880    5.1250  -35.2540 C.2   432  PHE432      0.2619
    102  O         -7.7370    5.2120  -36.0300 O.2   432  PHE432     -0.2715
    103  CB        -9.2320    7.2890  -34.2580 C.3   432  PHE432      0.0574
    104  CG        -9.3880    8.1720  -33.0530 C.ar  432  PHE432     -0.0200
    105  CD1       -8.3410    8.9720  -32.6240 C.ar  432  PHE432     -0.0042
    106  CD2      -10.5860    8.2160  -32.3610 C.ar  432  PHE432     -0.0042
    107  CE1       -8.4840    9.7930  -31.5200 C.ar  432  PHE432     -0.0003
    108  CE2      -10.7360    9.0350  -31.2580 C.ar  432  PHE432     -0.0003
    109  CZ        -9.6830    9.8230  -30.8360 C.ar  432  PHE432     -0.0000
    110  N         -9.7520    4.3690  -35.4940 N.am  433  VAL433     -0.1977
    111  CA       -10.1010    3.9750  -36.8470 C.3   433  VAL433      0.1596
    112  C        -11.4780    4.5480  -37.1460 C.2   433  VAL433      0.2287
    113  O        -12.4010    4.3960  -36.3460 O.2   433  VAL433     -0.2864
    114  CB       -10.1530    2.4460  -37.0010 C.3   433  VAL433      0.0276
    115  CG1      -10.6350    2.0660  -38.3910 C.3   433  VAL433      0.0022
    116  CG2       -8.7840    1.8410  -36.7280 C.3   433  VAL433      0.0022
@<TRIPOS>BOND
     1    73    74    1
     2    76    75    2
     3    77    74    1
     4    77    78    1
     5    74    75    1
     6   115   114    1
     7    78    80   ar
     8    78    79   ar
     9    80    82   ar
    10   112   111    1
    11   112   113    2
    12   114   111    1
    13   114   116    1
    14    79    81   ar
    15   111   110    1
    16    82    83   ar
    17   102   101    2
    18    81    83   ar
    19   110   101   am
    20   101   100    1
    21   103   100    1
    22   103   104    1
    23   100    99    1
    24     1     2    1
    25    99    96   am
    26    43    41    1
    27   104   105   ar
    28   104   106   ar
    29     4     3    2
    30   105   107   ar
    31    41    40    1
    32     2     3    1
    33   106   108   ar
    34    96    95    1
    35    96    97    2
    36    98    95    1
    37     3     5   am
    38    95    94    1
    39   107   109   ar
    40   108   109   ar
    41    40    37    1
    42    40    42    1
    43     5     6    1
    44    37    38    1
    45    37    36    1
    46    38    39    2
    47     6     9    1
    48     6     7    1
    49    31    30    2
    50     9    10    1
    51    14     7   am
    52    14    15    1
    53     7     8    2
    54    36    30   am
    55    30    29    1
    56    10    11    1
    57    18    15    1
    58    18    19    1
    59    17    16    2
    60    12    11   ar
    61    15    16    1
    62    91    89   ar
    63    91    93   ar
    64    44    45    1
    65    11    13   ar
    66    48    45    1
    67    45    46    1
    68    88    89    1
    69    88    85    1
    70    89    90   ar
    71    93    92   ar
    72    29    28    1
    73    29    32    1
    74    26    25    2
    75    86    85    1
    76    86    87    2
    77    85    84    1
    78    28    22   am
    79    55    53    1
    80    46    49   am
    81    46    47    2
    82    49    50    1
    83    90    92   ar
    84    54    53    1
    85    32    33    1
    86    67    66    2
    87    22    21    1
    88    22    23    2
    89    25    27   am
    90    25    24    1
    91    53    50    1
    92    21    24    1
    93    21    20    1
    94    50    51    1
    95    59    58    2
    96    66    65    1
    97    33    34   ar
    98    33    35   ar
    99    56    51   am
   100    56    57    1
   101    51    52    2
   102    58    57    1
   103    65    68    1
   104    65    64    1
   105    57    60    1
   106    68    69    1
   107    60    61    1
   108    69    70    1
   109    61    62   ar
   110    61    63   ar
   111    70    71    1
   112    71    72    1
