@<TRIPOS>MOLECULE
tmp/4b61A05.pdb
 89 83 0 0 0
SMALL
GASTEIGER

@<TRIPOS>ATOM
      1  N        -36.4700  -32.8900  -24.5350 N.3    16  ASN16      -0.1240
      2  CA       -36.0090  -33.6040  -23.3480 C.3    16  ASN16       0.1653
      3  C        -34.5610  -33.2360  -23.0580 C.2    16  ASN16       0.2266
      4  O        -33.6770  -33.6260  -23.8180 O.2    16  ASN16      -0.2867
      5  CB       -36.0740  -35.1050  -23.6250 C.3    16  ASN16       0.1155
      6  CG       -36.0920  -35.9330  -22.3540 C.2    16  ASN16       0.2627
      7  OD1      -35.3830  -35.6340  -21.3930 O.2    16  ASN16      -0.2716
      8  ND2      -36.9030  -36.9850  -22.3440 N.am   16  ASN16      -0.0877
      9  N        -25.6690  -28.9320  -41.3050 N.3   348  LEU348     -0.1245
     10  CA       -25.1290  -29.4350  -40.0570 C.3   348  LEU348      0.1561
     11  C        -24.4170  -28.2630  -39.4130 C.2   348  LEU348      0.2260
     12  O        -23.5360  -27.6490  -40.0140 O.2   348  LEU348     -0.2867
     13  CB       -24.1180  -30.5410  -40.3500 C.3   348  LEU348      0.0270
     14  CG       -23.4880  -31.2550  -39.1530 C.3   348  LEU348      0.0019
     15  CD1      -24.5450  -32.0100  -38.3630 C.3   348  LEU348      0.0001
     16  CD2      -22.3860  -32.1960  -39.6190 C.3   348  LEU348      0.0001
     17  N        -25.0010  -29.4910  -31.4070 N.3   382  LEU382     -0.1231
     18  CA       -24.9480  -29.9010  -32.8020 C.3   382  LEU382      0.1693
     19  C        -26.3670  -29.9770  -33.3470 C.2   382  LEU382      0.2592
     20  O        -27.2480  -30.5800  -32.7340 O.2   382  LEU382     -0.2718
     21  CB       -24.2790  -31.2710  -32.9110 C.3   382  LEU382      0.0284
     22  CG       -23.7710  -31.6780  -34.2960 C.3   382  LEU382      0.0019
     23  CD1      -22.7110  -30.7030  -34.7840 C.3   382  LEU382      0.0001
     24  CD2      -23.2270  -33.1000  -34.2710 C.3   382  LEU382      0.0001
     25  N        -26.5790  -29.3630  -34.5070 N.am  383  ASP383     -0.1960
     26  CA       -27.9020  -29.2930  -35.1080 C.3   383  ASP383      0.1840
     27  C        -27.8910  -29.8820  -36.5000 C.2   383  ASP383      0.2621
     28  O        -26.8810  -29.8520  -37.2040 O.2   383  ASP383     -0.2715
     29  CB       -28.2910  -27.8330  -35.3150 C.3   383  ASP383      0.1450
     30  CG       -28.8010  -27.1890  -34.0530 C.2   383  ASP383      0.3671
     31  OD1      -28.4780  -27.7050  -32.9690 O.co2 383  ASP383     -0.2456
     32  OD2      -29.5240  -26.1750  -34.1440 O.co2 383  ASP383     -0.2456
     33  N        -29.0410  -30.4170  -36.8870 N.am  384  LEU384     -0.1977
     34  CA       -29.2360  -30.9490  -38.2210 C.3   384  LEU384      0.1596
     35  C        -30.6140  -30.5450  -38.7220 C.2   384  LEU384      0.2287
     36  O        -31.6130  -30.6990  -38.0200 O.2   384  LEU384     -0.2864
     37  CB       -29.0950  -32.4700  -38.1970 C.3   384  LEU384      0.0297
     38  CG       -29.4700  -33.2000  -39.4880 C.3   384  LEU384      0.0022
     39  CD1      -28.4850  -32.8640  -40.5970 C.3   384  LEU384      0.0001
     40  CD2      -29.5360  -34.7030  -39.2590 C.3   384  LEU384      0.0001
     41  N        -37.0310  -32.3760  -41.0850 N.3   399  PHE399     -0.1241
     42  CA       -36.5440  -32.6520  -39.7450 C.3   399  PHE399      0.1605
     43  C        -35.6900  -31.4840  -39.2620 C.2   399  PHE399      0.2264
     44  O        -34.8190  -31.0020  -39.9860 O.2   399  PHE399     -0.2867
     45  CB       -35.6900  -33.9210  -39.7470 C.3   399  PHE399      0.0534
     46  CG       -35.0030  -34.1880  -38.4390 C.ar  399  PHE399     -0.0203
     47  CD1      -35.6510  -34.9050  -37.4480 C.ar  399  PHE399     -0.0042
     48  CD2      -33.7130  -33.7420  -38.2020 C.ar  399  PHE399     -0.0042
     49  CE1      -35.0350  -35.1590  -36.2430 C.ar  399  PHE399     -0.0003
     50  CE2      -33.0910  -33.9930  -36.9960 C.ar  399  PHE399     -0.0003
     51  CZ       -33.7540  -34.7040  -36.0160 C.ar  399  PHE399     -0.0000
     52  N        -33.5360  -30.7010  -35.7560 N.3   401  GLY401     -0.1210
     53  CA       -33.1250  -31.2180  -34.4670 C.3   401  GLY401      0.1956
     54  C        -31.8660  -30.5720  -33.9300 C.2   401  GLY401      0.2612
     55  O        -30.9990  -30.1420  -34.6900 O.2   401  GLY401     -0.2717
     56  N        -31.7730  -30.4990  -32.6080 N.am  402  GLY402     -0.1942
     57  CA       -30.6000  -29.9530  -31.9570 C.3   402  GLY402      0.2014
     58  C        -30.2340  -30.8110  -30.7640 C.2   402  GLY402      0.2638
     59  O        -31.1010  -31.2190  -29.9920 O.2   402  GLY402     -0.2714
     60  N        -28.9440  -31.0820  -30.6120 N.am  403  LEU403     -0.1977
     61  CA       -28.4590  -31.8450  -29.4760 C.3   403  LEU403      0.1596
     62  C        -27.5560  -30.9200  -28.6740 C.2   403  LEU403      0.2287
     63  O        -26.5270  -30.4700  -29.1730 O.2   403  LEU403     -0.2864
     64  CB       -27.6520  -33.0370  -29.9900 C.3   403  LEU403      0.0297
     65  CG       -27.0670  -34.0190  -28.9810 C.3   403  LEU403      0.0022
     66  CD1      -28.2020  -34.6720  -28.2250 C.3   403  LEU403      0.0001
     67  CD2      -26.2130  -35.0630  -29.6800 C.3   403  LEU403      0.0001
     68  N        -27.0470  -34.2480  -21.4520 N.3   417  THR417     -0.1218
     69  CA       -27.5350  -34.0430  -22.8000 C.3   417  THR417      0.1862
     70  C        -29.0100  -33.6480  -22.7680 C.2   417  THR417      0.2287
     71  O        -29.7590  -34.0710  -21.8880 O.2   417  THR417     -0.2866
     72  CB       -27.4250  -35.3840  -23.5730 C.3   417  THR417      0.1770
     73  OG1      -26.0590  -35.6150  -23.9380 O.3   417  THR417     -0.2211
     74  CG2      -28.2790  -35.4020  -24.8230 C.3   417  THR417      0.0375
     75  N        -32.2080  -32.5380  -25.8480 N.3   419  HIS419     -0.1241
     76  CA       -32.4850  -32.3460  -27.2610 C.3   419  HIS419      0.1621
     77  C        -33.8390  -31.6950  -27.4780 C.2   419  HIS419      0.2264
     78  O        -34.7190  -31.7380  -26.6190 O.2   419  HIS419     -0.2867
     79  CB       -32.4420  -33.6950  -27.9830 C.3   419  HIS419      0.0745
     80  CG       -33.6540  -34.5440  -27.7550 C.ar  419  HIS419      0.0817
     81  ND1      -33.7710  -35.4040  -26.6840 N.ar  419  HIS419     -0.2268
     82  CD2      -34.8030  -34.6650  -28.4620 C.ar  419  HIS419      0.1154
     83  CE1      -34.9390  -36.0190  -26.7420 C.ar  419  HIS419      0.1986
     84  NE2      -35.5850  -35.5870  -27.8100 N.ar  419  HIS419     -0.2212
     85  N        -36.2660  -31.7290  -31.0770 N.3   421  ALA421     -0.1245
     86  CA       -36.3400  -32.1050  -32.4750 C.3   421  ALA421      0.1562
     87  C        -37.7660  -32.0340  -32.9890 C.2   421  ALA421      0.2260
     88  O        -38.7240  -32.2390  -32.2440 O.2   421  ALA421     -0.2867
     89  CB       -35.7670  -33.5000  -32.6980 C.3   421  ALA421      0.0290
@<TRIPOS>BOND
     1     9    10    1
     2    41    42    1
     3    39    38    1
     4    13    10    1
     5    13    14    1
     6    10    11    1
     7    12    11    2
     8    44    43    2
     9    45    42    1
    10    45    46    1
    11    42    43    1
    12    16    14    1
    13    38    40    1
    14    38    37    1
    15    14    15    1
    16    35    34    1
    17    35    36    2
    18    46    48   ar
    19    46    47   ar
    20    34    37    1
    21    34    33    1
    22    48    50   ar
    23    47    49   ar
    24    28    27    2
    25    50    51   ar
    26    33    27   am
    27    27    26    1
    28    49    51   ar
    29    52    53    1
    30    29    26    1
    31    29    30    1
    32    26    25    1
    33    23    22    1
    34    55    54    2
    35    25    19   am
    36    53    54    1
    37    22    24    1
    38    22    21    1
    39    32    30   ar
    40    30    31   ar
    41    54    56   am
    42    19    18    1
    43    19    20    2
    44    87    86    1
    45    87    88    2
    46    21    18    1
    47    18    17    1
    48    89    86    1
    49    56    57    1
    50    86    85    1
    51    57    58    1
    52    58    60   am
    53    58    59    2
    54    60    61    1
    55    64    61    1
    56    64    65    1
    57    67    65    1
    58    61    62    1
    59    63    62    2
    60    65    66    1
    61    82    84   ar
    62    82    80   ar
    63    79    80    1
    64    79    76    1
    65    84    83   ar
    66    80    81   ar
    67    77    76    1
    68    77    78    2
    69    76    75    1
    70    83    81   ar
    71    74    72    1
    72     1     2    1
    73    73    72    1
    74     4     3    2
    75     5     2    1
    76     5     6    1
    77    72    69    1
    78     2     3    1
    79    69    70    1
    80    69    68    1
    81    70    71    2
    82     6     8   am
    83     6     7    2
