@<TRIPOS>MOLECULE
tmp/4b61B00.pdb
 99 96 0 0 0
SMALL
GASTEIGER

@<TRIPOS>ATOM
      1  N        -27.1430   24.3410  -37.9260 N.3    83  PHE83      -0.1241
      2  CA       -28.4120   24.8800  -38.3760 C.3    83  PHE83       0.1605
      3  C        -28.1810   26.3260  -38.7730 C.2    83  PHE83       0.2264
      4  O        -27.8880   27.1680  -37.9270 O.2    83  PHE83      -0.2867
      5  CB       -29.5170   24.7330  -37.3200 C.3    83  PHE83       0.0534
      6  CG       -29.0620   24.9950  -35.9070 C.ar   83  PHE83      -0.0203
      7  CD1      -28.4970   23.9840  -35.1450 C.ar   83  PHE83      -0.0042
      8  CD2      -29.2290   26.2450  -35.3310 C.ar   83  PHE83      -0.0042
      9  CE1      -28.0870   24.2210  -33.8440 C.ar   83  PHE83      -0.0003
     10  CE2      -28.8210   26.4880  -34.0320 C.ar   83  PHE83      -0.0003
     11  CZ       -28.2510   25.4750  -33.2870 C.ar   83  PHE83      -0.0000
     12  N        -25.6980   32.6510  -41.2000 N.3   100  PHE100     -0.1227
     13  CA       -26.2440   32.9010  -39.8680 C.3   100  PHE100      0.1736
     14  C        -26.7850   31.6270  -39.2340 C.2   100  PHE100      0.2596
     15  O        -27.7040   31.0070  -39.7640 O.2   100  PHE100     -0.2718
     16  CB       -27.3690   33.9310  -39.9670 C.3   100  PHE100      0.0547
     17  CG       -27.9430   34.3280  -38.6390 C.ar  100  PHE100     -0.0202
     18  CD1      -27.1430   34.8840  -37.6570 C.ar  100  PHE100     -0.0042
     19  CD2      -29.2860   34.1210  -38.3650 C.ar  100  PHE100     -0.0042
     20  CE1      -27.6740   35.2420  -36.4340 C.ar  100  PHE100     -0.0003
     21  CE2      -29.8220   34.4750  -37.1420 C.ar  100  PHE100     -0.0003
     22  CZ       -29.0150   35.0360  -36.1750 C.ar  100  PHE100     -0.0000
     23  N        -26.2280   31.2530  -38.0860 N.am  101  GLY101     -0.1957
     24  CA       -26.6900   30.0830  -37.3630 C.3   101  GLY101      0.1869
     25  C        -25.5110   29.3090  -36.8080 C.2   101  GLY101      0.2309
     26  O        -24.3800   29.7950  -36.8420 O.2   101  GLY101     -0.2863
     27  N        -22.5460   28.8070  -32.8910 N.3   118  GLU118     -0.1231
     28  CA       -23.5110   29.8220  -33.2910 C.3   118  GLU118      0.1699
     29  C        -22.7520   31.0740  -33.6980 C.2   118  GLU118      0.2592
     30  O        -21.9800   31.6230  -32.9130 O.2   118  GLU118     -0.2718
     31  CB       -24.4860   30.1330  -32.1560 C.3   118  GLU118      0.0402
     32  CG       -25.1420   28.9100  -31.5450 C.3   118  GLU118      0.1161
     33  CD       -24.3920   28.3940  -30.3350 C.2   118  GLU118      0.3649
     34  OE1      -23.2360   27.9490  -30.4960 O.co2 118  GLU118     -0.2457
     35  OE2      -24.9590   28.4330  -29.2230 O.co2 118  GLU118     -0.2457
     36  N        -22.9670   31.5240  -34.9270 N.am  119  ALA119     -0.1966
     37  CA       -22.1950   32.6400  -35.4420 C.3   119  ALA119      0.1728
     38  C        -22.9410   33.3840  -36.5340 C.2   119  ALA119      0.2616
     39  O        -23.8950   32.8770  -37.1230 O.2   119  ALA119     -0.2715
     40  CB       -20.8700   32.1430  -36.0000 C.3   119  ALA119      0.0334
     41  N        -22.4830   34.6010  -36.7880 N.am  120  LEU120     -0.1977
     42  CA       -22.8000   35.3120  -38.0100 C.3   120  LEU120      0.1596
     43  C        -21.4680   35.5400  -38.6920 C.2   120  LEU120      0.2287
     44  O        -20.5990   36.2200  -38.1520 O.2   120  LEU120     -0.2864
     45  CB       -23.4660   36.6480  -37.6900 C.3   120  LEU120      0.0297
     46  CG       -23.6540   37.6010  -38.8730 C.3   120  LEU120      0.0022
     47  CD1      -24.6130   37.0040  -39.8900 C.3   120  LEU120      0.0001
     48  CD2      -24.1370   38.9660  -38.4050 C.3   120  LEU120      0.0001
     49  N        -18.8600   37.2190  -35.9520 N.3   135  VAL135     -0.1231
     50  CA       -19.0310   37.2290  -34.5090 C.3   135  VAL135      0.1692
     51  C        -19.6050   35.8750  -34.1090 C.2   135  VAL135      0.2592
     52  O        -20.3580   35.2650  -34.8690 O.2   135  VAL135     -0.2718
     53  CB       -19.9770   38.3720  -34.0690 C.3   135  VAL135      0.0266
     54  CG1      -19.3930   39.7270  -34.4360 C.3   135  VAL135      0.0020
     55  CG2      -21.3550   38.2050  -34.6900 C.3   135  VAL135      0.0020
     56  N        -19.2310   35.3870  -32.9320 N.am  136  ALA136     -0.1966
     57  CA       -19.7110   34.0860  -32.4900 C.3   136  ALA136      0.1728
     58  C        -19.7920   34.0130  -30.9720 C.2   136  ALA136      0.2616
     59  O        -19.0300   34.6680  -30.2620 O.2   136  ALA136     -0.2715
     60  CB       -18.7960   32.9880  -33.0070 C.3   136  ALA136      0.0334
     61  N        -20.7220   33.1970  -30.4890 N.am  137  GLN137     -0.1977
     62  CA       -20.8620   32.9190  -29.0670 C.3   137  GLN137      0.1601
     63  C        -21.5860   31.5900  -28.8850 C.2   137  GLN137      0.2287
     64  O        -22.5020   31.2720  -29.6430 O.2   137  GLN137     -0.2864
     65  CB       -21.6290   34.0490  -28.3760 C.3   137  GLN137      0.0394
     66  CG       -21.9490   33.7880  -26.9120 C.3   137  GLN137      0.0908
     67  CD       -22.4000   35.0360  -26.1780 C.2   137  GLN137      0.2608
     68  OE1      -22.3680   36.1390  -26.7230 O.2   137  GLN137     -0.2717
     69  NE2      -22.8330   34.8660  -24.9350 N.am  137  GLN137     -0.0878
     70  N        -24.2470   29.3910  -26.9130 N.3   139  PHE139     -0.1241
     71  CA       -25.4010   29.5610  -26.0370 C.3   139  PHE139      0.1605
     72  C        -25.8560   28.2290  -25.4560 C.2   139  PHE139      0.2264
     73  O        -26.5400   28.1870  -24.4330 O.2   139  PHE139     -0.2867
     74  CB       -26.5500   30.2610  -26.7660 C.3   139  PHE139      0.0534
     75  CG       -26.1910   31.6210  -27.2930 C.ar  139  PHE139     -0.0203
     76  CD1      -26.1630   32.7190  -26.4480 C.ar  139  PHE139     -0.0042
     77  CD2      -25.8810   31.8030  -28.6310 C.ar  139  PHE139     -0.0042
     78  CE1      -25.8330   33.9730  -26.9270 C.ar  139  PHE139     -0.0003
     79  CE2      -25.5500   33.0550  -29.1160 C.ar  139  PHE139     -0.0003
     80  CZ       -25.5260   34.1410  -28.2620 C.ar  139  PHE139     -0.0000
     81  N        -26.4370   22.1250  -27.3880 N.3   142  TYR142     -0.1241
     82  CA       -27.4810   21.4720  -28.1730 C.3   142  TYR142      0.1605
     83  C        -27.3360   19.9530  -28.1360 C.2   142  TYR142      0.2264
     84  O        -27.4300   19.2800  -29.1600 O.2   142  TYR142     -0.2867
     85  CB       -27.5080   21.9990  -29.6110 C.3   142  TYR142      0.0534
     86  CG       -27.5440   23.5080  -29.6760 C.ar  142  TYR142     -0.0201
     87  CD1      -28.7410   24.1990  -29.5410 C.ar  142  TYR142     -0.0009
     88  CD2      -26.3800   24.2420  -29.8560 C.ar  142  TYR142     -0.0009
     89  CE1      -28.7780   25.5800  -29.5930 C.ar  142  TYR142      0.0417
     90  CE2      -26.4060   25.6230  -29.9070 C.ar  142  TYR142      0.0417
     91  CZ       -27.6080   26.2860  -29.7750 C.ar  142  TYR142      0.1957
     92  OH       -27.6400   27.6610  -29.8220 O.3   142  TYR142     -0.2866
     93  N        -17.9630   36.2150  -25.7730 N.3   157  THR157     -0.1218
     94  CA       -18.2210   36.6240  -27.1500 C.3   157  THR157      0.1862
     95  C        -16.9440   36.7430  -27.9740 C.2   157  THR157      0.2287
     96  O        -15.9370   37.2730  -27.5070 O.2   157  THR157     -0.2866
     97  CB       -18.9690   37.9760  -27.1900 C.3   157  THR157      0.1770
     98  OG1      -20.1090   37.9220  -26.3250 O.3   157  THR157     -0.2211
     99  CG2      -19.4250   38.3030  -28.6030 C.3   157  THR157      0.0375
@<TRIPOS>BOND
     1    12    13    1
     2    16    13    1
     3    16    17    1
     4    47    46    1
     5    13    14    1
     6    15    14    2
     7    14    23   am
     8    46    48    1
     9    46    45    1
    10     3     2    1
    11     3     4    2
    12    43    44    2
    13    43    42    1
    14    17    19   ar
    15    17    18   ar
    16     2     1    1
    17     2     5    1
    18    19    21   ar
    19    23    24    1
    20    42    45    1
    21    42    41    1
    22    18    20   ar
    23    24    25    1
    24     5     6    1
    25    21    22   ar
    26    39    38    2
    27    26    25    2
    28    41    38   am
    29    38    37    1
    30    20    22   ar
    31    40    37    1
    32    49    50    1
    33     6     8   ar
    34     6     7   ar
    35    37    36    1
    36     8    10   ar
    37     7     9   ar
    38    36    29   am
    39    52    51    2
    40    55    53    1
    41    50    51    1
    42    50    53    1
    43    54    53    1
    44    51    56   am
    45    10    11   ar
    46     9    11   ar
    47    29    28    1
    48    29    30    2
    49    28    27    1
    50    28    31    1
    51    60    57    1
    52    56    57    1
    53    57    58    1
    54    31    32    1
    55    32    33    1
    56    58    61   am
    57    58    59    2
    58    34    33   ar
    59    61    62    1
    60    33    35   ar
    61    90    88   ar
    62    90    91   ar
    63    88    86   ar
    64    92    91    1
    65    91    89   ar
    66    86    85    1
    67    86    87   ar
    68    64    63    2
    69    85    82    1
    70    89    87   ar
    71    84    83    2
    72    79    77   ar
    73    79    80   ar
    74    62    63    1
    75    62    65    1
    76    77    75   ar
    77    99    97    1
    78    65    66    1
    79    80    78   ar
    80    82    83    1
    81    82    81    1
    82    95    96    2
    83    95    94    1
    84    75    74    1
    85    75    76   ar
    86    97    94    1
    87    97    98    1
    88    94    93    1
    89    78    76   ar
    90    70    71    1
    91    66    67    1
    92    74    71    1
    93    68    67    2
    94    67    69   am
    95    71    72    1
    96    72    73    2
