@<TRIPOS>MOLECULE
tmp/4b61B08.pdb
 89 85 0 0 0
SMALL
GASTEIGER

@<TRIPOS>ATOM
      1  N        -18.6140    4.9890  -38.0940 N.3    11  ILE11      -0.1245
      2  CA       -18.2480    4.0590  -37.0410 C.3    11  ILE11       0.1561
      3  C        -16.8420    4.3840  -36.5690 C.2    11  ILE11       0.2260
      4  O        -15.9170    4.4560  -37.3780 O.2    11  ILE11      -0.2867
      5  CB       -18.3010    2.6060  -37.5480 C.3    11  ILE11       0.0252
      6  CG1      -19.7040    2.2590  -38.0550 C.3    11  ILE11       0.0019
      7  CG2      -17.8220    1.6440  -36.4680 C.3    11  ILE11       0.0019
      8  CD1      -20.7930    2.5040  -37.0490 C.3    11  ILE11       0.0001
      9  N        -13.7130    3.5180  -33.7160 N.3    13  GLY13      -0.1225
     10  CA       -13.1200    2.8660  -32.5680 C.3    13  GLY13       0.1811
     11  C        -12.0330    3.7590  -32.0160 C.2    13  GLY13       0.2280
     12  O        -11.2990    4.3880  -32.7770 O.2    13  GLY13      -0.2866
     13  N        -15.8660    1.4600  -29.0470 N.3    32  ILE32      -0.1245
     14  CA       -16.3790    1.5780  -30.4050 C.3    32  ILE32       0.1561
     15  C        -17.7310    2.2890  -30.3310 C.2    32  ILE32       0.2260
     16  O        -18.4320    2.1810  -29.3240 O.2    32  ILE32      -0.2867
     17  CB       -16.5210    0.2000  -31.0940 C.3    32  ILE32       0.0252
     18  CG1      -16.8420    0.3680  -32.5830 C.3    32  ILE32       0.0019
     19  CG2      -17.5590   -0.6620  -30.3890 C.3    32  ILE32       0.0019
     20  CD1      -16.5660   -0.8660  -33.4130 C.3    32  ILE32       0.0001
     21  N        -13.2400    5.7080  -50.6290 N.3   390  PHE390     -0.1227
     22  CA       -14.0430    4.8130  -51.4460 C.3   390  PHE390      0.1736
     23  C        -14.7410    5.6350  -52.5220 C.2   390  PHE390      0.2595
     24  O        -14.9820    6.8280  -52.3370 O.2   390  PHE390     -0.2718
     25  CB       -15.0730    4.0560  -50.6070 C.3   390  PHE390      0.0547
     26  CG       -14.4700    3.1700  -49.5540 C.ar  390  PHE390     -0.0202
     27  CD1      -13.7110    2.0680  -49.9080 C.ar  390  PHE390     -0.0042
     28  CD2      -14.6760    3.4300  -48.2090 C.ar  390  PHE390     -0.0042
     29  CE1      -13.1630    1.2460  -48.9420 C.ar  390  PHE390     -0.0003
     30  CE2      -14.1290    2.6120  -47.2380 C.ar  390  PHE390     -0.0003
     31  CZ       -13.3720    1.5190  -47.6060 C.ar  390  PHE390     -0.0000
     32  N        -15.0690    5.0020  -53.6430 N.am  391  LYS391     -0.1966
     33  CA       -15.7140    5.7000  -54.7490 C.3   391  LYS391      0.1728
     34  C        -17.2220    5.8090  -54.5350 C.2   391  LYS391      0.2616
     35  O        -18.0050    5.4640  -55.4190 O.2   391  LYS391     -0.2715
     36  CB       -15.4350    4.9780  -56.0680 C.3   391  LYS391      0.0311
     37  CG       -14.9050    5.8720  -57.1790 C.3   391  LYS391      0.0038
     38  CD       -13.3950    6.0270  -57.0940 C.3   391  LYS391      0.0206
     39  CE       -12.8410    6.7130  -58.3330 C.3   391  LYS391      0.1093
     40  NZ       -11.3550    6.6380  -58.3920 N.3   391  LYS391     -0.1314
     41  N        -17.6260    6.2930  -53.3650 N.am  392  GLN392     -0.1977
     42  CA       -19.0430    6.3920  -53.0360 C.3   392  GLN392      0.1601
     43  C        -19.3070    7.4760  -51.9960 C.2   392  GLN392      0.2287
     44  O        -18.4280    7.8160  -51.2040 O.2   392  GLN392     -0.2864
     45  CB       -19.5630    5.0450  -52.5300 C.3   392  GLN392      0.0394
     46  CG       -21.0710    4.8850  -52.6150 C.3   392  GLN392      0.0908
     47  CD       -21.4800    3.7190  -53.4910 C.2   392  GLN392      0.2608
     48  OE1      -20.6400    3.0780  -54.1230 O.2   392  GLN392     -0.2717
     49  NE2      -22.7770    3.4350  -53.5320 N.am  392  GLN392     -0.0878
     50  N        -12.1950    4.9860  -45.0080 N.3   410  ILE410     -0.1245
     51  CA       -11.7260    4.2100  -43.8770 C.3   410  ILE410      0.1561
     52  C        -10.3710    4.8220  -43.5120 C.2   410  ILE410      0.2260
     53  O         -9.4700    4.9310  -44.3460 O.2   410  ILE410     -0.2867
     54  CB       -11.6010    2.6970  -44.1970 C.3   410  ILE410      0.0252
     55  CG1      -11.0630    1.9370  -42.9830 C.3   410  ILE410      0.0019
     56  CG2      -10.7370    2.4440  -45.4270 C.3   410  ILE410      0.0019
     57  CD1      -11.9850    1.9780  -41.7870 C.3   410  ILE410      0.0001
     58  N         -9.7520    4.3690  -35.4940 N.3   433  VAL433     -0.1245
     59  CA       -10.1010    3.9750  -36.8470 C.3   433  VAL433      0.1561
     60  C        -11.4780    4.5480  -37.1460 C.2   433  VAL433      0.2260
     61  O        -12.4010    4.3960  -36.3460 O.2   433  VAL433     -0.2867
     62  CB       -10.1530    2.4460  -37.0010 C.3   433  VAL433      0.0252
     63  CG1      -10.6350    2.0660  -38.3910 C.3   433  VAL433      0.0019
     64  CG2       -8.7840    1.8410  -36.7280 C.3   433  VAL433      0.0019
     65  N        -14.6070    4.6040  -40.0250 N.3   435  PHE435     -0.1241
     66  CA       -15.2520    4.1540  -41.2520 C.3   435  PHE435      0.1605
     67  C        -16.4770    5.0140  -41.5120 C.2   435  PHE435      0.2264
     68  O        -17.3360    5.1290  -40.6380 O.2   435  PHE435     -0.2867
     69  CB       -15.6990    2.7050  -41.1150 C.3   435  PHE435      0.0534
     70  CG       -16.7010    2.2990  -42.1590 C.ar  435  PHE435     -0.0203
     71  CD1      -16.3050    2.1150  -43.4740 C.ar  435  PHE435     -0.0042
     72  CD2      -18.0390    2.1370  -41.8400 C.ar  435  PHE435     -0.0042
     73  CE1      -17.2170    1.7560  -44.4460 C.ar  435  PHE435     -0.0003
     74  CE2      -18.9570    1.7790  -42.8110 C.ar  435  PHE435     -0.0003
     75  CZ       -18.5450    1.5880  -44.1150 C.ar  435  PHE435     -0.0000
     76  N        -19.7590    6.1230  -44.0470 N.3   437  TRP437     -0.1241
     77  CA       -20.6370    5.8580  -45.1830 C.3   437  TRP437      0.1605
     78  C        -21.7670    6.8690  -45.3290 C.2   437  TRP437      0.2264
     79  O        -22.4050    7.2640  -44.3540 O.2   437  TRP437     -0.2867
     80  CB       -21.2420    4.4650  -45.0470 C.3   437  TRP437      0.0550
     81  CG       -21.7440    4.0500  -46.3850 C.ar  437  TRP437      0.0003
     82  CD1      -23.0050    4.2290  -46.8720 C.ar  437  TRP437      0.0946
     83  CD2      -20.9580    3.5730  -47.4830 C.ar  437  TRP437      0.0152
     84  NE1      -23.0770    3.8000  -48.1720 N.ar  437  TRP437     -0.2442
     85  CE2      -21.8300    3.4020  -48.5750 C.ar  437  TRP437      0.0810
     86  CE3      -19.6110    3.2330  -47.6360 C.ar  437  TRP437      0.0012
     87  CZ2      -21.3970    2.9120  -49.8060 C.ar  437  TRP437      0.0191
     88  CZ3      -19.1850    2.7400  -48.8560 C.ar  437  TRP437      0.0001
     89  CH2      -20.0770    2.5800  -49.9230 C.ar  437  TRP437      0.0015
@<TRIPOS>BOND
     1    40    39    1
     2    39    38    1
     3    37    38    1
     4    37    36    1
     5    36    33    1
     6    35    34    2
     7    33    34    1
     8    33    32    1
     9    34    41   am
    10    48    47    2
    11    32    23   am
    12    49    47   am
    13    47    46    1
    14    41    42    1
    15    42    45    1
    16    42    43    1
    17    46    45    1
    18    23    24    2
    19    23    22    1
    20    43    44    2
    21    22    21    1
    22    22    25    1
    23    25    26    1
    24    89    87   ar
    25    89    88   ar
    26    27    26   ar
    27    27    29   ar
    28    87    85   ar
    29    26    28   ar
    30    29    31   ar
    31    88    86   ar
    32    85    84   ar
    33    85    83   ar
    34    28    30   ar
    35    84    82   ar
    36    86    83   ar
    37    31    30   ar
    38    83    81   ar
    39    82    81   ar
    40    81    80    1
    41    56    54    1
    42    78    77    1
    43    78    79    2
    44    77    80    1
    45    77    76    1
    46    50    51    1
    47    73    75   ar
    48    73    71   ar
    49    53    52    2
    50    54    51    1
    51    54    55    1
    52    75    74   ar
    53    51    52    1
    54    71    70   ar
    55    55    57    1
    56    74    72   ar
    57    70    72   ar
    58    70    69    1
    59    67    66    1
    60    67    68    2
    61    66    69    1
    62    66    65    1
    63    63    62    1
    64     1     2    1
    65     6     5    1
    66     6     8    1
    67     5     2    1
    68     5     7    1
    69     4     3    2
    70    60    59    1
    71    60    61    2
    72     2     3    1
    73    62    59    1
    74    62    64    1
    75    59    58    1
    76     9    10    1
    77    20    18    1
    78    12    11    2
    79    18    17    1
    80    10    11    1
    81    17    14    1
    82    17    19    1
    83    14    15    1
    84    14    13    1
    85    15    16    2
