@<TRIPOS>MOLECULE
tmp/4b61A03.pdb
 107 104 0 0 0
SMALL
GASTEIGER

@<TRIPOS>ATOM
      1  N        -43.7390    0.5450  -44.1170 N.3   122  TRP122     -0.1241
      2  CA       -43.4070    0.9470  -45.4740 C.3   122  TRP122      0.1605
      3  C        -42.1300    0.2550  -45.9190 C.2   122  TRP122      0.2264
      4  O        -41.1160    0.3000  -45.2220 O.2   122  TRP122     -0.2867
      5  CB       -43.2830    2.4680  -45.5860 C.3   122  TRP122      0.0550
      6  CG       -43.0730    2.9440  -46.9930 C.ar  122  TRP122      0.0003
      7  CD1      -43.9670    2.8740  -48.0220 C.ar  122  TRP122      0.0946
      8  CD2      -41.9060    3.5870  -47.5190 C.ar  122  TRP122      0.0152
      9  NE1      -43.4240    3.4190  -49.1590 N.ar  122  TRP122     -0.2442
     10  CE2      -42.1600    3.8660  -48.8770 C.ar  122  TRP122      0.0810
     11  CE3      -40.6690    3.9480  -46.9770 C.ar  122  TRP122      0.0012
     12  CZ2      -41.2240    4.4890  -49.7000 C.ar  122  TRP122      0.0191
     13  CZ3      -39.7410    4.5670  -47.7950 C.ar  122  TRP122      0.0001
     14  CH2      -40.0240    4.8320  -49.1410 C.ar  122  TRP122      0.0015
     15  N        -39.3170   -0.1460  -49.0840 N.3   124  PHE124     -0.1241
     16  CA       -38.7900    0.3930  -50.3220 C.3   124  PHE124      0.1605
     17  C        -37.5600   -0.4000  -50.7340 C.2   124  PHE124      0.2264
     18  O        -36.4720   -0.2040  -50.1960 O.2   124  PHE124     -0.2867
     19  CB       -38.4430    1.8740  -50.1360 C.3   124  PHE124      0.0534
     20  CG       -37.9090    2.5440  -51.3720 C.ar  124  PHE124     -0.0203
     21  CD1      -36.5560    2.5330  -51.6620 C.ar  124  PHE124     -0.0042
     22  CD2      -38.7650    3.2230  -52.2240 C.ar  124  PHE124     -0.0042
     23  CE1      -36.0700    3.1630  -52.7910 C.ar  124  PHE124     -0.0003
     24  CE2      -38.2850    3.8530  -53.3560 C.ar  124  PHE124     -0.0003
     25  CZ       -36.9360    3.8240  -53.6390 C.ar  124  PHE124     -0.0000
     26  N        -30.8920    0.7460  -53.7660 N.3   129  LEU129     -0.1245
     27  CA       -31.2180    1.2760  -52.4460 C.3   129  LEU129      0.1561
     28  C        -32.3790    0.5040  -51.8240 C.2   129  LEU129      0.2260
     29  O        -33.4420    0.3790  -52.4320 O.2   129  LEU129     -0.2867
     30  CB       -31.5660    2.7710  -52.5640 C.3   129  LEU129      0.0270
     31  CG       -32.0510    3.7080  -51.4330 C.3   129  LEU129      0.0019
     32  CD1      -33.2860    3.2740  -50.6360 C.3   129  LEU129      0.0001
     33  CD2      -30.8930    4.0420  -50.4940 C.3   129  LEU129      0.0001
     34  N        -34.8100    0.5050  -48.2930 N.3   131  ALA131     -0.1231
     35  CA       -35.1890    1.2420  -47.0950 C.3   131  ALA131      0.1694
     36  C        -36.5120    0.7550  -46.5200 C.2   131  ALA131      0.2592
     37  O        -37.3950    0.3160  -47.2570 O.2   131  ALA131     -0.2718
     38  CB       -35.2600    2.7350  -47.3870 C.3   131  ALA131      0.0304
     39  N        -36.6430    0.8300  -45.2010 N.am  132  HIS132     -0.1962
     40  CA       -37.9030    0.5060  -44.5500 C.3   132  HIS132      0.1787
     41  C        -38.1160    1.4300  -43.3640 C.2   132  HIS132      0.2620
     42  O        -37.1640    1.9700  -42.8060 O.2   132  HIS132     -0.2715
     43  CB       -37.9180   -0.9390  -44.0460 C.3   132  HIS132      0.0785
     44  CG       -37.5820   -1.9550  -45.0920 C.ar  132  HIS132      0.0821
     45  ND1      -36.2860   -2.2270  -45.4760 N.ar  132  HIS132     -0.2267
     46  CD2      -38.3710   -2.7770  -45.8230 C.ar  132  HIS132      0.1154
     47  CE1      -36.2930   -3.1660  -46.4050 C.ar  132  HIS132      0.1986
     48  NE2      -37.5460   -3.5170  -46.6330 N.ar  132  HIS132     -0.2212
     49  N        -39.3770    1.6120  -42.9930 N.am  133  ALA133     -0.1977
     50  CA       -39.7370    2.3770  -41.8110 C.3   133  ALA133      0.1597
     51  C        -41.1010    1.8900  -41.3600 C.2   133  ALA133      0.2287
     52  O        -41.9800    1.6480  -42.1860 O.2   133  ALA133     -0.2864
     53  CB       -39.7970    3.8580  -42.1300 C.3   133  ALA133      0.0319
     54  N        -36.6090    1.4500  -38.5040 N.3   161  GLY161     -0.1210
     55  CA       -36.2890    1.8210  -39.8610 C.3   161  GLY161      0.1956
     56  C        -34.9280    1.3050  -40.2690 C.2   161  GLY161      0.2612
     57  O        -34.1210    0.9270  -39.4200 O.2   161  GLY161     -0.2717
     58  N        -34.6740    1.2800  -41.5700 N.am  162  ASP162     -0.1959
     59  CA       -33.3570    0.9140  -42.0570 C.3   162  ASP162      0.1840
     60  C        -33.1660    1.5110  -43.4400 C.2   162  ASP162      0.2621
     61  O        -34.1300    1.8580  -44.1210 O.2   162  ASP162     -0.2715
     62  CB       -33.1930   -0.6080  -42.1090 C.3   162  ASP162      0.1450
     63  CG       -34.2320   -1.2800  -42.9870 C.2   162  ASP162      0.3671
     64  OD1      -34.0300   -1.3370  -44.2190 O.co2 162  ASP162     -0.2456
     65  OD2      -35.2470   -1.7640  -42.4420 O.co2 162  ASP162     -0.2456
     66  N        -31.9100    1.6240  -43.8470 N.am  163  ILE163     -0.1977
     67  CA       -31.5640    2.0840  -45.1770 C.3   163  ILE163      0.1596
     68  C        -30.2610    1.3840  -45.5270 C.2   163  ILE163      0.2287
     69  O        -29.4160    1.1560  -44.6600 O.2   163  ILE163     -0.2864
     70  CB       -31.3680    3.6220  -45.2330 C.3   163  ILE163      0.0276
     71  CG1      -31.1880    4.0880  -46.6800 C.3   163  ILE163      0.0022
     72  CG2      -30.2100    4.0780  -44.3670 C.3   163  ILE163      0.0022
     73  CD1      -31.3060    5.5870  -46.8580 C.3   163  ILE163      0.0001
     74  N        -27.5280    0.7200  -42.3810 N.3   175  VAL175     -0.1231
     75  CA       -27.7520    1.0110  -40.9780 C.3   175  VAL175      0.1692
     76  C        -29.1980    0.6940  -40.6620 C.2   175  VAL175      0.2592
     77  O        -30.0530    0.6670  -41.5490 O.2   175  VAL175     -0.2718
     78  CB       -27.4770    2.4830  -40.6360 C.3   175  VAL175      0.0266
     79  CG1      -25.9880    2.7510  -40.6770 C.3   175  VAL175      0.0020
     80  CG2      -28.2130    3.4020  -41.5810 C.3   175  VAL175      0.0020
     81  N        -29.4670    0.4580  -39.3880 N.am  176  ARG176     -0.1966
     82  CA       -30.7730    0.0030  -38.9570 C.3   176  ARG176      0.1729
     83  C        -31.0430    0.5590  -37.5730 C.2   176  ARG176      0.2616
     84  O        -30.1510    0.6130  -36.7260 O.2   176  ARG176     -0.2715
     85  CB       -30.8080   -1.5280  -38.9570 C.3   176  ARG176      0.0348
     86  CG       -32.1330   -2.1390  -38.5310 C.3   176  ARG176      0.0492
     87  CD       -32.1530   -3.6420  -38.7870 C.3   176  ARG176      0.2205
     88  NE       -32.2020   -3.9900  -40.2040 N.pl3 176  ARG176     -0.0865
     89  CZ       -33.3080   -3.9780  -40.9390 C.cat 176  ARG176      0.5346
     90  NH1      -34.4680   -3.6390  -40.3920 N.pl3 176  ARG176      0.1354
     91  NH2      -33.2560   -4.3050  -42.2230 N.pl3 176  ARG176      0.1354
     92  N        -32.2810    0.9790  -37.3490 N.am  177  ILE177     -0.1977
     93  CA       -32.6770    1.4800  -36.0460 C.3   177  ILE177      0.1596
     94  C        -33.9720    0.8440  -35.5790 C.2   177  ILE177      0.2287
     95  O        -34.8470    0.5120  -36.3780 O.2   177  ILE177     -0.2864
     96  CB       -32.8060    3.0250  -36.0590 C.3   177  ILE177      0.0276
     97  CG1      -33.1150    3.5600  -34.6610 C.3   177  ILE177      0.0022
     98  CG2      -33.9330    3.4590  -36.9770 C.3   177  ILE177      0.0022
     99  CD1      -32.9110    5.0420  -34.5150 C.3   177  ILE177      0.0001
    100  N        -29.1250    0.6440  -32.3680 N.3   207  LEU207     -0.1245
    101  CA       -28.5250    1.2820  -33.5280 C.3   207  LEU207      0.1561
    102  C        -27.4570    0.3910  -34.1270 C.2   207  LEU207      0.2260
    103  O        -26.4700    0.0630  -33.4700 O.2   207  LEU207     -0.2867
    104  CB       -27.9100    2.6260  -33.1340 C.3   207  LEU207      0.0270
    105  CG       -28.8390    3.8030  -32.8610 C.3   207  LEU207      0.0019
    106  CD1      -28.0450    5.0070  -32.3860 C.3   207  LEU207      0.0001
    107  CD2      -29.5830    4.1280  -34.1270 C.3   207  LEU207      0.0001
@<TRIPOS>BOND
     1    26    27    1
     2    25    24   ar
     3    25    23   ar
     4    24    22   ar
     5    23    21   ar
     6    30    27    1
     7    30    31    1
     8    27    28    1
     9    29    28    2
    10    22    20   ar
    11    21    20   ar
    12    31    32    1
    13    31    33    1
    14    20    19    1
    15    17    16    1
    16    17    18    2
    17    16    19    1
    18    16    15    1
    19    12    14   ar
    20    12    10   ar
    21     9    10   ar
    22     9     7   ar
    23    14    13   ar
    24    10     8   ar
    25    34    35    1
    26     7     6   ar
    27    13    11   ar
    28     8     6   ar
    29     8    11   ar
    30    38    35    1
    31    37    36    2
    32    35    36    1
    33     6     5    1
    34    73    71    1
    35    71    70    1
    36    48    47   ar
    37    48    46   ar
    38    36    39   am
    39    47    45   ar
    40     3     2    1
    41     3     4    2
    42    46    44   ar
    43     5     2    1
    44    68    67    1
    45    68    69    2
    46    45    44   ar
    47     2     1    1
    48    70    67    1
    49    70    72    1
    50    39    40    1
    51    67    66    1
    52    44    43    1
    53    40    43    1
    54    40    41    1
    55    64    63   ar
    56    61    60    2
    57    66    60   am
    58    60    59    1
    59    41    49   am
    60    41    42    2
    61    49    50    1
    62    63    65   ar
    63    63    62    1
    64    74    75    1
    65    91    89    1
    66    52    51    2
    67    53    50    1
    68    62    59    1
    69    59    58    1
    70    50    51    1
    71    80    78    1
    72    58    56   am
    73    77    76    2
    74    75    76    1
    75    75    78    1
    76    89    90    1
    77    89    88    2
    78    79    78    1
    79    76    81   am
    80    56    55    1
    81    56    57    2
    82    88    87    1
    83    55    54    1
    84    81    82    1
    85    82    85    1
    86    82    83    1
    87    85    86    1
    88    87    86    1
    89    83    92   am
    90    83    84    2
    91    92    93    1
    92    98    96    1
    93    95    94    2
    94    96    93    1
    95    96    97    1
    96    93    94    1
    97    97    99    1
    98   102   101    1
    99   102   103    2
   100   107   105    1
   101   101   104    1
   102   101   100    1
   103   104   105    1
   104   105   106    1
