@<TRIPOS>MOLECULE
tmp/4b61A12.pdb
 112 110 0 0 0
SMALL
GASTEIGER

@<TRIPOS>ATOM
      1  N        -22.4450  -27.8000  -52.3600 N.3   276  TRP276     -0.1227
      2  CA       -21.7970  -27.8450  -51.0570 C.3   276  TRP276      0.1737
      3  C        -21.4400  -26.4450  -50.5890 C.2   276  TRP276      0.2595
      4  O        -20.9430  -25.6250  -51.3610 O.2   276  TRP276     -0.2718
      5  CB       -20.5440  -28.7140  -51.1130 C.3   276  TRP276      0.0564
      6  CG       -20.8560  -30.1560  -51.3510 C.ar  276  TRP276      0.0003
      7  CD1      -20.7830  -30.8280  -52.5350 C.ar  276  TRP276      0.0946
      8  CD2      -21.2940  -31.1090  -50.3740 C.ar  276  TRP276      0.0152
      9  NE1      -21.1490  -32.1400  -52.3570 N.ar  276  TRP276     -0.2442
     10  CE2      -21.4650  -32.3390  -51.0390 C.ar  276  TRP276      0.0810
     11  CE3      -21.5550  -31.0410  -49.0020 C.ar  276  TRP276      0.0012
     12  CZ2      -21.8880  -33.4920  -50.3790 C.ar  276  TRP276      0.0191
     13  CZ3      -21.9740  -32.1870  -48.3480 C.ar  276  TRP276      0.0001
     14  CH2      -22.1360  -33.3960  -49.0370 C.ar  276  TRP276      0.0015
     15  N        -21.6910  -26.1800  -49.3140 N.am  277  LYS277     -0.1980
     16  CA       -21.2480  -24.9470  -48.6820 C.3   277  LYS277      0.1596
     17  C        -20.6920  -25.2350  -47.2970 C.2   277  LYS277      0.2287
     18  O        -21.0320  -26.2450  -46.6820 O.2   277  LYS277     -0.2864
     19  CB       -22.4060  -23.9470  -48.5850 C.3   277  LYS277      0.0298
     20  CG       -23.1630  -23.7680  -49.8930 C.3   277  LYS277      0.0038
     21  CD       -24.2710  -22.7410  -49.8050 C.3   277  LYS277      0.0206
     22  CE       -24.8740  -22.5050  -51.1820 C.3   277  LYS277      0.1093
     23  NZ       -26.0780  -21.6350  -51.1320 N.3   277  LYS277     -0.1314
     24  N        -21.6730  -26.7540  -42.2710 N.3   336  GLY336     -0.1210
     25  CA       -21.6500  -27.2110  -43.6430 C.3   336  GLY336      0.1956
     26  C        -23.0730  -27.3840  -44.1220 C.2   336  GLY336      0.2613
     27  O        -23.9730  -27.6070  -43.3120 O.2   336  GLY336     -0.2717
     28  N        -23.2980  -27.2710  -45.4240 N.am  337  SER337     -0.1938
     29  CA       -24.6450  -27.4750  -45.9280 C.3   337  SER337      0.2055
     30  C        -24.6200  -28.1060  -47.3100 C.2   337  SER337      0.2643
     31  O        -23.6340  -28.0270  -48.0430 O.2   337  SER337     -0.2714
     32  CB       -25.4320  -26.1620  -45.9450 C.3   337  SER337      0.2130
     33  OG       -25.1040  -25.3790  -47.0810 O.3   337  SER337     -0.2179
     34  N        -25.7430  -28.7280  -47.6420 N.am  338  TRP338     -0.1973
     35  CA       -25.9200  -29.4770  -48.8740 C.3   338  TRP338      0.1640
     36  C        -27.3070  -29.2510  -49.4420 C.2   338  TRP338      0.2290
     37  O        -28.2750  -29.1320  -48.6940 O.2   338  TRP338     -0.2864
     38  CB       -25.7270  -30.9670  -48.5850 C.3   338  TRP338      0.0576
     39  CG       -25.9580  -31.8620  -49.7610 C.ar  338  TRP338      0.0006
     40  CD1      -25.0690  -32.1630  -50.7520 C.ar  338  TRP338      0.0946
     41  CD2      -27.1490  -32.6030  -50.0520 C.ar  338  TRP338      0.0152
     42  NE1      -25.6390  -33.0310  -51.6510 N.ar  338  TRP338     -0.2442
     43  CE2      -26.9150  -33.3190  -51.2430 C.ar  338  TRP338      0.0810
     44  CE3      -28.3930  -32.7250  -49.4250 C.ar  338  TRP338      0.0012
     45  CZ2      -27.8780  -34.1440  -51.8200 C.ar  338  TRP338      0.0191
     46  CZ3      -29.3480  -33.5450  -49.9980 C.ar  338  TRP338      0.0001
     47  CH2      -29.0860  -34.2440  -51.1840 C.ar  338  TRP338      0.0015
     48  N        -29.7810  -30.2950  -53.2250 N.3   340  LEU340     -0.1231
     49  CA       -29.8960  -30.9400  -54.5220 C.3   340  LEU340      0.1693
     50  C        -31.0790  -30.3060  -55.2320 C.2   340  LEU340      0.2591
     51  O        -32.2320  -30.5300  -54.8610 O.2   340  LEU340     -0.2718
     52  CB       -30.0840  -32.4490  -54.3520 C.3   340  LEU340      0.0284
     53  CG       -30.2770  -33.2950  -55.6120 C.3   340  LEU340      0.0019
     54  CD1      -29.0170  -33.2890  -56.4620 C.3   340  LEU340      0.0001
     55  CD2      -30.6620  -34.7170  -55.2390 C.3   340  LEU340      0.0001
     56  N        -30.7660  -29.5320  -56.2680 N.am  341  ARG341     -0.1980
     57  CA       -31.7420  -28.7860  -57.0560 C.3   341  ARG341      0.1597
     58  C        -32.7230  -28.0660  -56.1350 C.2   341  ARG341      0.2287
     59  O        -32.3120  -27.3690  -55.2080 O.2   341  ARG341     -0.2864
     60  CB       -32.5080  -29.7260  -57.9860 C.3   341  ARG341      0.0334
     61  CG       -31.6340  -30.7470  -58.6910 C.3   341  ARG341      0.0492
     62  CD       -32.4600  -31.6530  -59.5870 C.3   341  ARG341      0.2205
     63  NE       -31.7450  -32.8850  -59.9030 N.pl3 341  ARG341     -0.0865
     64  CZ       -31.8650  -34.0120  -59.2070 C.cat 341  ARG341      0.5346
     65  NH1      -32.6770  -34.0620  -58.1590 N.pl3 341  ARG341      0.1354
     66  NH2      -31.1810  -35.0910  -59.5610 N.pl3 341  ARG341      0.1354
     67  N        -34.1740  -31.0510  -52.3040 N.3   344  TYR344     -0.1241
     68  CA       -33.6770  -31.3440  -50.9670 C.3   344  TYR344      0.1605
     69  C        -32.6420  -30.3230  -50.5450 C.2   344  TYR344      0.2264
     70  O        -31.9570  -29.7180  -51.3710 O.2   344  TYR344     -0.2867
     71  CB       -32.9650  -32.6990  -50.9370 C.3   344  TYR344      0.0534
     72  CG       -33.8060  -33.8770  -51.3670 C.ar  344  TYR344     -0.0201
     73  CD1      -34.6100  -34.5460  -50.4530 C.ar  344  TYR344     -0.0009
     74  CD2      -33.7780  -34.3390  -52.6760 C.ar  344  TYR344     -0.0009
     75  CE1      -35.3770  -35.6290  -50.8330 C.ar  344  TYR344      0.0417
     76  CE2      -34.5430  -35.4230  -53.0660 C.ar  344  TYR344      0.0417
     77  CZ       -35.3400  -36.0640  -52.1400 C.ar  344  TYR344      0.1957
     78  OH       -36.1010  -37.1460  -52.5210 O.3   344  TYR344     -0.2866
     79  N        -29.9400  -29.6960  -46.7230 N.3   346  ALA346     -0.1231
     80  CA       -29.5480  -30.1600  -45.4050 C.3   346  ALA346      0.1694
     81  C        -28.4270  -29.2960  -44.8600 C.2   346  ALA346      0.2593
     82  O        -27.6040  -28.7740  -45.6130 O.2   346  ALA346     -0.2718
     83  CB       -29.0880  -31.6070  -45.4850 C.3   346  ALA346      0.0304
     84  N        -28.4030  -29.1490  -43.5410 N.am  347  SER347     -0.1938
     85  CA       -27.3850  -28.3460  -42.8880 C.3   347  SER347      0.2055
     86  C        -26.9590  -29.0230  -41.5980 C.2   347  SER347      0.2642
     87  O        -27.7750  -29.6090  -40.8870 O.2   347  SER347     -0.2714
     88  CB       -27.9450  -26.9630  -42.5550 C.3   347  SER347      0.2130
     89  OG       -28.3320  -26.2680  -43.7280 O.3   347  SER347     -0.2179
     90  N        -25.6690  -28.9320  -41.3050 N.am  348  LEU348     -0.1977
     91  CA       -25.1290  -29.4350  -40.0570 C.3   348  LEU348      0.1596
     92  C        -24.4170  -28.2630  -39.4130 C.2   348  LEU348      0.2287
     93  O        -23.5360  -27.6490  -40.0140 O.2   348  LEU348     -0.2864
     94  CB       -24.1180  -30.5410  -40.3500 C.3   348  LEU348      0.0297
     95  CG       -23.4880  -31.2550  -39.1530 C.3   348  LEU348      0.0022
     96  CD1      -24.5450  -32.0100  -38.3630 C.3   348  LEU348      0.0001
     97  CD2      -22.3860  -32.1960  -39.6190 C.3   348  LEU348      0.0001
     98  N        -29.0410  -30.4170  -36.8870 N.3   384  LEU384     -0.1245
     99  CA       -29.2360  -30.9490  -38.2210 C.3   384  LEU384      0.1561
    100  C        -30.6140  -30.5450  -38.7220 C.2   384  LEU384      0.2260
    101  O        -31.6130  -30.6990  -38.0200 O.2   384  LEU384     -0.2867
    102  CB       -29.0950  -32.4700  -38.1970 C.3   384  LEU384      0.0270
    103  CG       -29.4700  -33.2000  -39.4880 C.3   384  LEU384      0.0019
    104  CD1      -28.4850  -32.8640  -40.5970 C.3   384  LEU384      0.0001
    105  CD2      -29.5360  -34.7030  -39.2590 C.3   384  LEU384      0.0001
    106  N        -32.9710  -31.0950  -42.2360 N.3   386  VAL386     -0.1245
    107  CA       -33.0960  -31.8030  -43.5050 C.3   386  VAL386      0.1561
    108  C        -34.5040  -31.6400  -44.0520 C.2   386  VAL386      0.2260
    109  O        -35.4790  -31.8120  -43.3250 O.2   386  VAL386     -0.2867
    110  CB       -32.8290  -33.3220  -43.3530 C.3   386  VAL386      0.0252
    111  CG1      -32.8720  -34.0110  -44.7090 C.3   386  VAL386      0.0019
    112  CG2      -31.4990  -33.5860  -42.6610 C.3   386  VAL386      0.0019
@<TRIPOS>BOND
     1    63    62    1
     2    63    64    2
     3    62    61    1
     4    66    64    1
     5    64    65    1
     6    61    60    1
     7    60    57    1
     8    57    56    1
     9    57    58    1
    10    54    53    1
    11    56    50   am
    12    58    59    2
    13    53    55    1
    14    53    52    1
    15    50    51    2
    16    50    49    1
    17    49    52    1
    18    49    48    1
    19    76    74   ar
    20    76    77   ar
    21    74    72   ar
    22     7     9   ar
    23     7     6   ar
    24    78    77    1
    25     1     2    1
    26     9    10   ar
    27    67    68    1
    28    77    75   ar
    29    45    43   ar
    30    45    47   ar
    31    42    43   ar
    32    42    40   ar
    33    70    69    2
    34    72    71    1
    35    72    73   ar
    36     4     3    2
    37     6     5    1
    38     6     8   ar
    39    43    41   ar
    40    47    46   ar
    41    22    23    1
    42    22    21    1
    43     5     2    1
    44     2     3    1
    45    10    12   ar
    46    10     8   ar
    47    68    71    1
    48    68    69    1
    49    75    73   ar
    50    40    39   ar
    51     3    15   am
    52    12    14   ar
    53     8    11   ar
    54    41    39   ar
    55    41    44   ar
    56    46    44   ar
    57    20    21    1
    58    20    19    1
    59    39    38    1
    60    36    35    1
    61    36    37    2
    62    15    16    1
    63    14    13   ar
    64    11    13   ar
    65    35    38    1
    66    35    34    1
    67    16    19    1
    68    16    17    1
    69    31    30    2
    70    34    30   am
    71    30    29    1
    72    17    18    2
    73    33    32    1
    74    79    80    1
    75    32    29    1
    76    29    28    1
    77    82    81    2
    78    83    80    1
    79    28    26   am
    80    80    81    1
    81    81    84   am
    82   111   110    1
    83    26    25    1
    84    26    27    2
    85   108   107    1
    86   108   109    2
    87    89    88    1
    88    25    24    1
    89    84    85    1
    90   107   110    1
    91   107   106    1
    92   110   112    1
    93    85    88    1
    94    85    86    1
    95    86    90   am
    96    86    87    2
    97    90    91    1
    98   104   103    1
    99    94    91    1
   100    94    95    1
   101    91    92    1
   102    93    92    2
   103    97    95    1
   104   103   105    1
   105   103   102    1
   106    95    96    1
   107   100    99    1
   108   100   101    2
   109    99   102    1
   110    99    98    1
