@<TRIPOS>MOLECULE
tmp/4b61B01.pdb
 106 102 0 0 0
SMALL
GASTEIGER

@<TRIPOS>ATOM
      1  N        -28.2780   12.6930  -39.7760 N.3    38  PRO38      -0.2116
      2  CA       -29.2020   13.0920  -40.8350 C.3    38  PRO38       0.1372
      3  C        -29.0320   14.5710  -41.1320 C.2    38  PRO38       0.2244
      4  O        -28.8250   15.3710  -40.2180 O.2    38  PRO38      -0.2868
      5  CB       -30.5720   12.8090  -40.2210 C.3    38  PRO38       0.0268
      6  CG       -30.3640   13.0280  -38.7560 C.3    38  PRO38       0.0207
      7  CD       -28.9500   12.5650  -38.4700 C.3    38  PRO38       0.0892
      8  N        -29.5990   21.9930  -42.0490 N.3    51  PHE51      -0.1241
      9  CA       -29.7030   21.4450  -40.7150 C.3    51  PHE51       0.1605
     10  C        -28.9710   20.1190  -40.7510 C.2    51  PHE51       0.2264
     11  O        -29.1470   19.3280  -41.6760 O.2    51  PHE51      -0.2867
     12  CB       -31.1630   21.2200  -40.3220 C.3    51  PHE51       0.0534
     13  CG       -31.3360   20.5440  -38.9900 C.ar   51  PHE51      -0.0203
     14  CD1      -31.2770   21.2810  -37.8180 C.ar   51  PHE51      -0.0042
     15  CD2      -31.5580   19.1790  -38.9060 C.ar   51  PHE51      -0.0042
     16  CE1      -31.4330   20.6720  -36.5870 C.ar   51  PHE51      -0.0003
     17  CE2      -31.7150   18.5630  -37.6760 C.ar   51  PHE51      -0.0003
     18  CZ       -31.6530   19.3110  -36.5160 C.ar   51  PHE51      -0.0000
     19  N        -28.4150   17.0310  -37.7670 N.3    53  GLY53      -0.1210
     20  CA       -28.5590   16.5570  -36.4120 C.3    53  GLY53       0.1956
     21  C        -27.5670   15.4390  -36.2120 C.2    53  GLY53       0.2612
     22  O        -26.7590   15.1500  -37.0940 O.2    53  GLY53      -0.2717
     23  N        -27.6270   14.7990  -35.0550 N.am   54  GLN54      -0.1965
     24  CA       -26.6310   13.8050  -34.7150 C.3    54  GLN54       0.1733
     25  C        -27.1740   12.8710  -33.6560 C.2    54  GLN54       0.2616
     26  O        -27.7440   13.3110  -32.6590 O.2    54  GLN54      -0.2715
     27  CB       -25.3740   14.4960  -34.1910 C.3    54  GLN54       0.0408
     28  CG       -24.2530   13.5400  -33.8230 C.3    54  GLN54       0.0908
     29  CD       -23.0220   14.2570  -33.3120 C.2    54  GLN54       0.2608
     30  OE1      -23.0810   15.4310  -32.9440 O.2    54  GLN54      -0.2717
     31  NE2      -21.8960   13.5550  -33.2880 N.am   54  GLN54      -0.0878
     32  N        -27.0000   11.5770  -33.8800 N.am   55  ALA55      -0.1977
     33  CA       -27.3160   10.6050  -32.8550 C.3    55  ALA55       0.1597
     34  C        -26.1090    9.7080  -32.6890 C.2    55  ALA55       0.2287
     35  O        -25.5510    9.2030  -33.6640 O.2    55  ALA55      -0.2864
     36  CB       -28.5220    9.7900  -33.2510 C.3    55  ALA55       0.0319
     37  N        -28.2980   12.7420  -28.3530 N.3    78  LEU78      -0.1231
     38  CA       -28.6900   13.3430  -29.6170 C.3    78  LEU78       0.1693
     39  C        -28.1310   14.7500  -29.6100 C.2    78  LEU78       0.2592
     40  O        -27.9400   15.3440  -28.5480 O.2    78  LEU78      -0.2718
     41  CB       -30.2120   13.4010  -29.7470 C.3    78  LEU78       0.0284
     42  CG       -31.0210   12.1170  -29.6060 C.3    78  LEU78       0.0019
     43  CD1      -32.5060   12.4240  -29.6060 C.3    78  LEU78       0.0001
     44  CD2      -30.6820   11.2320  -30.7720 C.3    78  LEU78       0.0001
     45  N        -27.8720   15.2860  -30.7960 N.am   79  ALA79      -0.1966
     46  CA       -27.3950   16.6550  -30.8990 C.3    79  ALA79       0.1728
     47  C        -27.7920   17.3500  -32.1890 C.2    79  ALA79       0.2616
     48  O        -28.0830   16.7050  -33.1970 O.2    79  ALA79      -0.2715
     49  CB       -25.8840   16.6960  -30.7310 C.3    79  ALA79       0.0334
     50  N        -27.7950   18.6770  -32.1480 N.am   80  ALA80      -0.1977
     51  CA       -27.9410   19.4630  -33.3570 C.3    80  ALA80       0.1597
     52  C        -26.5590   20.0200  -33.6590 C.2    80  ALA80       0.2287
     53  O        -26.0280   20.8240  -32.8930 O.2    80  ALA80      -0.2864
     54  CB       -28.9460   20.5780  -33.1510 C.3    80  ALA80       0.0319
     55  N        -25.4640   27.1420  -26.1150 N.3   140  SER140     -0.1217
     56  CA       -25.7950   25.8000  -25.6570 C.3   140  SER140      0.1889
     57  C        -24.8890   24.8030  -26.3660 C.2   140  SER140      0.2288
     58  O        -24.2580   25.1310  -27.3710 O.2   140  SER140     -0.2866
     59  CB       -27.2520   25.4940  -26.0010 C.3   140  SER140      0.2089
     60  OG       -27.5720   24.1450  -25.7100 O.3   140  SER140     -0.2183
     61  N        -26.4370   22.1250  -27.3880 N.3   142  TYR142     -0.1227
     62  CA       -27.4810   21.4720  -28.1730 C.3   142  TYR142      0.1736
     63  C        -27.3360   19.9530  -28.1360 C.2   142  TYR142      0.2595
     64  O        -27.4300   19.2800  -29.1600 O.2   142  TYR142     -0.2718
     65  CB       -27.5080   21.9990  -29.6110 C.3   142  TYR142      0.0548
     66  CG       -27.5440   23.5080  -29.6760 C.ar  142  TYR142     -0.0200
     67  CD1      -28.7410   24.1990  -29.5410 C.ar  142  TYR142     -0.0009
     68  CD2      -26.3800   24.2420  -29.8560 C.ar  142  TYR142     -0.0009
     69  CE1      -28.7780   25.5800  -29.5930 C.ar  142  TYR142      0.0417
     70  CE2      -26.4060   25.6230  -29.9070 C.ar  142  TYR142      0.0417
     71  CZ       -27.6080   26.2860  -29.7750 C.ar  142  TYR142      0.1957
     72  OH       -27.6400   27.6610  -29.8220 O.3   142  TYR142     -0.2866
     73  N        -27.1030   19.4310  -26.9360 N.am  143  ARG143     -0.1966
     74  CA       -26.8990   18.0050  -26.7300 C.3   143  ARG143      0.1729
     75  C        -27.8050   17.5210  -25.6080 C.2   143  ARG143      0.2616
     76  O        -28.0280   18.2300  -24.6280 O.2   143  ARG143     -0.2715
     77  CB       -25.4390   17.7390  -26.3610 C.3   143  ARG143      0.0348
     78  CG       -24.5430   17.3990  -27.5370 C.3   143  ARG143      0.0492
     79  CD       -23.0940   17.2530  -27.1050 C.3   143  ARG143      0.2205
     80  NE       -22.8820   16.0620  -26.2890 N.pl3 143  ARG143     -0.0865
     81  CZ       -21.7110   15.4470  -26.1590 C.cat 143  ARG143      0.5346
     82  NH1      -20.6440   15.9100  -26.7940 N.pl3 143  ARG143      0.1354
     83  NH2      -21.6070   14.3700  -25.3930 N.pl3 143  ARG143      0.1354
     84  N        -28.3280   16.3090  -25.7590 N.am  144  THR144     -0.1951
     85  CA       -29.2280   15.7320  -24.7670 C.3   144  THR144      0.1897
     86  C        -28.5310   15.3640  -23.4600 C.2   144  THR144      0.2313
     87  O        -29.1770   15.2640  -22.4180 O.2   144  THR144     -0.2863
     88  CB       -29.9760   14.5050  -25.3310 C.3   144  THR144      0.1794
     89  OG1      -29.0300   13.5430  -25.8110 O.3   144  THR144     -0.2208
     90  CG2      -30.8980   14.9200  -26.4670 C.3   144  THR144      0.0378
     91  N        -25.6600   17.0190  -22.2260 N.3   146  LEU146     -0.1231
     92  CA       -24.9890   18.1430  -21.5910 C.3   146  LEU146      0.1693
     93  C        -25.9870   19.2630  -21.3460 C.2   146  LEU146      0.2592
     94  O        -26.5710   19.8030  -22.2860 O.2   146  LEU146     -0.2718
     95  CB       -23.8470   18.6510  -22.4730 C.3   146  LEU146      0.0284
     96  CG       -22.7510   17.6380  -22.8070 C.3   146  LEU146      0.0019
     97  CD1      -21.6990   18.2630  -23.7100 C.3   146  LEU146      0.0001
     98  CD2      -22.1180   17.0980  -21.5330 C.3   146  LEU146      0.0001
     99  N        -26.1830   19.6110  -20.0800 N.am  147  ASP147     -0.1974
    100  CA       -27.2230   20.5620  -19.7210 C.3   147  ASP147      0.1709
    101  C        -26.6550   21.9730  -19.6730 C.2   147  ASP147      0.2293
    102  O        -27.3950   22.9540  -19.7410 O.2   147  ASP147     -0.2864
    103  CB       -27.8350   20.2160  -18.3620 C.3   147  ASP147      0.1436
    104  CG       -28.1800   18.7450  -18.2360 C.2   147  ASP147      0.3671
    105  OD1      -28.8610   18.2130  -19.1380 O.co2 147  ASP147     -0.2456
    106  OD2      -27.7710   18.1190  -17.2350 O.co2 147  ASP147     -0.2456
@<TRIPOS>BOND
     1     8     9    1
     2    11    10    2
     3     3     2    1
     4     3     4    2
     5     2     5    1
     6     2     1    1
     7    10     9    1
     8     9    12    1
     9    12    13    1
    10     5     6    1
    11     1     7    1
    12    13    15   ar
    13    13    14   ar
    14    15    17   ar
    15     6     7    1
    16    14    16   ar
    17    19    20    1
    18    17    18   ar
    19    22    21    2
    20    16    18   ar
    21    20    21    1
    22    21    23   am
    23    23    24    1
    24    24    27    1
    25    24    25    1
    26    27    28    1
    27    32    25   am
    28    32    33    1
    29    28    29    1
    30    35    34    2
    31    52    51    1
    32    52    53    2
    33    25    26    2
    34    51    54    1
    35    51    50    1
    36    29    31   am
    37    29    30    2
    38    36    33    1
    39    48    47    2
    40    33    34    1
    41    47    50   am
    42    47    46    1
    43    46    45    1
    44    46    49    1
    45    45    39   am
    46    44    42    1
    47    70    68   ar
    48    70    71   ar
    49    68    66   ar
    50    72    71    1
    51    71    69   ar
    52    41    38    1
    53    41    42    1
    54    66    65    1
    55    66    67   ar
    56    38    39    1
    57    38    37    1
    58    65    62    1
    59    39    40    2
    60    43    42    1
    61    69    67   ar
    62    64    63    2
    63    62    63    1
    64    62    61    1
    65    63    73   am
    66    78    79    1
    67    78    77    1
    68    58    57    2
    69    79    80    1
    70    73    74    1
    71    82    81    1
    72    74    77    1
    73    74    75    1
    74    90    88    1
    75    57    56    1
    76    80    81    2
    77    81    83    1
    78    55    56    1
    79    59    60    1
    80    59    56    1
    81    89    88    1
    82    84    75   am
    83    84    85    1
    84    75    76    2
    85    88    85    1
    86    85    86    1
    87    97    96    1
    88    86    87    2
    89    96    95    1
    90    96    98    1
    91    95    92    1
    92    94    93    2
    93    91    92    1
    94    92    93    1
    95    93    99   am
    96    99   100    1
    97   102   101    2
    98   100   101    1
    99   100   103    1
   100   105   104   ar
   101   103   104    1
   102   104   106   ar
