@<TRIPOS>MOLECULE
tmp/4b64A00.pdb
 96 89 0 0 0
SMALL
GASTEIGER

@<TRIPOS>ATOM
      1  N        -29.0180  -33.8350   11.8970 N.3    74  GLN74      -0.1231
      2  CA       -28.4810  -34.9220   11.0940 C.3    74  GLN74       0.1698
      3  C        -28.3690  -36.2000   11.9170 C.2    74  GLN74       0.2592
      4  O        -27.6500  -37.1220   11.5470 O.2    74  GLN74      -0.2718
      5  CB       -27.1260  -34.5400   10.5040 C.3    74  GLN74       0.0381
      6  CG       -27.1700  -34.1780    9.0280 C.3    74  GLN74       0.0905
      7  CD       -25.7780  -34.0320    8.4310 C.2    74  GLN74       0.2608
      8  OE1      -24.9670  -33.2220    8.8950 O.2    74  GLN74      -0.2717
      9  NE2      -25.4920  -34.8220    7.3970 N.am   74  GLN74      -0.0878
     10  N        -29.0930  -36.2450   13.0290 N.am   75  ILE75      -0.1966
     11  CA       -29.0160  -37.3620   13.9600 C.3    75  ILE75       0.1727
     12  C        -30.4050  -37.6780   14.5300 C.2    75  ILE75       0.2616
     13  O        -31.2050  -36.7650   14.7850 O.2    75  ILE75      -0.2715
     14  CB       -27.9590  -37.0840   15.0700 C.3    75  ILE75       0.0290
     15  CG1      -27.5240  -38.3800   15.7670 C.3    75  ILE75       0.0022
     16  CG2      -28.4230  -36.0040   16.0500 C.3    75  ILE75       0.0023
     17  CD1      -26.2670  -38.2200   16.6000 C.3    75  ILE75       0.0001
     18  N        -30.6970  -38.9690   14.6920 N.am   76  SER76      -0.1950
     19  CA       -31.9730  -39.4120   15.2490 C.3    76  SER76       0.1924
     20  C        -32.2050  -38.7990   16.6280 C.2    76  SER76       0.2314
     21  O        -31.2700  -38.6870   17.4250 O.2    76  SER76      -0.2863
     22  CB       -32.0260  -40.9370   15.3320 C.3    76  SER76       0.2116
     23  OG       -33.1920  -41.3670   16.0110 O.3    76  SER76      -0.2180
     24  N        -30.9430  -40.2630   19.9150 N.3    79  LYS79      -0.1245
     25  CA       -29.6040  -39.9130   20.3820 C.3    79  LYS79       0.1561
     26  C        -29.5830  -38.5180   21.0040 C.2    79  LYS79       0.2260
     27  O        -28.6860  -37.7150   20.7290 O.2    79  LYS79      -0.2867
     28  CB       -28.5860  -40.0180   19.2440 C.3    79  LYS79       0.0271
     29  CG       -28.6240  -41.3570   18.5260 C.3    79  LYS79       0.0035
     30  CD       -27.3140  -41.6340   17.8210 C.3    79  LYS79       0.0206
     31  CE       -27.3800  -42.9160   17.0100 C.3    79  LYS79       0.1093
     32  NZ       -26.0440  -43.1790   16.4000 N.3    79  LYS79      -0.1314
     33  N        -22.4790  -40.4150    4.4120 N.3   259  ASP259     -0.1225
     34  CA       -22.7870  -41.8220    4.5520 C.3   259  ASP259      0.1805
     35  C        -23.4930  -42.0390    5.8860 C.2   259  ASP259      0.2597
     36  O        -22.8840  -41.9070    6.9510 O.2   259  ASP259     -0.2718
     37  CB       -21.4960  -42.6500    4.4870 C.3   259  ASP259      0.1424
     38  CG       -21.7540  -44.1500    4.4350 C.2   259  ASP259      0.3668
     39  OD1      -22.8660  -44.5980    4.8030 O.co2 259  ASP259     -0.2456
     40  OD2      -20.8300  -44.8850    4.0230 O.co2 259  ASP259     -0.2456
     41  N        -24.7790  -42.3630    5.8240 N.am  260  ASP260     -0.1974
     42  CA       -25.5350  -42.6950    7.0260 C.3   260  ASP260      0.1709
     43  C        -26.1090  -44.1160    6.9580 C.2   260  ASP260      0.2293
     44  O        -26.9870  -44.4780    7.7490 O.2   260  ASP260     -0.2864
     45  CB       -26.6360  -41.6560    7.2800 C.3   260  ASP260      0.1436
     46  CG       -27.7430  -41.7130    6.2490 C.2   260  ASP260      0.3671
     47  OD1      -27.4580  -42.0270    5.0690 O.co2 260  ASP260     -0.2456
     48  OD2      -28.9050  -41.4490    6.6210 O.co2 260  ASP260     -0.2456
     49  N        -22.6340  -46.7300    9.9160 N.3   265  ASN265     -0.1240
     50  CA       -23.1180  -45.8770   11.0060 C.3   265  ASN265      0.1653
     51  C        -22.9670  -46.4390   12.4260 C.2   265  ASN265      0.2266
     52  O        -23.1120  -45.7040   13.4090 O.2   265  ASN265     -0.2867
     53  CB       -24.5800  -45.4990   10.7680 C.3   265  ASN265      0.1155
     54  CG       -24.9310  -44.1610   11.3690 C.2   265  ASN265      0.2627
     55  OD1      -24.3090  -43.1420   11.0480 O.2   265  ASN265     -0.2716
     56  ND2      -25.9230  -44.1490   12.2520 N.am  265  ASN265     -0.0877
     57  N        -20.7280  -45.1070   15.3360 N.3   268  PHE268     -0.1241
     58  CA       -21.2570  -44.1190   16.2700 C.3   268  PHE268      0.1605
     59  C        -21.9210  -44.7030   17.5230 C.2   268  PHE268      0.2264
     60  O        -22.2540  -43.9600   18.4450 O.2   268  PHE268     -0.2867
     61  CB       -22.2090  -43.1550   15.5460 C.3   268  PHE268      0.0534
     62  CG       -21.5460  -42.3680   14.4510 C.ar  268  PHE268     -0.0203
     63  CD1      -20.6870  -41.3110   14.7560 C.ar  268  PHE268     -0.0042
     64  CD2      -21.7580  -42.6940   13.1140 C.ar  268  PHE268     -0.0042
     65  CE1      -20.0630  -40.5900   13.7490 C.ar  268  PHE268     -0.0003
     66  CE2      -21.1390  -41.9720   12.1020 C.ar  268  PHE268     -0.0003
     67  CZ       -20.2910  -40.9170   12.4210 C.ar  268  PHE268     -0.0000
     68  N        -18.7410  -40.1030    6.7090 N.3   294  THR294     -0.1203
     69  CA       -19.8470  -40.0620    7.6710 C.3   294  THR294      0.1994
     70  C        -20.0620  -38.6660    8.2590 C.2   294  THR294      0.2617
     71  O        -21.1620  -38.3430    8.7200 O.2   294  THR294     -0.2717
     72  CB       -19.6520  -41.0510    8.8410 C.3   294  THR294      0.1784
     73  OG1      -18.3910  -40.8110    9.4820 O.3   294  THR294     -0.2211
     74  CG2      -19.7140  -42.4820    8.3550 C.3   294  THR294      0.0376
     75  N        -19.0180  -37.8410    8.2380 N.am  295  ASN295     -0.1974
     76  CA       -19.0510  -36.5680    8.9480 C.3   295  ASN295      0.1688
     77  C        -18.3920  -35.3900    8.2340 C.2   295  ASN295      0.2292
     78  O        -18.9200  -34.2800    8.2670 O.2   295  ASN295     -0.2864
     79  CB       -18.4540  -36.7290   10.3530 C.3   295  ASN295      0.1181
     80  CG       -18.6880  -35.5130   11.2300 C.2   295  ASN295      0.2629
     81  OD1      -19.8300  -35.1020   11.4530 O.2   295  ASN295     -0.2716
     82  ND2      -17.6050  -34.9230   11.7280 N.am  295  ASN295     -0.0877
     83  N        -19.5340  -35.0310   18.3360 N.3   430  LEU430     -0.1245
     84  CA       -20.9440  -35.0100   17.9520 C.3   430  LEU430      0.1561
     85  C        -21.8910  -35.2300   19.1400 C.2   430  LEU430      0.2260
     86  O        -21.4590  -35.2780   20.2900 O.2   430  LEU430     -0.2867
     87  CB       -21.2080  -36.0470   16.8470 C.3   430  LEU430      0.0270
     88  CG       -20.2610  -36.1290   15.6390 C.3   430  LEU430      0.0019
     89  CD1      -20.7620  -37.1780   14.6580 C.3   430  LEU430      0.0001
     90  CD2      -20.0840  -34.7860   14.9350 C.3   430  LEU430      0.0001
     91  N        -23.7690  -37.9480   19.2540 N.3   432  SER432     -0.1217
     92  CA       -24.0050  -39.4020   19.1900 C.3   432  SER432      0.1889
     93  C        -23.9290  -40.1660   20.5110 C.2   432  SER432      0.2288
     94  O        -24.7940  -41.0020   20.7960 O.2   432  SER432     -0.2866
     95  CB       -23.0450  -40.0510   18.1840 C.3   432  SER432      0.2089
     96  OG       -23.0010  -39.3140   16.9790 O.3   432  SER432     -0.2183
@<TRIPOS>BOND
     1    40    38   ar
     2    33    34    1
     3    38    37    1
     4    38    39   ar
     5    37    34    1
     6    34    35    1
     7    47    46   ar
     8    41    35   am
     9    41    42    1
    10    35    36    2
    11    46    48   ar
    12    46    45    1
    13    68    69    1
    14    43    42    1
    15    43    44    2
    16    42    45    1
    17     9     7   am
    18    69    70    1
    19    69    72    1
    20    77    78    2
    21    77    76    1
    22    75    70   am
    23    75    76    1
    24    70    71    2
    25    74    72    1
    26     7     8    2
    27     7     6    1
    28    72    73    1
    29    76    79    1
    30     6     5    1
    31    49    50    1
    32    79    80    1
    33     5     2    1
    34    53    50    1
    35    53    54    1
    36    50    51    1
    37    55    54    2
    38     2     1    1
    39     2     3    1
    40    80    81    2
    41    80    82   am
    42    54    56   am
    43     4     3    2
    44     3    10   am
    45    66    67   ar
    46    66    64   ar
    47    67    65   ar
    48    51    52    2
    49    10    11    1
    50    64    62   ar
    51    65    63   ar
    52    11    12    1
    53    11    14    1
    54    62    63   ar
    55    62    61    1
    56    12    18   am
    57    12    13    2
    58    89    88    1
    59    18    19    1
    60    90    88    1
    61    14    15    1
    62    14    16    1
    63    19    22    1
    64    19    20    1
    65    22    23    1
    66    57    58    1
    67    61    58    1
    68    88    87    1
    69    15    17    1
    70    58    59    1
    71    32    31    1
    72    20    21    2
    73    87    84    1
    74    96    95    1
    75    31    30    1
    76    59    60    2
    77    30    29    1
    78    84    83    1
    79    84    85    1
    80    95    92    1
    81    29    28    1
    82    85    86    2
    83    92    91    1
    84    92    93    1
    85    28    25    1
    86    24    25    1
    87    25    26    1
    88    93    94    2
    89    27    26    2
