@<TRIPOS>MOLECULE
tmp/4b66A00.pdb
 101 92 0 0 0
SMALL
GASTEIGER

@<TRIPOS>ATOM
      1  N        -29.2150  -33.8060   12.0760 N.3    68  GLN68      -0.1231
      2  CA       -28.7530  -34.9380   11.2560 C.3    68  GLN68       0.1698
      3  C        -28.5860  -36.2670   12.0010 C.2    68  GLN68       0.2592
      4  O        -27.8940  -37.1740   11.5330 O.2    68  GLN68      -0.2718
      5  CB       -27.4480  -34.5720   10.5600 C.3    68  GLN68       0.0381
      6  CG       -27.5910  -33.5100    9.4880 C.3    68  GLN68       0.0905
      7  CD       -26.2470  -33.1830    8.8860 C.2    68  GLN68       0.2608
      8  OE1      -25.3880  -32.6150    9.5600 O.2    68  GLN68      -0.2717
      9  NE2      -26.0380  -33.5730    7.6210 N.am   68  GLN68      -0.0878
     10  N        -29.2340  -36.3780   13.1470 N.am   69  ILE69      -0.1966
     11  CA       -29.0920  -37.5320   14.0020 C.3    69  ILE69       0.1727
     12  C        -30.4860  -37.8400   14.5390 C.2    69  ILE69       0.2616
     13  O        -31.3280  -36.9330   14.6530 O.2    69  ILE69      -0.2715
     14  CB       -28.0420  -37.2540   15.1160 C.3    69  ILE69       0.0290
     15  CG1      -27.6990  -38.5090   15.9130 C.3    69  ILE69       0.0022
     16  CG2      -28.4600  -36.1150   16.0380 C.3    69  ILE69       0.0023
     17  CD1      -26.6520  -38.2760   16.9840 C.3    69  ILE69       0.0001
     18  N        -30.7550  -39.1130   14.8250 N.am   70  SER70      -0.1950
     19  CA       -32.0730  -39.5300   15.3150 C.3    70  SER70       0.1924
     20  C        -32.3910  -38.8470   16.6340 C.2    70  SER70       0.2314
     21  O        -31.5000  -38.6460   17.4510 O.2    70  SER70      -0.2863
     22  CB       -32.1150  -41.0440   15.4970 C.3    70  SER70       0.2116
     23  OG       -33.3770  -41.4690   15.9720 O.3    70  SER70      -0.2180
     24  N        -31.1010  -40.4650   19.8280 N.3    73  LYS73      -0.1245
     25  CA       -29.7860  -40.1030   20.3400 C.3    73  LYS73       0.1561
     26  C        -29.8240  -38.6990   20.9860 C.2    73  LYS73       0.2260
     27  O        -28.9180  -37.8800   20.7780 O.2    73  LYS73      -0.2867
     28  CB       -28.7380  -40.2090   19.2240 C.3    73  LYS73       0.0271
     29  CG       -28.5290  -41.6320   18.7180 C.3    73  LYS73       0.0035
     30  CD       -28.0930  -41.6760   17.2650 C.3    73  LYS73       0.0206
     31  CE       -27.4620  -43.0080   16.9080 C.3    73  LYS73       0.1093
     32  NZ       -26.0450  -43.0910   17.3780 N.3    73  LYS73      -0.1314
     33  N        -23.8710  -37.5540    2.4550 N.3   252  SER252     -0.1217
     34  CA       -23.4620  -38.0010    3.7780 C.3   252  SER252      0.1889
     35  C        -23.8830  -39.4580    3.9490 C.2   252  SER252      0.2288
     36  O        -24.9680  -39.8360    3.4940 O.2   252  SER252     -0.2866
     37  CB       -24.1170  -37.1250    4.8330 C.3   252  SER252      0.2089
     38  OG       -24.0250  -37.7510    6.0970 O.3   252  SER252     -0.2183
     39  N        -25.2710  -42.4500    5.9800 N.3   254  ASP254     -0.1239
     40  CA       -26.0380  -42.8540    7.1760 C.3   254  ASP254      0.1674
     41  C        -26.5120  -44.3120    7.1340 C.2   254  ASP254      0.2266
     42  O        -27.2500  -44.7630    8.0100 O.2   254  ASP254     -0.2867
     43  CB       -27.2210  -41.9100    7.3970 C.3   254  ASP254      0.1410
     44  CG       -27.9450  -41.5810    6.1090 C.2   254  ASP254      0.3668
     45  OD1      -27.8460  -42.3830    5.1490 O.co2 254  ASP254     -0.2456
     46  OD2      -28.6010  -40.5190    6.0480 O.co2 254  ASP254     -0.2456
     47  N        -23.1010  -46.7760    9.9870 N.3   259  ASN259     -0.1240
     48  CA       -23.5400  -45.9320   11.0900 C.3   259  ASN259      0.1653
     49  C        -23.3490  -46.5280   12.4920 C.2   259  ASN259      0.2266
     50  O        -23.6670  -45.8770   13.4910 O.2   259  ASN259     -0.2867
     51  CB       -25.0120  -45.5740   10.8790 C.3   259  ASN259      0.1155
     52  CG       -25.3340  -44.1530   11.2930 C.2   259  ASN259      0.2627
     53  OD1      -24.6960  -43.1960   10.8310 O.2   259  ASN259     -0.2716
     54  ND2      -26.3410  -44.0000   12.1560 N.am  259  ASN259     -0.0877
     55  N        -20.8910  -45.2620   15.3420 N.3   262  PHE262     -0.1241
     56  CA       -21.4920  -44.2950   16.2550 C.3   262  PHE262      0.1605
     57  C        -22.1620  -44.9270   17.4750 C.2   262  PHE262      0.2264
     58  O        -22.6500  -44.2040   18.3400 O.2   262  PHE262     -0.2867
     59  CB       -22.5040  -43.4120   15.5120 C.3   262  PHE262      0.0534
     60  CG       -21.8940  -42.5790   14.4210 C.ar  262  PHE262     -0.0203
     61  CD1      -21.0920  -41.4900   14.7260 C.ar  262  PHE262     -0.0042
     62  CD2      -22.1220  -42.8850   13.0870 C.ar  262  PHE262     -0.0042
     63  CE1      -20.5220  -40.7290   13.7220 C.ar  262  PHE262     -0.0003
     64  CE2      -21.5560  -42.1230   12.0770 C.ar  262  PHE262     -0.0003
     65  CZ       -20.7530  -41.0440   12.3970 C.ar  262  PHE262     -0.0000
     66  N        -19.0920  -40.1720    6.9550 N.3   288  THR288     -0.1203
     67  CA       -20.1420  -40.1570    7.9610 C.3   288  THR288      0.1994
     68  C        -20.3250  -38.7530    8.5360 C.2   288  THR288      0.2617
     69  O        -21.3500  -38.4660    9.1610 O.2   288  THR288     -0.2717
     70  CB       -19.8590  -41.1350    9.1150 C.3   288  THR288      0.1784
     71  OG1      -18.6330  -40.7800    9.7630 O.3   288  THR288     -0.2211
     72  CG2      -19.7820  -42.5620    8.6130 C.3   288  THR288      0.0376
     73  N        -19.3390  -37.8770    8.3250 N.am  289  ASN289     -0.1974
     74  CA       -19.3690  -36.5580    8.9460 C.3   289  ASN289      0.1688
     75  C        -18.7850  -35.3860    8.1630 C.2   289  ASN289      0.2292
     76  O        -19.4170  -34.3290    8.0810 O.2   289  ASN289     -0.2864
     77  CB       -18.7290  -36.6060   10.3350 C.3   289  ASN289      0.1181
     78  CG       -19.0920  -35.4040   11.1820 C.2   289  ASN289      0.2629
     79  OD1      -18.2970  -34.9310   11.9920 O.2   289  ASN289     -0.2716
     80  ND2      -20.2960  -34.9000   10.9910 N.am  289  ASN289     -0.0877
     81  N        -19.3060  -33.5300    3.5890 N.3   292  VAL292     -0.1245
     82  CA       -20.4400  -34.2340    3.0120 C.3   292  VAL292      0.1561
     83  C        -21.7290  -33.4770    3.2980 C.2   292  VAL292      0.2260
     84  O        -21.8700  -32.8410    4.3420 O.2   292  VAL292     -0.2867
     85  CB       -20.5520  -35.6740    3.5530 C.3   292  VAL292      0.0252
     86  CG1      -19.4340  -36.5450    3.0020 C.3   292  VAL292      0.0019
     87  CG2      -20.5650  -35.6940    5.0770 C.3   292  VAL292      0.0019
     88  N        -19.6500  -35.2330   18.3130 N.3   426  LEU426     -0.1245
     89  CA       -21.0770  -35.1530   18.0070 C.3   426  LEU426      0.1561
     90  C        -22.0170  -35.3790   19.1980 C.2   426  LEU426      0.2260
     91  O        -21.5690  -35.4850   20.3440 O.2   426  LEU426     -0.2867
     92  CB       -21.4300  -36.1450   16.8970 C.3   426  LEU426      0.0270
     93  CG       -20.4260  -36.3920   15.7740 C.3   426  LEU426      0.0019
     94  CD1      -20.9820  -37.4950   14.8890 C.3   426  LEU426      0.0001
     95  CD2      -20.1140  -35.1360   14.9660 C.3   426  LEU426      0.0001
     96  N        -23.9150  -38.1210   19.3740 N.3   428  SER428     -0.1217
     97  CA       -24.1270  -39.5740   19.4060 C.3   428  SER428      0.1889
     98  C        -24.1300  -40.2790   20.7890 C.2   428  SER428      0.2288
     99  O        -25.0790  -41.0030   21.1250 O.2   428  SER428     -0.2866
    100  CB       -23.1270  -40.2560   18.4610 C.3   428  SER428      0.2089
    101  OG       -23.0950  -39.6050   17.2030 O.3   428  SER428     -0.2183
@<TRIPOS>BOND
     1    33    34    1
     2    86    85    1
     3    82    83    1
     4    82    85    1
     5    82    81    1
     6    83    84    2
     7    36    35    2
     8    85    87    1
     9    34    35    1
    10    34    37    1
    11    37    38    1
    12    45    44   ar
    13    39    40    1
    14    46    44   ar
    15    44    43    1
    16    66    67    1
    17    41    40    1
    18    41    42    2
    19    40    43    1
    20     9     7   am
    21    67    68    1
    22    67    70    1
    23    76    75    2
    24    75    74    1
    25    73    68   am
    26    73    74    1
    27    68    69    2
    28    72    70    1
    29     7     6    1
    30     7     8    2
    31    74    77    1
    32    70    71    1
    33     6     5    1
    34    47    48    1
    35    77    78    1
    36     5     2    1
    37    53    52    2
    38    51    48    1
    39    51    52    1
    40    80    78   am
    41    48    49    1
    42    78    79    2
    43     2     3    1
    44     2     1    1
    45    52    54   am
    46     4     3    2
    47     3    10   am
    48    64    65   ar
    49    64    62   ar
    50    65    63   ar
    51    49    50    2
    52    62    60   ar
    53    10    11    1
    54    63    61   ar
    55    11    12    1
    56    11    14    1
    57    60    61   ar
    58    60    59    1
    59    12    13    2
    60    12    18   am
    61    18    19    1
    62    94    93    1
    63    95    93    1
    64    14    15    1
    65    14    16    1
    66    19    22    1
    67    19    20    1
    68    55    56    1
    69    22    23    1
    70    59    56    1
    71    93    92    1
    72    15    17    1
    73    56    57    1
    74    20    21    2
    75    92    89    1
    76    31    30    1
    77    31    32    1
    78   101   100    1
    79    30    29    1
    80    57    58    2
    81    89    88    1
    82    89    90    1
    83   100    97    1
    84    29    28    1
    85    90    91    2
    86    28    25    1
    87    96    97    1
    88    97    98    1
    89    24    25    1
    90    25    26    1
    91    27    26    2
    92    98    99    2
