@<TRIPOS>MOLECULE
tmp/4b67A03.pdb
 77 73 0 0 0
SMALL
GASTEIGER

@<TRIPOS>ATOM
      1  N        -12.1480  -22.2530   11.6060 N.3   187  LYS187     -0.1245
      2  CA       -10.9140  -22.5240   10.8730 C.3   187  LYS187      0.1561
      3  C        -10.9130  -21.7290    9.5810 C.2   187  LYS187      0.2260
      4  O        -11.7290  -21.9780    8.6930 O.2   187  LYS187     -0.2867
      5  CB       -10.7700  -24.0230   10.5710 C.3   187  LYS187      0.0271
      6  CG        -9.4040  -24.4660   10.0150 C.3   187  LYS187      0.0035
      7  CD        -9.3710  -24.3590    8.5170 C.3   187  LYS187      0.0206
      8  CE        -8.0320  -24.8270    7.9360 C.3   187  LYS187      0.1093
      9  NZ        -6.9040  -23.9070    8.3170 N.3   187  LYS187     -0.1314
     10  N         -8.7310  -20.3510    6.1330 N.3   189  PRO189     -0.2102
     11  CA        -7.5700  -20.5220    5.2590 C.3   189  PRO189      0.1504
     12  C         -6.5240  -19.4310    5.4920 C.2   189  PRO189      0.2576
     13  O         -6.8770  -18.2900    5.7990 O.2   189  PRO189     -0.2718
     14  CB        -8.1720  -20.3830    3.8590 C.3   189  PRO189      0.0282
     15  CG        -9.5810  -20.8450    4.0200 C.3   189  PRO189      0.0208
     16  CD        -9.9920  -20.3290    5.3680 C.3   189  PRO189      0.0893
     17  N         -5.2500  -19.7900    5.3500 N.am  190  SER190     -0.1938
     18  CA        -4.1440  -18.8570    5.5770 C.3   190  SER190      0.2055
     19  C         -3.9840  -17.8340    4.4480 C.2   190  SER190      0.2644
     20  O         -3.4810  -16.7260    4.6730 O.2   190  SER190     -0.2714
     21  CB        -2.8280  -19.6170    5.7830 C.3   190  SER190      0.2130
     22  OG        -2.4720  -20.3560    4.6250 O.3   190  SER190     -0.2179
     23  N         -4.4060  -18.2130    3.2420 N.am  191  GLY191     -0.1939
     24  CA        -4.2550  -17.3640    2.0590 C.3   191  GLY191      0.2014
     25  C         -5.1580  -16.1450    2.0690 C.2   191  GLY191      0.2638
     26  O         -4.8470  -15.1310    1.4460 O.2   191  GLY191     -0.2714
     27  N         -6.2760  -16.2550    2.7830 N.am  192  LEU192     -0.1977
     28  CA        -7.2540  -15.1790    2.8970 C.3   192  LEU192      0.1596
     29  C         -6.8250  -14.1400    3.9360 C.2   192  LEU192      0.2287
     30  O         -6.2850  -14.4950    4.9880 O.2   192  LEU192     -0.2864
     31  CB        -8.6350  -15.7450    3.2480 C.3   192  LEU192      0.0297
     32  CG        -9.2970  -16.7100    2.2530 C.3   192  LEU192      0.0022
     33  CD1      -10.4650  -17.4370    2.9030 C.3   192  LEU192      0.0001
     34  CD2       -9.7540  -15.9970    0.9860 C.3   192  LEU192      0.0001
     35  N        -17.3090  -20.2080    0.1190 N.3   224  LEU224     -0.1245
     36  CA       -16.1850  -21.1290   -0.0130 C.3   224  LEU224      0.1561
     37  C        -16.4180  -22.3940    0.8160 C.2   224  LEU224      0.2260
     38  O        -16.7540  -22.3210    2.0000 O.2   224  LEU224     -0.2867
     39  CB       -14.8690  -20.4500    0.3820 C.3   224  LEU224      0.0270
     40  CG       -13.5850  -21.2770    0.2370 C.3   224  LEU224      0.0019
     41  CD1      -13.2100  -21.4650   -1.2250 C.3   224  LEU224      0.0001
     42  CD2      -12.4380  -20.6330    1.0000 C.3   224  LEU224      0.0001
     43  N        -12.8600  -26.5970   -3.9520 N.3   251  ARG251     -0.1245
     44  CA       -11.6860  -27.2590   -4.5330 C.3   251  ARG251      0.1563
     45  C        -11.9830  -28.6730   -5.0190 C.2   251  ARG251      0.2260
     46  O        -11.3240  -29.1720   -5.9300 O.2   251  ARG251     -0.2867
     47  CB       -10.4970  -27.2410   -3.5730 C.3   251  ARG251      0.0307
     48  CG       -10.7580  -27.7670   -2.1750 C.3   251  ARG251      0.0489
     49  CD        -9.6210  -27.3400   -1.2650 C.3   251  ARG251      0.2205
     50  NE        -9.6220  -28.0510    0.0070 N.pl3 251  ARG251     -0.0865
     51  CZ        -8.8330  -27.7510    1.0320 C.cat 251  ARG251      0.5346
     52  NH1       -7.9750  -26.7450    0.9470 N.pl3 251  ARG251      0.1354
     53  NH2       -8.9050  -28.4600    2.1490 N.pl3 251  ARG251      0.1354
     54  N         -9.6270  -22.7940   -6.5530 N.3   333  LYS333     -0.1231
     55  CA        -9.0310  -22.2650   -5.3240 C.3   333  LYS333      0.1693
     56  C         -8.8720  -20.7500   -5.4140 C.2   333  LYS333      0.2592
     57  O         -8.6660  -20.2040   -6.5020 O.2   333  LYS333     -0.2718
     58  CB        -7.6850  -22.9380   -5.0120 C.3   333  LYS333      0.0285
     59  CG        -6.6340  -22.6670   -6.0610 C.3   333  LYS333      0.0035
     60  CD        -5.3100  -23.3690   -5.7130 C.3   333  LYS333      0.0206
     61  CE        -4.7760  -22.8140   -4.3840 C.3   333  LYS333      0.1093
     62  NZ        -3.3820  -23.2660   -3.9690 N.3   333  LYS333     -0.1314
     63  N         -8.9890  -20.0760   -4.2740 N.am  334  ILE334     -0.1966
     64  CA        -8.7620  -18.6360   -4.2110 C.3   334  ILE334      0.1727
     65  C         -7.2610  -18.3820   -4.0710 C.2   334  ILE334      0.2616
     66  O         -6.6210  -18.8920   -3.1480 O.2   334  ILE334     -0.2715
     67  CB        -9.5350  -17.9790   -3.0490 C.3   334  ILE334      0.0290
     68  CG1      -11.0430  -18.1830   -3.2260 C.3   334  ILE334      0.0022
     69  CG2       -9.2030  -16.4980   -2.9630 C.3   334  ILE334      0.0023
     70  CD1      -11.8570  -18.0030   -1.9600 C.3   334  ILE334      0.0001
     71  N         -6.7110  -17.6040   -4.9990 N.am  335  THR335     -0.1951
     72  CA        -5.2780  -17.3130   -5.0190 C.3   335  THR335      0.1897
     73  C         -4.9640  -15.8840   -4.5740 C.2   335  THR335      0.2313
     74  O         -4.0890  -15.6760   -3.7320 O.2   335  THR335     -0.2863
     75  CB        -4.6550  -17.5810   -6.4060 C.3   335  THR335      0.1794
     76  OG1       -5.4850  -17.0110   -7.4270 O.3   335  THR335     -0.2208
     77  CG2       -4.5120  -19.0790   -6.6480 C.3   335  THR335      0.0378
@<TRIPOS>BOND
     1    76    75    1
     2    77    75    1
     3    54    55    1
     4    57    56    2
     5    75    72    1
     6    59    60    1
     7    59    58    1
     8    46    45    2
     9    60    61    1
    10    56    55    1
    11    56    63   am
    12    55    58    1
    13    45    44    1
    14    72    71    1
    15    72    73    1
    16    71    65   am
    17    73    74    2
    18    44    43    1
    19    44    47    1
    20    61    62    1
    21    63    64    1
    22    64    65    1
    23    64    67    1
    24    65    66    2
    25    47    48    1
    26    68    67    1
    27    68    70    1
    28    67    69    1
    29    48    49    1
    30    49    50    1
    31    41    40    1
    32    36    35    1
    33    36    39    1
    34    36    37    1
    35    50    51    2
    36    40    39    1
    37    40    42    1
    38    37    38    2
    39    52    51    1
    40    34    32    1
    41    51    53    1
    42    26    25    2
    43    24    25    1
    44    24    23    1
    45    25    27   am
    46    32    33    1
    47    32    31    1
    48    27    28    1
    49    28    31    1
    50    28    29    1
    51    23    19   am
    52    14    15    1
    53    14    11    1
    54    29    30    2
    55    15    16    1
    56    19    20    2
    57    19    18    1
    58    22    21    1
    59    11    12    1
    60    11    10    1
    61    17    12   am
    62    17    18    1
    63    16    10    1
    64    12    13    2
    65    18    21    1
    66     8     9    1
    67     8     7    1
    68     7     6    1
    69     4     3    2
    70     3     2    1
    71     6     5    1
    72     5     2    1
    73     2     1    1
