@<TRIPOS>MOLECULE
tmp/4b67A04.pdb
 112 112 0 0 0
SMALL
GASTEIGER

@<TRIPOS>ATOM
      1  N        -21.9190  -25.9320   26.5350 N.3    20  GLY20      -0.1210
      2  CA       -22.5350  -26.4170   25.3080 C.3    20  GLY20       0.1940
      3  C        -23.1950  -27.7710   25.5140 C.2    20  GLY20       0.2453
      4  O        -23.3900  -28.2000   26.6540 O.2    20  GLY20      -0.2732
      5  N        -23.5560  -28.4490   24.4090 N.am   21  PRO21      -0.2728
      6  CA       -24.1480  -29.7850   24.4440 C.3    21  PRO21       0.1401
      7  C        -23.4010  -30.7790   25.3370 C.2    21  PRO21       0.2269
      8  O        -24.0420  -31.5580   26.0510 O.2    21  PRO21      -0.2865
      9  CB       -24.0810  -30.2200   22.9810 C.3    21  PRO21       0.0296
     10  CG       -24.2610  -28.9480   22.2290 C.3    21  PRO21       0.0237
     11  CD       -23.5750  -27.8870   23.0450 C.3    21  PRO21       0.0939
     12  N        -19.9240  -20.2590   31.1200 N.3    55  GLU55      -0.1231
     13  CA       -20.2300  -20.0660   29.6990 C.3    55  GLU55       0.1699
     14  C        -20.0250  -18.6090   29.2670 C.2    55  GLU55       0.2592
     15  O        -20.4700  -17.6800   29.9480 O.2    55  GLU55      -0.2718
     16  CB       -21.6670  -20.5240   29.4080 C.3    55  GLU55       0.0402
     17  CG       -22.2130  -20.1560   28.0350 C.3    55  GLU55       0.1161
     18  CD       -21.4890  -20.8530   26.9030 C.2    55  GLU55       0.3649
     19  OE1      -21.2890  -22.0810   26.9820 O.co2  55  GLU55      -0.2457
     20  OE2      -21.1270  -20.1720   25.9260 O.co2  55  GLU55      -0.2457
     21  N        -19.3580  -18.4180   28.1300 N.am   56  ARG56      -0.1966
     22  CA       -19.0630  -17.0760   27.6310 C.3    56  ARG56       0.1729
     23  C        -20.2330  -16.4050   26.9110 C.2    56  ARG56       0.2616
     24  O        -20.2410  -15.1860   26.7370 O.2    56  ARG56      -0.2715
     25  CB       -17.7950  -17.0680   26.7630 C.3    56  ARG56       0.0348
     26  CG       -17.8840  -17.8050   25.4360 C.3    56  ARG56       0.0492
     27  CD       -16.5710  -17.6480   24.6860 C.3    56  ARG56       0.2205
     28  NE       -16.6470  -18.1220   23.3060 N.pl3  56  ARG56      -0.0865
     29  CZ       -15.6050  -18.1910   22.4810 C.cat  56  ARG56       0.5346
     30  NH1      -14.4000  -17.8230   22.8970 N.pl3  56  ARG56       0.1354
     31  NH2      -15.7660  -18.6330   21.2400 N.pl3  56  ARG56       0.1354
     32  N        -21.2120  -17.1980   26.4890 N.am   57  GLN57      -0.1977
     33  CA       -22.4440  -16.6490   25.9250 C.3    57  GLN57       0.1601
     34  C        -23.3510  -16.1060   27.0330 C.2    57  GLN57       0.2287
     35  O        -23.2830  -16.5550   28.1810 O.2    57  GLN57      -0.2864
     36  CB       -23.1760  -17.6920   25.0800 C.3    57  GLN57       0.0394
     37  CG       -22.5110  -17.9940   23.7430 C.3    57  GLN57       0.0908
     38  CD       -23.2770  -19.0090   22.9060 C.2    57  GLN57       0.2608
     39  OE1      -23.7240  -18.7020   21.8020 O.2    57  GLN57      -0.2717
     40  NE2      -23.4290  -20.2230   23.4280 N.am   57  GLN57      -0.0878
     41  N        -28.0100  -19.7180   27.0280 N.3    60  PHE60      -0.1227
     42  CA       -27.7810  -20.9250   26.2370 C.3    60  PHE60       0.1736
     43  C        -28.1470  -20.7020   24.7760 C.2    60  PHE60       0.2595
     44  O        -29.2370  -20.2130   24.4580 O.2    60  PHE60      -0.2718
     45  CB       -28.5260  -22.1410   26.7910 C.3    60  PHE60       0.0547
     46  CG       -28.2150  -23.4200   26.0580 C.ar   60  PHE60      -0.0202
     47  CD1      -27.1540  -24.2280   26.4610 C.ar   60  PHE60      -0.0042
     48  CD2      -28.9710  -23.8090   24.9540 C.ar   60  PHE60      -0.0042
     49  CE1      -26.8590  -25.4010   25.7860 C.ar   60  PHE60      -0.0003
     50  CE2      -28.6780  -24.9780   24.2740 C.ar   60  PHE60      -0.0003
     51  CZ       -27.6200  -25.7750   24.6910 C.ar   60  PHE60      -0.0000
     52  N        -27.2150  -21.0640   23.9000 N.am   61  ALA61      -0.1966
     53  CA       -27.4030  -20.9730   22.4600 C.3    61  ALA61       0.1728
     54  C        -26.6400  -22.1000   21.7840 C.2    61  ALA61       0.2616
     55  O        -25.5440  -22.4700   22.2150 O.2    61  ALA61      -0.2715
     56  CB       -26.9370  -19.6190   21.9400 C.3    61  ALA61       0.0334
     57  N        -27.2320  -22.6510   20.7310 N.am   62  TRP62      -0.1960
     58  CA       -26.6050  -23.7370   19.9910 C.3    62  TRP62       0.1771
     59  C        -26.3600  -23.3410   18.5620 C.2    62  TRP62       0.2620
     60  O        -27.2400  -23.4740   17.7060 O.2    62  TRP62      -0.2715
     61  CB       -27.4410  -25.0130   20.0890 C.3    62  TRP62       0.0590
     62  CG       -26.7840  -26.2140   19.4510 C.ar   62  TRP62       0.0006
     63  CD1      -25.4900  -26.6880   19.6580 C.ar   62  TRP62       0.0946
     64  CD2      -27.3760  -27.1450   18.4830 C.ar   62  TRP62       0.0152
     65  NE1      -25.2500  -27.8070   18.9050 N.ar   62  TRP62      -0.2442
     66  CE2      -26.3350  -28.1370   18.1800 C.ar   62  TRP62       0.0810
     67  CE3      -28.6170  -27.2550   17.8640 C.ar   62  TRP62       0.0012
     68  CZ2      -26.5470  -29.1750   17.2930 C.ar   62  TRP62       0.0191
     69  CZ3      -28.8190  -28.3120   16.9720 C.ar   62  TRP62       0.0001
     70  CH2      -27.8070  -29.2440   16.6930 C.ar   62  TRP62       0.0015
     71  N        -25.1490  -22.8470   18.3090 N.am   63  HIS63      -0.1959
     72  CA       -24.7290  -22.3570   16.9910 C.3    63  HIS63       0.1787
     73  C        -25.7120  -21.3740   16.4030 C.2    63  HIS63       0.2621
     74  O        -26.3650  -21.6520   15.3920 O.2    63  HIS63      -0.2715
     75  CB       -24.4360  -23.5190   16.0370 C.3    63  HIS63       0.0785
     76  CG       -23.4650  -24.5330   16.5930 C.ar   63  HIS63       0.0821
     77  ND1      -22.2160  -24.2080   16.9720 N.ar   63  HIS63      -0.2267
     78  CD2      -23.6010  -25.9010   16.8210 C.ar   63  HIS63       0.1154
     79  CE1      -21.5840  -25.3080   17.4250 C.ar   63  HIS63       0.1986
     80  NE2      -22.4330  -26.3430   17.3300 N.ar   63  HIS63      -0.2212
     81  N        -25.8220  -20.2120   17.0450 N.am   64  SER64      -0.1936
     82  CA       -26.7790  -19.1770   16.6380 C.3    64  SER64       0.2055
     83  C        -26.4620  -18.5560   15.2800 C.2    64  SER64       0.2643
     84  O        -27.3690  -18.1820   14.5370 O.2    64  SER64      -0.2714
     85  CB       -26.9000  -18.0940   17.7140 C.3    64  SER64       0.2130
     86  OG       -27.7560  -18.5320   18.7600 O.3    64  SER64      -0.2179
     87  N        -25.1740  -18.4640   14.9590 N.am   65  GLY65      -0.1954
     88  CA       -24.7290  -17.9250   13.6750 C.3    65  GLY65       0.1869
     89  C        -25.0100  -18.8340   12.4910 C.2    65  GLY65       0.2309
     90  O        -24.9290  -18.4020   11.3410 O.2    65  GLY65      -0.2863
     91  N        -15.4730  -26.3170   18.9140 N.3   184  GLY184     -0.1225
     92  CA       -14.5290  -25.8970   17.8850 C.3   184  GLY184      0.1811
     93  C        -14.3660  -24.3950   17.7340 C.2   184  GLY184      0.2280
     94  O        -15.2000  -23.6150   18.1970 O.2   184  GLY184     -0.2866
     95  N        -19.7580  -19.8120   10.7670 N.3   202  SER202     -0.1217
     96  CA       -20.2500  -19.8010   12.1470 C.3   202  SER202      0.1889
     97  C        -20.8990  -18.4770   12.5350 C.2   202  SER202      0.2288
     98  O        -21.6850  -18.4290   13.4780 O.2   202  SER202     -0.2866
     99  CB       -19.1240  -20.1470   13.1310 C.3   202  SER202      0.2089
    100  OG       -18.0420  -19.2360   13.0280 O.3   202  SER202     -0.2183
    101  N        -13.8910  -26.2750   11.3180 N.3   371  TYR371     -0.1241
    102  CA       -13.4750  -25.8840   12.6570 C.3   371  TYR371      0.1605
    103  C        -12.1740  -26.5610   13.0870 C.2   371  TYR371      0.2264
    104  O        -11.8430  -27.6470   12.6110 O.2   371  TYR371     -0.2867
    105  CB       -14.5910  -26.1960   13.6650 C.3   371  TYR371      0.0534
    106  CG       -15.8940  -25.4800   13.3730 C.ar  371  TYR371     -0.0201
    107  CD1      -16.8420  -26.0380   12.5170 C.ar  371  TYR371     -0.0009
    108  CD2      -16.1740  -24.2390   13.9440 C.ar  371  TYR371     -0.0009
    109  CE1      -18.0280  -25.3800   12.2360 C.ar  371  TYR371      0.0417
    110  CE2      -17.3580  -23.5770   13.6700 C.ar  371  TYR371      0.0417
    111  CZ       -18.2810  -24.1530   12.8170 C.ar  371  TYR371      0.1957
    112  OH       -19.4600  -23.5020   12.5430 O.3   371  TYR371     -0.2866
@<TRIPOS>BOND
     1    95    96    1
     2   101   102    1
     3    90    89    2
     4    96    97    1
     5    96    99    1
     6   109   107   ar
     7   109   111   ar
     8    89    88    1
     9   107   106   ar
    10    97    98    2
    11   112   111    1
    12   104   103    2
    13   102   103    1
    14   102   105    1
    15   111   110   ar
    16   100    99    1
    17   106   105    1
    18   106   108   ar
    19   110   108   ar
    20    88    87    1
    21    84    83    2
    22    87    83   am
    23    83    82    1
    24    74    73    2
    25    75    76    1
    26    75    72    1
    27    73    72    1
    28    73    81   am
    29    76    78   ar
    30    76    77   ar
    31    82    81    1
    32    82    85    1
    33    70    69   ar
    34    70    68   ar
    35    78    80   ar
    36    77    79   ar
    37    69    67   ar
    38    72    71    1
    39    68    66   ar
    40    80    79   ar
    41    60    59    2
    42    85    86    1
    43    93    92    1
    44    93    94    2
    45    67    64   ar
    46    92    91    1
    47    66    64   ar
    48    66    65   ar
    49    71    59   am
    50    64    62   ar
    51    59    58    1
    52    65    63   ar
    53    62    63   ar
    54    62    61    1
    55    58    61    1
    56    58    57    1
    57    57    54   am
    58    31    29    1
    59    54    55    2
    60    54    53    1
    61    39    38    2
    62    56    53    1
    63    10     9    1
    64    10    11    1
    65    53    52    1
    66    29    30    1
    67    29    28    2
    68    38    40   am
    69    38    37    1
    70     9     6    1
    71    11     5    1
    72    28    27    1
    73    37    36    1
    74    52    43   am
    75    50    51   ar
    76    50    48   ar
    77     5     6    1
    78     5     3   am
    79     6     7    1
    80    44    43    2
    81    27    26    1
    82    51    49   ar
    83    43    42    1
    84    48    46   ar
    85    36    33    1
    86     2     3    1
    87     2     1    1
    88     7     8    2
    89    26    25    1
    90     3     4    2
    91    49    47   ar
    92    33    32    1
    93    33    34    1
    94    20    18   ar
    95    46    47   ar
    96    46    45    1
    97    42    45    1
    98    42    41    1
    99    32    23   am
   100    24    23    2
   101    25    22    1
   102    18    19   ar
   103    18    17    1
   104    23    22    1
   105    34    35    2
   106    22    21    1
   107    17    16    1
   108    21    14   am
   109    14    13    1
   110    14    15    2
   111    16    13    1
   112    13    12    1
