@<TRIPOS>MOLECULE
tmp/4b6cB00.pdb
 185 173 0 0 0
SMALL
GASTEIGER

@<TRIPOS>ATOM
      1  N          2.6520   28.6710   67.4320 N.3    12  GLU12      -0.1231
      2  CA         1.3230   28.0950   67.6080 C.3    12  GLU12       0.1699
      3  C          1.1130   26.8220   66.7650 C.2    12  GLU12       0.2592
      4  O          0.7800   25.7770   67.3150 O.2    12  GLU12      -0.2718
      5  CB         0.2470   29.1410   67.3180 C.3    12  GLU12       0.0402
      6  CG        -1.0220   28.8980   68.1190 C.3    12  GLU12       0.1161
      7  CD        -2.2530   29.5930   67.5810 C.2    12  GLU12       0.3649
      8  OE1       -2.3670   30.8270   67.7590 O.co2  12  GLU12      -0.2457
      9  OE2       -3.0780   28.9080   66.9360 O.co2  12  GLU12      -0.2457
     10  N          1.3650   26.9080   65.4690 N.am   13  VAL13      -0.1980
     11  CA         1.2480   25.7980   64.5110 C.3    13  VAL13       0.1595
     12  C          2.2270   24.6620   64.8670 C.2    13  VAL13       0.2287
     13  O          1.8220   23.4960   64.9350 O.2    13  VAL13      -0.2864
     14  CB         1.4230   26.3320   63.0720 C.3    13  VAL13       0.0276
     15  CG1        1.4490   25.1970   62.0420 C.3    13  VAL13       0.0022
     16  CG2        0.3300   27.3570   62.7340 C.3    13  VAL13       0.0022
     17  N          1.2540   22.6360   68.0920 N.3    16  ASN16      -0.1225
     18  CA         0.2370   21.6170   67.7770 C.3    16  ASN16       0.1785
     19  C          0.8390   20.3590   67.1090 C.2    16  ASN16       0.2597
     20  O          0.4760   19.2520   67.5000 O.2    16  ASN16      -0.2718
     21  CB        -0.8970   22.2160   66.9640 C.3    16  ASN16       0.1169
     22  CG        -1.8130   23.0730   67.8020 C.2    16  ASN16       0.2627
     23  OD1       -2.6290   22.5800   68.5800 O.2    16  ASN16      -0.2716
     24  ND2       -1.7810   24.3650   67.5780 N.am   16  ASN16      -0.0877
     25  N          1.8220   20.5450   66.1910 N.am   17  ALA17      -0.1979
     26  CA         2.5400   19.4650   65.5230 C.3    17  ALA17       0.1597
     27  C          3.3920   18.7060   66.5420 C.2    17  ALA17       0.2287
     28  O          3.5150   17.4840   66.4760 O.2    17  ALA17      -0.2864
     29  CB         3.4490   20.0330   64.4250 C.3    17  ALA17       0.0319
     30  N          1.7410   16.2170   68.8420 N.3    20  GLU20      -0.1245
     31  CA         1.5580   14.9130   68.1960 C.3    20  GLU20       0.1567
     32  C          2.7480   14.0360   68.4930 C.2    20  GLU20       0.2260
     33  O          2.5620   12.8480   68.7640 O.2    20  GLU20      -0.2867
     34  CB         1.3920   15.0390   66.6540 C.3    20  GLU20       0.0388
     35  CG         0.0820   15.6400   66.2250 C.3    20  GLU20       0.1160
     36  CD        -1.1150   14.8550   66.7120 C.2    20  GLU20       0.3649
     37  OE1       -1.3580   13.7600   66.1590 O.co2  20  GLU20      -0.2457
     38  OE2       -1.7370   15.2770   67.7150 O.co2  20  GLU20      -0.2457
     39  N          3.5770   17.6160   59.5840 N.3    43  ASP43      -0.1239
     40  CA         3.8700   16.5740   60.5750 C.3    43  ASP43       0.1674
     41  C          3.3000   15.2310   60.0690 C.2    43  ASP43       0.2266
     42  O          2.4840   15.2270   59.1470 O.2    43  ASP43      -0.2867
     43  CB         3.3620   16.9470   61.9890 C.3    43  ASP43       0.1410
     44  CG         1.8400   17.0050   62.0940 C.2    43  ASP43       0.3668
     45  OD1        1.1920   15.9250   62.0000 O.co2  43  ASP43      -0.2456
     46  OD2        1.2990   18.1240   62.2270 O.co2  43  ASP43      -0.2456
     47  N         -1.5510   12.2970   63.6780 N.3    46  ARG46      -0.1231
     48  CA        -2.8660   11.6650   63.4060 C.3    46  ARG46       0.1694
     49  C         -3.6980   12.3690   62.3300 C.2    46  ARG46       0.2593
     50  O         -4.6520   11.8020   61.8210 O.2    46  ARG46      -0.2718
     51  CB        -3.7080   11.5930   64.6950 C.3    46  ARG46       0.0321
     52  CG        -3.0660   10.7850   65.8200 C.3    46  ARG46       0.0489
     53  CD        -3.8100   10.9640   67.1350 C.3    46  ARG46       0.2205
     54  NE        -3.5070   12.2520   67.7580 N.pl3  46  ARG46      -0.0865
     55  CZ        -4.0840   12.7430   68.8530 C.cat  46  ARG46       0.5346
     56  NH1       -5.0970   12.1020   69.4280 N.pl3  46  ARG46       0.1354
     57  NH2       -3.6940   13.9080   69.3450 N.pl3  46  ARG46       0.1354
     58  N         -3.3640   13.6160   62.0350 N.am   47  GLY47      -0.1942
     59  CA        -4.1600   14.4600   61.1570 C.3    47  GLY47       0.2014
     60  C         -5.2180   15.1610   62.0000 C.2    47  GLY47       0.2639
     61  O         -5.8150   14.5330   62.8800 O.2    47  GLY47      -0.2714
     62  N         -5.4400   16.4740   61.7720 N.am   48  ILE48      -0.1963
     63  CA        -6.4720   17.2250   62.5050 C.3    48  ILE48       0.1712
     64  C         -7.8140   16.5680   62.1760 C.2    48  ILE48       0.2458
     65  O         -8.0750   16.3420   60.9920 O.2    48  ILE48      -0.2730
     66  CB        -6.5300   18.7500   62.1560 C.3    48  ILE48       0.0289
     67  CG1       -5.1980   19.4550   62.4340 C.3    48  ILE48       0.0022
     68  CG2       -7.7100   19.4540   62.8990 C.3    48  ILE48       0.0023
     69  CD1       -5.0430   20.8410   61.8030 C.3    48  ILE48       0.0001
     70  N         -8.6700   16.2380   63.1880 N.am   49  PRO49      -0.2727
     71  CA        -9.9770   15.6180   62.8650 C.3    49  PRO49       0.1402
     72  C        -10.7990   16.4550   61.8860 C.2    49  PRO49       0.2269
     73  O        -10.8690   17.6850   62.0040 O.2    49  PRO49      -0.2865
     74  CB       -10.6450   15.4510   64.2410 C.3    49  PRO49       0.0296
     75  CG        -9.5070   15.4150   65.2190 C.3    49  PRO49       0.0237
     76  CD        -8.4920   16.3810   64.6520 C.3    49  PRO49       0.0939
     77  N        -13.9470   14.9220   60.6190 N.3    51  GLU51      -0.1231
     78  CA       -15.3170   14.4470   60.8090 C.3    51  GLU51       0.1699
     79  C        -16.1250   15.5600   61.4860 C.2    51  GLU51       0.2592
     80  O        -15.5330   16.4030   62.1720 O.2    51  GLU51      -0.2718
     81  CB       -15.3290   13.1630   61.6660 C.3    51  GLU51       0.0402
     82  CG       -15.0220   13.3970   63.1350 C.3    51  GLU51       0.1161
     83  CD       -14.5360   12.1810   63.8900 C.2    51  GLU51       0.3649
     84  OE1      -13.3290   11.8670   63.7730 O.co2  51  GLU51      -0.2457
     85  OE2      -15.3530   11.5570   64.6100 O.co2  51  GLU51      -0.2457
     86  N        -17.4610   15.5580   61.3040 N.am   52  MET52      -0.1965
     87  CA       -18.3690   16.5500   61.8990 C.3    52  MET52       0.1736
     88  C        -18.2180   16.6780   63.4110 C.2    52  MET52       0.2616
     89  O        -18.1010   15.6790   64.1120 O.2    52  MET52      -0.2715
     90  CB       -19.8470   16.2060   61.6030 C.3    52  MET52       0.0427
     91  CG       -20.2040   16.3240   60.1540 C.3    52  MET52       0.0599
     92  SD       -20.0490   18.0050   59.5150 S.3    52  MET52      -0.1393
     93  CE       -21.5390   18.1200   58.6350 C.3    52  MET52       0.0692
     94  N        -18.2060   17.9220   63.8850 N.am   53  HIS53      -0.1959
     95  CA       -18.2070   18.3030   65.2850 C.3    53  HIS53       0.1787
     96  C        -19.6900   18.5010   65.6310 C.2    53  HIS53       0.2620
     97  O        -20.5360   18.6540   64.7200 O.2    53  HIS53      -0.2715
     98  CB       -17.4260   19.6190   65.4780 C.3    53  HIS53       0.0785
     99  CG       -17.1820   19.9890   66.9140 C.ar   53  HIS53       0.0821
    100  ND1      -17.9900   20.9100   67.5710 N.ar   53  HIS53      -0.2267
    101  CD2      -16.2500   19.5340   67.7840 C.ar   53  HIS53       0.1154
    102  CE1      -17.5220   20.9860   68.8110 C.ar   53  HIS53       0.1986
    103  NE2      -16.4790   20.1810   68.9850 N.ar   53  HIS53      -0.2212
    104  N        -20.0120   18.4650   66.9470 N.am   54  ALA54      -0.1977
    105  CA       -21.3650   18.6370   67.4560 C.3    54  ALA54       0.1597
    106  C        -21.9590   20.0120   67.0980 C.2    54  ALA54       0.2287
    107  O        -23.1700   20.1020   66.8670 O.2    54  ALA54      -0.2864
    108  CB       -21.3960   18.3940   68.9490 C.3    54  ALA54       0.0319
    109  N        -14.6540   19.2680   62.3480 N.3    59  THR59      -0.1218
    110  CA       -13.8660   19.5660   63.5640 C.3    59  THR59       0.1862
    111  C        -12.7470   20.5940   63.2680 C.2    59  THR59       0.2287
    112  O        -12.4920   21.4810   64.0870 O.2    59  THR59      -0.2866
    113  CB       -13.3760   18.2520   64.2300 C.3    59  THR59       0.1770
    114  OG1      -14.4790   17.3770   64.4550 O.3    59  THR59      -0.2211
    115  CG2      -12.6240   18.4780   65.5400 C.3    59  THR59       0.0375
    116  N        -11.8500   24.1540   65.1460 N.3    63  VAL63      -0.1231
    117  CA       -10.4920   24.3800   65.6290 C.3    63  VAL63       0.1692
    118  C         -9.9050   25.6870   65.0040 C.2    63  VAL63       0.2591
    119  O         -9.3660   26.5210   65.7260 O.2    63  VAL63      -0.2718
    120  CB        -9.6600   23.0970   65.3220 C.3    63  VAL63       0.0266
    121  CG1       -8.1600   23.3650   65.3020 C.3    63  VAL63       0.0020
    122  CG2      -10.0070   21.9760   66.3060 C.3    63  VAL63       0.0020
    123  N        -10.0760   25.8810   63.6850 N.am   64  MET64      -0.1979
    124  CA        -9.5680   27.0570   62.9780 C.3    64  MET64       0.1605
    125  C        -10.3130   28.3730   63.2080 C.2    64  MET64       0.2287
    126  O         -9.6840   29.4220   63.0670 O.2    64  MET64      -0.2864
    127  CB        -9.4200   26.7780   61.4720 C.3    64  MET64       0.0413
    128  CG        -8.4290   25.6990   61.1680 C.3    64  MET64       0.0598
    129  SD        -6.7870   26.0910   61.7710 S.3    64  MET64      -0.1393
    130  CE        -6.0280   24.4480   61.7320 C.3    64  MET64       0.0692
    131  N         -6.4410   30.4910   69.5250 N.3    70  SER70      -0.1217
    132  CA        -5.7690   30.6030   68.2420 C.3    70  SER70       0.1889
    133  C         -5.8290   32.0090   67.6320 C.2    70  SER70       0.2288
    134  O         -6.9030   32.5970   67.5330 O.2    70  SER70      -0.2866
    135  CB        -6.3050   29.5690   67.2610 C.3    70  SER70       0.2089
    136  OG        -5.4570   29.5000   66.1290 O.3    70  SER70      -0.2183
    137  N         -3.7520   32.4530   64.6330 N.3    72  VAL72      -0.1231
    138  CA        -3.2580   32.1120   63.3050 C.3    72  VAL72       0.1692
    139  C         -4.1940   32.4960   62.1630 C.2    72  VAL72       0.2592
    140  O         -3.8420   33.3520   61.3550 O.2    72  VAL72      -0.2718
    141  CB        -2.6880   30.6700   63.2010 C.3    72  VAL72       0.0266
    142  CG1       -2.1070   30.4120   61.8180 C.3    72  VAL72       0.0020
    143  CG2       -1.6200   30.4220   64.2660 C.3    72  VAL72       0.0020
    144  N         -5.3750   31.8750   62.1050 N.am   73  ASN73      -0.1974
    145  CA        -6.3650   32.1520   61.0790 C.3    73  ASN73       0.1688
    146  C         -6.7990   33.6330   61.1160 C.2    73  ASN73       0.2292
    147  O         -6.7310   34.3040   60.0890 O.2    73  ASN73      -0.2864
    148  CB        -7.5300   31.1910   61.2280 C.3    73  ASN73       0.1181
    149  CG        -8.2570   30.8510   59.9590 C.2    73  ASN73       0.2629
    150  OD1       -7.7540   30.9960   58.8430 O.2    73  ASN73      -0.2716
    151  ND2       -9.4730   30.3860   60.1240 N.am   73  ASN73      -0.0877
    152  N         -5.1480   30.6150   55.1500 N.3    79  LEU79      -0.1245
    153  CA        -4.6320   29.4230   55.7800 C.3    79  LEU79       0.1561
    154  C         -5.1240   28.2010   54.9720 C.2    79  LEU79       0.2260
    155  O         -6.3110   28.1110   54.6440 O.2    79  LEU79      -0.2867
    156  CB        -5.0470   29.3420   57.2670 C.3    79  LEU79       0.0270
    157  CG        -4.3930   28.2120   58.0550 C.3    79  LEU79       0.0019
    158  CD1       -4.0590   28.6550   59.4200 C.3    79  LEU79       0.0001
    159  CD2       -5.2790   27.0100   58.1220 C.3    79  LEU79       0.0001
    160  N         -6.0250   11.6520   56.7380 N.3    85  ARG85      -0.1245
    161  CA        -6.7960   11.0520   57.8300 C.3    85  ARG85       0.1563
    162  C         -7.8890   10.1350   57.3090 C.2    85  ARG85       0.2260
    163  O         -8.4040   10.3450   56.2070 O.2    85  ARG85      -0.2867
    164  CB        -7.4220   12.1640   58.7250 C.3    85  ARG85       0.0307
    165  CG        -7.6110   11.7310   60.1450 C.3    85  ARG85       0.0489
    166  CD        -8.2460   12.7800   61.0180 C.3    85  ARG85       0.2205
    167  NE        -8.9840   12.1520   62.1240 N.pl3  85  ARG85      -0.0865
    168  CZ        -8.5040   11.9460   63.3450 C.cat  85  ARG85       0.5346
    169  NH1       -7.2740   12.3380   63.6590 N.pl3  85  ARG85       0.1354
    170  NH2       -9.2580   11.3730   64.2710 N.pl3  85  ARG85       0.1354
    171  N         -0.6730   16.2020   59.0700 N.3   113  THR113     -0.1218
    172  CA        -1.1860   17.5460   58.8570 C.3   113  THR113      0.1862
    173  C         -0.1370   18.4570   58.2210 C.2   113  THR113      0.2287
    174  O          1.0230   18.4580   58.6230 O.2   113  THR113     -0.2866
    175  CB        -1.6570   18.1320   60.2050 C.3   113  THR113      0.1770
    176  OG1       -2.5980   17.2530   60.8080 O.3   113  THR113     -0.2211
    177  CG2       -2.2510   19.4960   60.0710 C.3   113  THR113      0.0375
    178  N         -0.0030   22.5230   57.3770 N.3   115  ILE115     -0.1245
    179  CA        -0.6200   23.8270   57.5390 C.3   115  ILE115      0.1561
    180  C          0.2740   24.7890   56.8090 C.2   115  ILE115      0.2260
    181  O          1.4700   24.7600   57.0370 O.2   115  ILE115     -0.2867
    182  CB        -0.8020   24.2370   59.0340 C.3   115  ILE115      0.0252
    183  CG1       -1.6670   23.2170   59.8340 C.3   115  ILE115      0.0019
    184  CG2       -1.3150   25.6940   59.1590 C.3   115  ILE115      0.0019
    185  CD1       -3.1580   23.1120   59.4700 C.3   115  ILE115      0.0001
@<TRIPOS>BOND
     1   155   154    2
     2   154   153    1
     3   152   153    1
     4   153   156    1
     5   163   162    2
     6   160   161    1
     7   180   181    2
     8   180   179    1
     9   156   157    1
    10   162   161    1
    11   178   179    1
    12   179   182    1
    13   161   164    1
    14   157   159    1
    15   157   158    1
    16   173   174    2
    17   173   172    1
    18    93    92    1
    19   164   165    1
    20   150   149    2
    21   172   171    1
    22   172   175    1
    23   182   184    1
    24   182   183    1
    25    42    41    2
    26   185   183    1
    27    92    91    1
    28    39    40    1
    29   149   151   am
    30   149   148    1
    31    41    40    1
    32   177   175    1
    33   147   146    2
    34   165   166    1
    35    91    90    1
    36   175   176    1
    37    40    43    1
    38    77    78    1
    39    78    79    1
    40    78    81    1
    41    65    64    2
    42   166   167    1
    43   145   146    1
    44   145   148    1
    45   145   144    1
    46    59    60    1
    47    59    58    1
    48   128   127    1
    49   128   129    1
    50    86    79   am
    51    86    87    1
    52   140   139    2
    53   127   124    1
    54    79    80    2
    55    90    87    1
    56    81    82    1
    57   130   129    1
    58    62    60   am
    59    62    63    1
    60    69    67    1
    61   142   141    1
    62    50    49    2
    63    72    73    2
    64    72    71    1
    65    87    88    1
    66    43    44    1
    67    60    61    2
    68    45    44   ar
    69    58    49   am
    70    15    14    1
    71    44    46   ar
    72   144   139   am
    73   167   168    2
    74    66    67    1
    75    66    63    1
    76    66    68    1
    77   139   138    1
    78    64    63    1
    79    64    70   am
    80    49    48    1
    81   109   110    1
    82    16    14    1
    83    71    70    1
    84    71    74    1
    85   124   125    1
    86   124   123    1
    87   126   125    2
    88    14    11    1
    89    82    83    1
    90    70    76    1
    91   141   138    1
    92   141   143    1
    93   111   110    1
    94   111   112    2
    95   138   137    1
    96   168   169    1
    97   168   170    1
    98    48    47    1
    99    48    51    1
   100    88    94   am
   101    88    89    2
   102   110   113    1
   103   123   118   am
   104    84    83   ar
   105    94    95    1
   106    83    85   ar
   107   113   114    1
   108   113   115    1
   109    74    75    1
   110    29    26    1
   111    11    12    1
   112    11    10    1
   113    76    75    1
   114    51    52    1
   115    97    96    2
   116    12    13    2
   117   118   117    1
   118   118   119    2
   119   116   117    1
   120    95    98    1
   121    95    96    1
   122   121   120    1
   123   120   117    1
   124   120   122    1
   125    10     3   am
   126    98    99    1
   127    26    25    1
   128    26    27    1
   129    96   104   am
   130    52    53    1
   131   136   135    1
   132    37    36   ar
   133    25    19   am
   134    35    34    1
   135    35    36    1
   136    28    27    2
   137    34    31    1
   138    36    38   ar
   139     3     4    2
   140     3     2    1
   141   107   106    2
   142    99   100   ar
   143    99   101   ar
   144     9     7   ar
   145   104   105    1
   146    21    18    1
   147    21    22    1
   148   106   105    1
   149    19    20    2
   150    19    18    1
   151    53    54    1
   152   135   132    1
   153     5     2    1
   154     5     6    1
   155     1     2    1
   156   105   108    1
   157   134   133    2
   158   100   102   ar
   159    24    22   am
   160     7     8   ar
   161     7     6    1
   162   133   132    1
   163    54    55    2
   164    18    17    1
   165   101   103   ar
   166    22    23    2
   167    31    32    1
   168    31    30    1
   169   132   131    1
   170    32    33    2
   171   102   103   ar
   172    55    57    1
   173    55    56    1
