@<TRIPOS>MOLECULE
tmp/4b6eB00.pdb
 121 118 0 0 0
SMALL
GASTEIGER

@<TRIPOS>ATOM
      1  N         44.7700   13.9360  -36.7230 N.3    54  TYR54      -0.1227
      2  CA        44.8530   14.2550  -38.1470 C.3    54  TYR54       0.1736
      3  C         43.5160   13.9990  -38.8730 C.2    54  TYR54       0.2595
      4  O         43.1400   14.7530  -39.7710 O.2    54  TYR54      -0.2718
      5  CB        46.0170   13.4930  -38.8350 C.3    54  TYR54       0.0548
      6  CG        46.1490   13.8430  -40.3040 C.ar   54  TYR54      -0.0200
      7  CD1       46.8240   14.9960  -40.7190 C.ar   54  TYR54      -0.0009
      8  CD2       45.5430   13.0490  -41.2800 C.ar   54  TYR54      -0.0009
      9  CE1       46.8890   15.3450  -42.0660 C.ar   54  TYR54       0.0417
     10  CE2       45.6200   13.3790  -42.6280 C.ar   54  TYR54       0.0417
     11  CZ        46.2780   14.5260  -43.0170 C.ar   54  TYR54       0.1957
     12  OH        46.3210   14.8330  -44.3570 O.3    54  TYR54      -0.2866
     13  N         42.7820   12.9540  -38.5050 N.am   55  HIS55      -0.1975
     14  CA        41.5880   12.6370  -39.2920 C.3    55  HIS55       0.1656
     15  C         40.4680   13.6720  -39.1140 C.2    55  HIS55       0.2291
     16  O         39.5570   13.7160  -39.9240 O.2    55  HIS55      -0.2864
     17  CB        41.0780   11.2120  -39.0350 C.3    55  HIS55       0.0771
     18  CG        40.5440   10.9950  -37.6540 C.ar   55  HIS55       0.0820
     19  ND1       41.2740   10.3690  -36.6670 N.ar   55  HIS55      -0.2267
     20  CD2       39.3610   11.3270  -37.0940 C.ar   55  HIS55       0.1154
     21  CE1       40.5540   10.3150  -35.5580 C.ar   55  HIS55       0.1986
     22  NE2       39.3840   10.8810  -35.7920 N.ar   55  HIS55      -0.2212
     23  N         50.7440   11.7120  -40.0420 N.3    76  VAL76      -0.1231
     24  CA        49.5940   10.9560  -40.5020 C.3    76  VAL76       0.1692
     25  C         49.5830    9.5160  -39.9610 C.2    76  VAL76       0.2592
     26  O         48.5350    8.9940  -39.6210 O.2    76  VAL76      -0.2718
     27  CB        49.4980   10.9770  -42.0330 C.3    76  VAL76       0.0266
     28  CG1       48.2970   10.1190  -42.4990 C.3    76  VAL76       0.0020
     29  CG2       49.4130   12.4690  -42.5310 C.3    76  VAL76       0.0020
     30  N         50.7510    8.9130  -39.8110 N.am   77  ASP77      -0.1960
     31  CA        50.8510    7.5410  -39.3170 C.3    77  ASP77       0.1840
     32  C         50.4130    7.3640  -37.8850 C.2    77  ASP77       0.2622
     33  O         49.8480    6.3430  -37.5390 O.2    77  ASP77      -0.2715
     34  CB        52.2700    6.9890  -39.5030 C.3    77  ASP77       0.1450
     35  CG        52.5060    6.5050  -40.9290 C.2    77  ASP77       0.3671
     36  OD1       52.0140    5.3930  -41.2810 O.co2  77  ASP77      -0.2456
     37  OD2       53.1630    7.2470  -41.6950 O.co2  77  ASP77      -0.2456
     38  N         50.6840    8.3500  -37.0540 N.am   78  GLN78      -0.1963
     39  CA        50.2240    8.3180  -35.6760 C.3    78  GLN78       0.1733
     40  C         48.8560    8.9900  -35.5380 C.2    78  GLN78       0.2616
     41  O         48.3000    9.0110  -34.4600 O.2    78  GLN78      -0.2715
     42  CB        51.2430    9.0060  -34.7560 C.3    78  GLN78       0.0408
     43  CG        52.5800    8.2750  -34.6410 C.3    78  GLN78       0.0908
     44  CD        53.7140    9.1740  -34.0810 C.2    78  GLN78       0.2608
     45  OE1       54.8880    8.7710  -34.0450 O.2    78  GLN78      -0.2717
     46  NE2       53.3620   10.3930  -33.6570 N.am   78  GLN78      -0.0878
     47  N         48.3270    9.5460  -36.6180 N.am   79  ASP79      -0.1971
     48  CA        47.0730   10.2830  -36.5700 C.3    79  ASP79       0.1709
     49  C         47.1650   11.4610  -35.5990 C.2    79  ASP79       0.2293
     50  O         46.2830   11.6540  -34.8010 O.2    79  ASP79      -0.2864
     51  CB        45.9130    9.3380  -36.1890 C.3    79  ASP79       0.1436
     52  CG        44.5680    9.9530  -36.4160 C.2    79  ASP79       0.3671
     53  OD1       44.4860   10.9370  -37.1720 O.co2  79  ASP79      -0.2456
     54  OD2       43.5800    9.4810  -35.8190 O.co2  79  ASP79      -0.2456
     55  N         41.7680    8.4160  -30.1200 N.3   153  ARG153     -0.1245
     56  CA        41.5530    8.5480  -31.5650 C.3   153  ARG153      0.1563
     57  C         40.5490    7.5830  -32.1880 C.2   153  ARG153      0.2260
     58  O         39.9550    7.9070  -33.2040 O.2   153  ARG153     -0.2867
     59  CB        42.8680    8.5360  -32.3370 C.3   153  ARG153      0.0307
     60  CG        43.6940    7.3090  -32.1790 C.3   153  ARG153      0.0489
     61  CD        44.7180    7.1920  -33.3080 C.3   153  ARG153      0.2205
     62  NE        44.7170    5.8210  -33.7840 N.pl3 153  ARG153     -0.0865
     63  CZ        43.9620    5.3490  -34.7720 C.cat 153  ARG153      0.5346
     64  NH1       43.1760    6.1310  -35.5040 N.pl3 153  ARG153      0.1354
     65  NH2       44.0290    4.0630  -35.0540 N.pl3 153  ARG153      0.1354
     66  N         44.3850    9.6220  -46.7120 N.3   483  MET483     -0.1230
     67  CA        43.6200    8.5830  -46.0350 C.3   483  MET483      0.1702
     68  C         42.7170    7.9140  -47.0420 C.2   483  MET483      0.2592
     69  O         42.3510    8.4980  -48.0510 O.2   483  MET483     -0.2718
     70  CB        42.7800    9.1660  -44.9130 C.3   483  MET483      0.0401
     71  CG        43.6080    9.8840  -43.8450 C.3   483  MET483      0.0596
     72  SD        42.5920   10.6510  -42.5570 S.3   483  MET483     -0.1393
     73  CE        41.6570   11.8480  -43.5140 C.3   483  MET483      0.0692
     74  N         42.3710    6.6740  -46.7710 N.am  484  PHE484     -0.1976
     75  CA        41.4310    5.9670  -47.6160 C.3   484  PHE484      0.1639
     76  C         40.5570    5.0370  -46.7970 C.2   484  PHE484      0.2290
     77  O         40.8540    4.7460  -45.6560 O.2   484  PHE484     -0.2864
     78  CB        42.1460    5.2400  -48.7430 C.3   484  PHE484      0.0560
     79  CG        43.1250    4.1890  -48.2940 C.ar  484  PHE484     -0.0200
     80  CD1       42.7290    2.8750  -48.1360 C.ar  484  PHE484     -0.0042
     81  CD2       44.4450    4.4910  -48.1150 C.ar  484  PHE484     -0.0042
     82  CE1       43.6550    1.8770  -47.7830 C.ar  484  PHE484     -0.0003
     83  CE2       45.3880    3.4930  -47.7340 C.ar  484  PHE484     -0.0003
     84  CZ        44.9950    2.2020  -47.5780 C.ar  484  PHE484     -0.0000
     85  N         47.0040    6.1710  -45.2990 N.3   522  VAL522     -0.1231
     86  CA        46.6460    5.3380  -44.1760 C.3   522  VAL522      0.1692
     87  C         45.1900    4.9750  -44.1610 C.2   522  VAL522      0.2592
     88  O         44.3420    5.6300  -44.7970 O.2   522  VAL522     -0.2718
     89  CB        47.0480    5.9550  -42.8430 C.3   522  VAL522      0.0266
     90  CG1       48.5780    6.0850  -42.7960 C.3   522  VAL522      0.0020
     91  CG2       46.3120    7.2890  -42.5880 C.3   522  VAL522      0.0020
     92  N         44.9250    3.8930  -43.4380 N.am  523  CYS523     -0.1956
     93  CA        43.6040    3.3140  -43.3790 C.3   523  CYS523      0.1843
     94  C         43.3630    2.5640  -42.0500 C.2   523  CYS523      0.2625
     95  O         44.2920    2.1460  -41.3850 O.2   523  CYS523     -0.2714
     96  CB        43.4470    2.3550  -44.5510 C.3   523  CYS523      0.0997
     97  SG        41.8150    1.6220  -44.7020 S.3   523  CYS523     -0.0797
     98  N         42.1050    2.3970  -41.6680 N.am  524  GLN524     -0.1963
     99  CA        41.7850    1.5810  -40.5010 C.3   524  GLN524      0.1733
    100  C         42.2740    0.1460  -40.7010 C.2   524  GLN524      0.2616
    101  O         42.1520   -0.4260  -41.8000 O.2   524  GLN524     -0.2715
    102  CB        40.2710    1.6070  -40.2750 C.3   524  GLN524      0.0408
    103  CG        39.7930    2.9100  -39.6870 C.3   524  GLN524      0.0908
    104  CD        40.5310    3.2100  -38.4200 C.2   524  GLN524      0.2608
    105  OE1       41.2960    4.1710  -38.3360 O.2   524  GLN524     -0.2717
    106  NE2       40.3570    2.3530  -37.4380 N.am  524  GLN524     -0.0878
    107  N         42.8480   -0.4530  -39.6690 N.am  525  ASP525     -0.1971
    108  CA        43.3540   -1.8150  -39.8540 C.3   525  ASP525      0.1709
    109  C         42.2230   -2.8360  -39.7060 C.2   525  ASP525      0.2293
    110  O         41.8600   -3.2180  -38.5810 O.2   525  ASP525     -0.2864
    111  CB        44.4870   -2.1460  -38.8930 C.3   525  ASP525      0.1436
    112  CG        44.9500   -3.5890  -39.0270 C.2   525  ASP525      0.3671
    113  OD1       44.3480   -4.3670  -39.8110 O.co2 525  ASP525     -0.2456
    114  OD2       45.8970   -3.9670  -38.3170 O.co2 525  ASP525     -0.2456
    115  N         36.9870    5.2590  -36.3880 N.3   628  VAL628     -0.1245
    116  CA        37.3080    6.5820  -35.8680 C.3   628  VAL628      0.1561
    117  C         36.0780    7.2110  -35.2620 C.2   628  VAL628      0.2260
    118  O         34.9460    6.9490  -35.6750 O.2   628  VAL628     -0.2867
    119  CB        37.8900    7.5810  -36.9260 C.3   628  VAL628      0.0252
    120  CG1       39.2250    7.0560  -37.4910 C.3   628  VAL628      0.0019
    121  CG2       36.8420    7.9010  -38.0190 C.3   628  VAL628      0.0019
@<TRIPOS>BOND
     1    78    79    1
     2    78    75    1
     3    79    80   ar
     4    79    81   ar
     5    80    82   ar
     6    81    83   ar
     7    69    68    2
     8    82    84   ar
     9    83    84   ar
    10    75    76    1
    11    75    74    1
    12    68    74   am
    13    68    67    1
    14    76    77    2
    15    66    67    1
    16    67    70    1
    17    85    86    1
    18    70    71    1
    19    88    87    2
    20    97    96    1
    21    96    93    1
    22    12    11    1
    23    86    87    1
    24    86    89    1
    25    87    92   am
    26    71    72    1
    27    73    72    1
    28    92    93    1
    29    93    94    1
    30    11    10   ar
    31    11     9   ar
    32    89    90    1
    33    89    91    1
    34    10     8   ar
    35    29    27    1
    36    28    27    1
    37     9     7   ar
    38    94    98   am
    39    94    95    2
    40    27    24    1
    41   101   100    2
    42    37    35   ar
    43    98    99    1
    44    36    35   ar
    45     8     6   ar
    46    35    34    1
    47     7     6   ar
    48   100    99    1
    49   100   107   am
    50    24    23    1
    51    24    25    1
    52    99   102    1
    53     6     5    1
    54   102   103    1
    55    25    30   am
    56    25    26    2
    57    16    15    2
    58   108   109    1
    59   108   107    1
    60   108   111    1
    61    30    31    1
    62   113   112   ar
    63     4     3    2
    64   109   110    2
    65   103   104    1
    66    34    31    1
    67    31    32    1
    68    14    15    1
    69    14    17    1
    70    14    13    1
    71    17    18    1
    72   112   111    1
    73   112   114   ar
    74     3    13   am
    75     3     2    1
    76     5     2    1
    77   104   105    2
    78   104   106   am
    79     2     1    1
    80   121   119    1
    81    32    33    2
    82    32    38   am
    83    18    20   ar
    84    18    19   ar
    85   120   119    1
    86    53    52   ar
    87    20    22   ar
    88    38    39    1
    89   119   116    1
    90    19    21   ar
    91    47    48    1
    92    47    40   am
    93    48    51    1
    94    48    49    1
    95    52    51    1
    96    52    54   ar
    97   115   116    1
    98   116   117    1
    99    22    21   ar
   100    39    40    1
   101    39    42    1
   102   118   117    2
   103    49    50    2
   104    40    41    2
   105    64    63    1
   106    65    63    1
   107    63    62    2
   108    42    43    1
   109    43    44    1
   110    44    45    2
   111    44    46   am
   112    62    61    1
   113    61    60    1
   114    58    57    2
   115    59    60    1
   116    59    56    1
   117    57    56    1
   118    56    55    1
