@<TRIPOS>MOLECULE
tmp/4b6fA00.pdb
 136 132 0 0 0
SMALL
GASTEIGER

@<TRIPOS>ATOM
      1  N          5.9340   22.1780  -43.2620 N.3    54  TYR54      -0.1227
      2  CA         5.9800   22.6130  -41.8740 C.3    54  TYR54       0.1736
      3  C          7.1060   21.9000  -41.1320 C.2    54  TYR54       0.2595
      4  O          7.8150   22.5170  -40.3240 O.2    54  TYR54      -0.2718
      5  CB         4.6300   22.3950  -41.1890 C.3    54  TYR54       0.0548
      6  CG         4.6400   22.7620  -39.7320 C.ar   54  TYR54      -0.0200
      7  CD1        4.6920   24.0830  -39.3370 C.ar   54  TYR54      -0.0009
      8  CD2        4.6390   21.7860  -38.7430 C.ar   54  TYR54      -0.0009
      9  CE1        4.7330   24.4330  -37.9760 C.ar   54  TYR54       0.0417
     10  CE2        4.6840   22.1240  -37.3920 C.ar   54  TYR54       0.0417
     11  CZ         4.7230   23.4480  -37.0190 C.ar   54  TYR54       0.1957
     12  OH         4.7470   23.8010  -35.6960 O.3    54  TYR54      -0.2866
     13  N          7.3060   20.6160  -41.4330 N.am   55  HIS55      -0.1975
     14  CA         8.3640   19.8450  -40.7590 C.3    55  HIS55       0.1656
     15  C          9.7830   20.3850  -40.9750 C.2    55  HIS55       0.2291
     16  O         10.6750   20.1630  -40.1440 O.2    55  HIS55      -0.2864
     17  CB         8.2760   18.3390  -41.0720 C.3    55  HIS55       0.0771
     18  CG         8.6260   17.9620  -42.4770 C.ar   55  HIS55       0.0820
     19  ND1        9.9250   17.9180  -42.9370 N.ar   55  HIS55      -0.2267
     20  CD2        7.8530   17.5280  -43.5030 C.ar   55  HIS55       0.1154
     21  CE1        9.9310   17.5170  -44.1990 C.ar   55  HIS55       0.1986
     22  NE2        8.6850   17.2700  -44.5650 N.ar   55  HIS55      -0.2212
     23  N         -0.5260   22.9860  -40.1000 N.3    76  VAL76      -0.1231
     24  CA         0.2170   21.8370  -39.5830 C.3    76  VAL76       0.1692
     25  C         -0.4020   20.4660  -39.9440 C.2    76  VAL76       0.2592
     26  O          0.2770   19.4580  -39.8350 O.2    76  VAL76      -0.2718
     27  CB         0.4220   21.9180  -38.0630 C.3    76  VAL76       0.0266
     28  CG1        1.0950   20.6460  -37.5520 C.3    76  VAL76       0.0020
     29  CG2        1.2490   23.1300  -37.7040 C.3    76  VAL76       0.0020
     30  N         -1.6680   20.4280  -40.3690 N.am   77  ASP77      -0.1960
     31  CA        -2.3320   19.1620  -40.7440 C.3    77  ASP77       0.1840
     32  C         -1.8940   18.6920  -42.1260 C.2    77  ASP77       0.2622
     33  O         -1.5980   17.5150  -42.3230 O.2    77  ASP77      -0.2715
     34  CB        -3.8680   19.2930  -40.7010 C.3    77  ASP77       0.1450
     35  CG        -4.4290   19.3600  -39.2600 C.2    77  ASP77       0.3671
     36  OD1       -4.3020   18.3550  -38.5050 O.co2  77  ASP77      -0.2456
     37  OD2       -5.0160   20.4150  -38.8880 O.co2  77  ASP77      -0.2456
     38  N         -1.8560   19.6290  -43.0720 N.am   78  GLN78      -0.1963
     39  CA        -1.3690   19.3700  -44.4270 C.3    78  GLN78       0.1733
     40  C          0.1650   19.3390  -44.5090 C.2    78  GLN78       0.2616
     41  O          0.7200   18.9100  -45.5080 O.2    78  GLN78      -0.2715
     42  CB        -1.9200   20.4350  -45.3780 C.3    78  GLN78       0.0408
     43  CG        -3.4480   20.5150  -45.4350 C.3    78  GLN78       0.0908
     44  CD        -4.1050   19.2210  -45.9390 C.2    78  GLN78       0.2608
     45  OE1       -3.9710   18.8510  -47.1190 O.2    78  GLN78      -0.2717
     46  NE2       -4.8350   18.5360  -45.0420 N.am   78  GLN78      -0.0878
     47  N          0.8280   19.7770  -43.4400 N.am   79  ASP79      -0.1971
     48  CA         2.2860   19.9470  -43.3790 C.3    79  ASP79       0.1709
     49  C          2.7280   21.0140  -44.3560 C.2    79  ASP79       0.2293
     50  O          3.6510   20.8060  -45.1350 O.2    79  ASP79      -0.2864
     51  CB         3.0210   18.6360  -43.6570 C.3    79  ASP79       0.1436
     52  CG         4.4980   18.6720  -43.2570 C.2    79  ASP79       0.3671
     53  OD1        4.9170   19.4680  -42.3900 O.co2  79  ASP79      -0.2456
     54  OD2        5.2540   17.8730  -43.8270 O.co2  79  ASP79      -0.2456
     55  N          6.0840   16.2820  -49.8900 N.3   153  ARG153     -0.1245
     56  CA         6.3100   16.2880  -48.4430 C.3   153  ARG153      0.1563
     57  C          6.9180   15.0160  -47.8580 C.2   153  ARG153      0.2260
     58  O          7.7240   15.0990  -46.9550 O.2   153  ARG153     -0.2867
     59  CB         5.0530   16.7060  -47.6740 C.3   153  ARG153      0.0307
     60  CG         3.7920   15.9220  -47.9980 C.3   153  ARG153      0.0489
     61  CD         2.7220   16.1280  -46.9210 C.3   153  ARG153      0.2205
     62  NE         3.1380   15.4730  -45.6890 N.pl3 153  ARG153     -0.0865
     63  CZ         2.8630   14.2110  -45.3660 C.cat 153  ARG153      0.5346
     64  NH1        2.1190   13.4400  -46.1680 N.pl3 153  ARG153      0.1354
     65  NH2        3.3230   13.7190  -44.2140 N.pl3 153  ARG153      0.1354
     66  N          4.2460   18.2400  -33.6640 N.3   483  MET483     -0.1230
     67  CA         4.6670   17.0190  -34.3420 C.3   483  MET483      0.1702
     68  C          5.1730   16.0150  -33.3240 C.2   483  MET483      0.2592
     69  O          5.9250   16.3630  -32.4270 O.2   483  MET483     -0.2718
     70  CB         5.8070   17.3360  -35.2980 C.3   483  MET483      0.0401
     71  CG         5.4270   18.1430  -36.5210 C.3   483  MET483      0.0596
     72  SD         6.8850   18.5860  -37.5130 S.3   483  MET483     -0.1393
     73  CE         7.6370   19.9030  -36.5190 C.3   483  MET483      0.0692
     74  N          4.7840   14.7630  -33.4430 N.am  484  PHE484     -0.1962
     75  CA         5.3900   13.7690  -32.5810 C.3   484  PHE484      0.1771
     76  C          5.8790   12.5540  -33.3620 C.2   484  PHE484      0.2620
     77  O          5.4190   12.2640  -34.4690 O.2   484  PHE484     -0.2715
     78  CB         4.4630   13.3780  -31.4130 C.3   484  PHE484      0.0574
     79  CG         3.1260   12.8680  -31.8350 C.ar  484  PHE484     -0.0200
     80  CD1        2.9550   11.5520  -32.1820 C.ar  484  PHE484     -0.0042
     81  CD2        2.0370   13.6980  -31.8720 C.ar  484  PHE484     -0.0042
     82  CE1        1.7200   11.0680  -32.5730 C.ar  484  PHE484     -0.0003
     83  CE2        0.7930   13.2210  -32.2680 C.ar  484  PHE484     -0.0003
     84  CZ         0.6420   11.9010  -32.6250 C.ar  484  PHE484     -0.0000
     85  N          6.8170   11.8460  -32.7440 N.am  485  ASP485     -0.1957
     86  CA         7.4670   10.7270  -33.3700 C.3   485  ASP485      0.1840
     87  C          6.5830    9.4650  -33.4260 C.2   485  ASP485      0.2622
     88  O          5.6920    9.2530  -32.5790 O.2   485  ASP485     -0.2715
     89  CB         8.7710   10.4160  -32.6440 C.3   485  ASP485      0.1450
     90  CG         9.7180    9.6120  -33.5000 C.2   485  ASP485      0.3671
     91  OD1       10.4310   10.2220  -34.3210 O.co2 485  ASP485     -0.2456
     92  OD2        9.7360    8.3660  -33.3740 O.co2 485  ASP485     -0.2456
     93  N          6.8720    8.6330  -34.4350 N.am  486  SER486     -0.1950
     94  CA         6.2830    7.3040  -34.6220 C.3   486  SER486      0.1924
     95  C          6.3620    6.3990  -33.3790 C.2   486  SER486      0.2314
     96  O          5.5020    5.5290  -33.1750 O.2   486  SER486     -0.2863
     97  CB         7.0000    6.6310  -35.7790 C.3   486  SER486      0.2116
     98  OG         6.3760    5.4300  -36.1740 O.3   486  SER486     -0.2180
     99  N          0.3390   16.3700  -35.1130 N.3   522  VAL522     -0.1231
    100  CA         0.3480   15.5200  -36.2870 C.3   522  VAL522      0.1692
    101  C          1.4500   14.5210  -36.1930 C.2   522  VAL522      0.2592
    102  O          2.2970   14.5910  -35.3000 O.2   522  VAL522     -0.2718
    103  CB         0.5400   16.3120  -37.5660 C.3   522  VAL522      0.0266
    104  CG1       -0.7200   17.1290  -37.8650 C.3   522  VAL522      0.0020
    105  CG2        1.8150   17.1530  -37.4750 C.3   522  VAL522      0.0020
    106  N          1.4390   13.5970  -37.1460 N.am  523  CYS523     -0.1956
    107  CA         2.1690   12.3750  -37.0000 C.3   523  CYS523      0.1843
    108  C          2.3070   11.5560  -38.2510 C.2   523  CYS523      0.2625
    109  O          1.3120   11.2320  -38.8840 O.2   523  CYS523     -0.2714
    110  CB         1.3810   11.5240  -36.0480 C.3   523  CYS523      0.0997
    111  SG         2.2890   10.1540  -35.6640 S.3   523  CYS523     -0.0797
    112  N          3.5210   11.1490  -38.5820 N.am  524  GLN524     -0.1977
    113  CA         3.6970   10.1550  -39.6320 C.3   524  GLN524      0.1601
    114  C          2.7000    9.0090  -39.3870 C.2   524  GLN524      0.2287
    115  O          2.7060    8.3900  -38.3260 O.2   524  GLN524     -0.2864
    116  CB         5.1390    9.6360  -39.6280 C.3   524  GLN524      0.0394
    117  CG         6.1880   10.6580  -40.1190 C.3   524  GLN524      0.0908
    118  CD         5.9050   11.1510  -41.5520 C.2   524  GLN524      0.2608
    119  OE1        5.6060   10.3570  -42.4480 O.2   524  GLN524     -0.2717
    120  NE2        5.9930   12.4620  -41.7630 N.am  524  GLN524     -0.0878
    121  N          5.6110    5.8070  -44.4900 N.3   626  GLU626     -0.1245
    122  CA         5.7750    7.1910  -44.9020 C.3   626  GLU626      0.1567
    123  C          6.9240    7.7710  -44.0980 C.2   626  GLU626      0.2260
    124  O          6.8790    7.7380  -42.8840 O.2   626  GLU626     -0.2867
    125  CB         4.4840    7.9430  -44.5950 C.3   626  GLU626      0.0388
    126  CG         4.3330    9.3150  -45.2240 C.3   626  GLU626      0.1160
    127  CD         2.9670    9.9390  -44.9080 C.2   626  GLU626      0.3649
    128  OE1        2.7230   10.3280  -43.7330 O.co2 626  GLU626     -0.2457
    129  OE2        2.1360   10.0280  -45.8470 O.co2 626  GLU626     -0.2457
    130  N          9.5550   11.1870  -43.5110 N.3   628  VAL628     -0.1245
    131  CA         9.8250   12.5760  -43.8840 C.3   628  VAL628      0.1561
    132  C         11.1790   12.5800  -44.5470 C.2   628  VAL628      0.2260
    133  O         12.0920   11.8620  -44.1360 O.2   628  VAL628     -0.2867
    134  CB         9.8030   13.6150  -42.7170 C.3   628  VAL628      0.0252
    135  CG1        8.4260   13.7270  -42.1090 C.3   628  VAL628      0.0019
    136  CG2       10.8650   13.3120  -41.6590 C.3   628  VAL628      0.0019
@<TRIPOS>BOND
     1    55    56    1
     2    56    57    1
     3    56    59    1
     4    60    59    1
     5    60    61    1
     6    57    58    2
     7    45    44    2
     8    61    62    1
     9    64    63    1
    10    44    43    1
    11    44    46   am
    12   129   127   ar
    13    62    63    2
    14    41    40    2
    15    43    42    1
    16    42    39    1
    17    63    65    1
    18   126   127    1
    19   126   125    1
    20    50    49    2
    21   127   128   ar
    22   122   125    1
    23   122   121    1
    24   122   123    1
    25    22    21   ar
    26    22    20   ar
    27   132   133    2
    28   132   131    1
    29    40    39    1
    30    40    47   am
    31    39    38    1
    32    49    48    1
    33    21    19   ar
    34   123   124    2
    35   131   130    1
    36   131   134    1
    37    54    52   ar
    38    51    48    1
    39    51    52    1
    40    20    18   ar
    41    47    48    1
    42     1     2    1
    43    52    53   ar
    44    38    32   am
    45    19    18   ar
    46   134   135    1
    47   134   136    1
    48    18    17    1
    49   119   118    2
    50    33    32    2
    51    32    31    1
    52     2     5    1
    53     2     3    1
    54   120   118   am
    55   118   117    1
    56    13     3   am
    57    13    14    1
    58     5     6    1
    59     3     4    2
    60    17    14    1
    61    15    14    1
    62    15    16    2
    63    31    34    1
    64    31    30    1
    65    34    35    1
    66    30    25   am
    67   117   116    1
    68    23    24    1
    69    25    26    2
    70    25    24    1
    71     6     7   ar
    72     6     8   ar
    73   113   116    1
    74   113   114    1
    75   113   112    1
    76    24    27    1
    77   114   115    2
    78     7     9   ar
    79    35    37   ar
    80    35    36   ar
    81   109   108    2
    82     8    10   ar
    83   112   108   am
    84   108   107    1
    85    27    29    1
    86    27    28    1
    87     9    11   ar
    88   104   103    1
    89   103   105    1
    90   103   100    1
    91    72    71    1
    92    72    73    1
    93    10    11   ar
    94   106   107    1
    95   106   101   am
    96    11    12    1
    97   107   110    1
    98    71    70    1
    99   100   101    1
   100   100    99    1
   101   101   102    2
   102    98    97    1
   103   110   111    1
   104    97    94    1
   105    70    67    1
   106    94    93    1
   107    94    95    1
   108    77    76    2
   109    93    87   am
   110    67    66    1
   111    67    68    1
   112    91    90   ar
   113    90    92   ar
   114    90    89    1
   115    74    68   am
   116    74    75    1
   117    87    86    1
   118    87    88    2
   119    95    96    2
   120    86    85    1
   121    86    89    1
   122    76    85   am
   123    76    75    1
   124    68    69    2
   125    84    82   ar
   126    84    83   ar
   127    75    78    1
   128    82    80   ar
   129    83    81   ar
   130    80    79   ar
   131    81    79   ar
   132    79    78    1
