@<TRIPOS>MOLECULE
tmp/4b6hB00.pdb
 167 165 0 0 0
SMALL
GASTEIGER

@<TRIPOS>ATOM
      1  N        -10.4430  -55.1580   39.5120 N.3    16  TYR16      -0.1241
      2  CA        -9.0030  -55.1580   39.7640 C.3    16  TYR16       0.1605
      3  C         -8.2330  -54.9260   38.4650 C.2    16  TYR16       0.2264
      4  O         -8.6320  -55.3920   37.3960 O.2    16  TYR16      -0.2867
      5  CB        -8.5360  -56.4980   40.3210 C.3    16  TYR16       0.0534
      6  CG        -9.1620  -56.9340   41.6190 C.ar   16  TYR16      -0.0201
      7  CD1      -10.4690  -57.4100   41.6600 C.ar   16  TYR16      -0.0009
      8  CD2       -8.4350  -56.9100   42.8020 C.ar   16  TYR16      -0.0009
      9  CE1      -11.0410  -57.8280   42.8460 C.ar   16  TYR16       0.0417
     10  CE2       -8.9960  -57.3260   43.9940 C.ar   16  TYR16       0.0417
     11  CZ       -10.2960  -57.7850   44.0100 C.ar   16  TYR16       0.1957
     12  OH       -10.8570  -58.2000   45.1980 O.3    16  TYR16      -0.2866
     13  N         -4.2840  -55.2950   36.6670 N.3    18  PHE18      -0.1241
     14  CA        -2.9980  -55.9560   36.8120 C.3    18  PHE18       0.1605
     15  C         -1.8670  -54.9710   36.5940 C.2    18  PHE18       0.2264
     16  O         -1.9200  -54.1500   35.6800 O.2    18  PHE18      -0.2867
     17  CB        -2.8670  -57.1030   35.8170 C.3    18  PHE18       0.0534
     18  CG        -1.6060  -57.9020   35.9840 C.ar   18  PHE18      -0.0203
     19  CD1       -0.4390  -57.5290   35.3330 C.ar   18  PHE18      -0.0042
     20  CD2       -1.5900  -59.0290   36.8010 C.ar   18  PHE18      -0.0042
     21  CE1        0.7180  -58.2730   35.4860 C.ar   18  PHE18      -0.0003
     22  CE2       -0.4320  -59.7800   36.9690 C.ar   18  PHE18      -0.0003
     23  CZ         0.7250  -59.4030   36.3080 C.ar   18  PHE18      -0.0000
     24  N          1.7300  -57.5360   39.8140 N.3    21  GLN21      -0.1231
     25  CA         0.6670  -58.1690   40.5800 C.3    21  GLN21       0.1698
     26  C         -0.6520  -57.4190   40.4210 C.2    21  GLN21       0.2592
     27  O         -0.7320  -56.4050   39.7180 O.2    21  GLN21      -0.2718
     28  CB         1.0460  -58.2750   42.0610 C.3    21  GLN21       0.0381
     29  CG         0.8940  -56.9870   42.8700 C.3    21  GLN21       0.0905
     30  CD         2.0040  -55.9830   42.6180 C.2    21  GLN21       0.2608
     31  OE1        2.5970  -55.4420   43.5580 O.2    21  GLN21      -0.2717
     32  NE2        2.2840  -55.7150   41.3480 N.am   21  GLN21      -0.0878
     33  N         -1.6880  -57.9310   41.0750 N.am   22  TRP22      -0.1962
     34  CA        -3.0060  -57.3310   40.9880 C.3    22  TRP22       0.1771
     35  C         -3.1480  -56.1970   41.9810 C.2    22  TRP22       0.2620
     36  O         -2.4200  -56.1240   42.9670 O.2    22  TRP22      -0.2715
     37  CB        -4.0840  -58.3830   41.2300 C.3    22  TRP22       0.0590
     38  CG        -4.2220  -59.3470   40.0990 C.ar   22  TRP22       0.0006
     39  CD1       -3.7520  -60.6340   40.0560 C.ar   22  TRP22       0.0946
     40  CD2       -4.8690  -59.1060   38.8300 C.ar   22  TRP22       0.0152
     41  NE1       -4.0720  -61.2060   38.8420 N.ar   22  TRP22      -0.2442
     42  CE2       -4.7530  -60.2910   38.0750 C.ar   22  TRP22       0.0810
     43  CE3       -5.5380  -58.0140   38.2750 C.ar   22  TRP22       0.0012
     44  CZ2       -5.2870  -60.4210   36.8010 C.ar   22  TRP22       0.0191
     45  CZ3       -6.0690  -58.1330   36.9750 C.ar   22  TRP22       0.0001
     46  CH2       -5.9350  -59.3310   36.2540 C.ar   22  TRP22       0.0015
     47  N         -4.0970  -55.3100   41.7130 N.am   23  GLU23      -0.1963
     48  CA        -4.2810  -54.1320   42.5360 C.3    23  GLU23       0.1733
     49  C         -5.7440  -53.7090   42.5240 C.2    23  GLU23       0.2616
     50  O         -6.3770  -53.6860   41.4720 O.2    23  GLU23      -0.2715
     51  CB        -3.3930  -53.0100   42.0150 C.3    23  GLU23       0.0429
     52  CG        -3.7170  -51.6540   42.5700 C.3    23  GLU23       0.1163
     53  CD        -3.0930  -50.5590   41.7460 C.2    23  GLU23       0.3649
     54  OE1       -1.9470  -50.7510   41.2800 O.co2  23  GLU23      -0.2457
     55  OE2       -3.7530  -49.5180   41.5470 O.co2  23  GLU23      -0.2457
     56  N         -6.2780  -53.3950   43.7020 N.am   24  LYS24      -0.1977
     57  CA        -7.6530  -52.9250   43.8200 C.3    24  LYS24       0.1596
     58  C         -7.8280  -51.6020   43.0800 C.2    24  LYS24       0.2287
     59  O         -6.8750  -50.8370   42.9060 O.2    24  LYS24      -0.2864
     60  CB        -8.0230  -52.7060   45.2870 C.3    24  LYS24       0.0298
     61  CG        -7.4670  -51.3930   45.8450 C.3    24  LYS24       0.0038
     62  CD        -7.9720  -51.0720   47.2450 C.3    24  LYS24       0.0206
     63  CE        -7.7380  -49.6030   47.5770 C.3    24  LYS24       0.1093
     64  NZ        -8.6040  -48.6970   46.7670 N.3    24  LYS24      -0.1314
     65  N        -10.3960  -58.7850   24.8140 N.3    61  GLU61      -0.1231
     66  CA       -10.2260  -60.2120   24.9920 C.3    61  GLU61       0.1699
     67  C        -10.3840  -60.6450   26.4460 C.2    61  GLU61       0.2592
     68  O        -10.0110  -59.9280   27.3740 O.2    61  GLU61      -0.2718
     69  CB        -8.9160  -60.7040   24.3870 C.3    61  GLU61       0.0402
     70  CG        -7.7070  -60.5230   25.2490 C.3    61  GLU61       0.1161
     71  CD        -6.4400  -60.7820   24.4700 C.2    61  GLU61       0.3649
     72  OE1       -6.0650  -59.9180   23.6560 O.co2  61  GLU61      -0.2457
     73  OE2       -5.8270  -61.8490   24.6500 O.co2  61  GLU61      -0.2457
     74  N        -10.9400  -61.8350   26.6290 N.am   62  PHE62      -0.1962
     75  CA       -11.3180  -62.3090   27.9500 C.3    62  PHE62       0.1771
     76  C        -10.5700  -63.5530   28.3810 C.2    62  PHE62       0.2619
     77  O        -10.1080  -64.3440   27.5580 O.2    62  PHE62      -0.2715
     78  CB       -12.8100  -62.6170   27.9610 C.3    62  PHE62       0.0574
     79  CG       -13.6690  -61.4060   27.9430 C.ar   62  PHE62      -0.0200
     80  CD1      -13.7340  -60.5880   29.0510 C.ar   62  PHE62      -0.0042
     81  CD2      -14.4050  -61.0720   26.8200 C.ar   62  PHE62      -0.0042
     82  CE1      -14.5320  -59.4560   29.0530 C.ar   62  PHE62      -0.0003
     83  CE2      -15.2060  -59.9350   26.8150 C.ar   62  PHE62      -0.0003
     84  CZ       -15.2690  -59.1300   27.9350 C.ar   62  PHE62      -0.0000
     85  N        -10.4510  -63.7160   29.6860 N.am   63  GLN63      -0.1977
     86  CA       -10.1080  -65.0050   30.2490 C.3    63  GLN63       0.1601
     87  C        -10.8810  -65.2990   31.5320 C.2    63  GLN63       0.2287
     88  O        -10.7420  -64.6200   32.5530 O.2    63  GLN63      -0.2864
     89  CB        -8.6270  -65.1470   30.5110 C.3    63  GLN63       0.0394
     90  CG        -8.3890  -66.2740   31.4960 C.3    63  GLN63       0.0908
     91  CD        -7.3770  -67.2580   31.0150 C.2    63  GLN63       0.2608
     92  OE1       -6.2740  -67.3640   31.5740 O.2    63  GLN63      -0.2717
     93  NE2       -7.7380  -68.0040   29.9740 N.am   63  GLN63      -0.0878
     94  N        -11.6650  -67.0440   34.7910 N.3    65  HIS65      -0.1241
     95  CA       -11.1980  -67.8290   35.9280 C.3    65  HIS65       0.1621
     96  C        -12.1630  -67.6510   37.1050 C.2    65  HIS65       0.2264
     97  O        -11.8610  -66.9310   38.0620 O.2    65  HIS65      -0.2867
     98  CB        -9.7850  -67.4150   36.3410 C.3    65  HIS65       0.0745
     99  CG        -8.6980  -68.1410   35.6090 C.ar   65  HIS65       0.0817
    100  ND1       -8.5180  -69.5040   35.7020 N.ar   65  HIS65      -0.2268
    101  CD2       -7.7180  -67.6850   34.7940 C.ar   65  HIS65       0.1154
    102  CE1       -7.4820  -69.8590   34.9640 C.ar   65  HIS65       0.1986
    103  NE2       -6.9770  -68.7740   34.4030 N.ar   65  HIS65      -0.2212
    104  N        -13.6040  -64.9740   38.8550 N.3    68  PHE68      -0.1241
    105  CA       -12.9590  -63.8140   38.2480 C.3    68  PHE68       0.1605
    106  C        -13.1010  -63.8190   36.7350 C.2    68  PHE68       0.2264
    107  O        -13.0080  -64.8670   36.0960 O.2    68  PHE68      -0.2867
    108  CB       -11.4770  -63.7920   38.6060 C.3    68  PHE68       0.0534
    109  CG       -11.2180  -63.6390   40.0650 C.ar   68  PHE68      -0.0203
    110  CD1      -11.3070  -62.3950   40.6700 C.ar   68  PHE68      -0.0042
    111  CD2      -10.8810  -64.7330   40.8380 C.ar   68  PHE68      -0.0042
    112  CE1      -11.0730  -62.2520   42.0220 C.ar   68  PHE68      -0.0003
    113  CE2      -10.6450  -64.5940   42.1920 C.ar   68  PHE68      -0.0003
    114  CZ       -10.7410  -63.3550   42.7840 C.ar   68  PHE68      -0.0000
    115  N        -11.1950  -62.0720   33.6830 N.3    70  LEU70      -0.1231
    116  CA       -10.0780  -61.2610   33.2510 C.3    70  LEU70       0.1693
    117  C        -10.3190  -60.6820   31.8650 C.2    70  LEU70       0.2592
    118  O        -10.8950  -61.3380   31.0210 O.2    70  LEU70      -0.2718
    119  CB        -8.7880  -62.0870   33.2480 C.3    70  LEU70       0.0284
    120  CG        -8.1550  -62.2610   34.6210 C.3    70  LEU70       0.0019
    121  CD1       -8.7800  -63.4110   35.3100 C.3    70  LEU70       0.0001
    122  CD2       -6.6480  -62.4470   34.5140 C.3    70  LEU70       0.0001
    123  N         -9.8750  -59.4570   31.6220 N.am   71  TYR71      -0.1962
    124  CA        -9.9750  -58.9440   30.2740 C.3    71  TYR71       0.1771
    125  C         -8.9210  -57.9090   29.9560 C.2    71  TYR71       0.2619
    126  O         -8.3630  -57.2700   30.8400 O.2    71  TYR71      -0.2715
    127  CB       -11.3890  -58.4220   29.9720 C.3    71  TYR71       0.0574
    128  CG       -11.6770  -57.0370   30.4980 C.ar   71  TYR71      -0.0198
    129  CD1      -12.2120  -56.8490   31.7670 C.ar   71  TYR71      -0.0009
    130  CD2      -11.4270  -55.9160   29.7190 C.ar   71  TYR71      -0.0009
    131  CE1      -12.4670  -55.5840   32.2510 C.ar   71  TYR71       0.0417
    132  CE2      -11.6810  -54.6530   30.1910 C.ar   71  TYR71       0.0417
    133  CZ       -12.2010  -54.4920   31.4600 C.ar   71  TYR71       0.1957
    134  OH       -12.4730  -53.2270   31.9300 O.3    71  TYR71      -0.2866
    135  N         -8.6540  -57.7660   28.6660 N.am   72  ARG72      -0.1977
    136  CA        -7.6600  -56.8350   28.1630 C.3    72  ARG72       0.1597
    137  C         -8.3400  -56.0260   27.0640 C.2    72  ARG72       0.2287
    138  O         -9.1120  -56.5810   26.2740 O.2    72  ARG72      -0.2864
    139  CB        -6.4960  -57.6240   27.5710 C.3    72  ARG72       0.0334
    140  CG        -5.1550  -57.1780   28.0460 C.3    72  ARG72       0.0492
    141  CD        -4.1460  -57.2340   26.9260 C.3    72  ARG72       0.2205
    142  NE        -4.3520  -58.4000   26.0730 N.pl3  72  ARG72      -0.0865
    143  CZ        -3.3900  -58.9530   25.3430 C.cat  72  ARG72       0.5346
    144  NH1       -2.1530  -58.4530   25.3830 N.pl3  72  ARG72       0.1354
    145  NH2       -3.6660  -60.0110   24.5870 N.pl3  72  ARG72       0.1354
    146  N         -4.3810  -52.1230   26.0640 N.3    76  LEU76      -0.1245
    147  CA        -3.4810  -53.1690   26.5560 C.3    76  LEU76       0.1561
    148  C         -3.4360  -53.2520   28.0870 C.2    76  LEU76       0.2260
    149  O         -2.6670  -54.0410   28.6470 O.2    76  LEU76      -0.2867
    150  CB        -2.0530  -52.9890   26.0080 C.3    76  LEU76       0.0270
    151  CG        -1.8090  -53.2660   24.5200 C.3    76  LEU76       0.0019
    152  CD1       -0.3030  -53.3980   24.2240 C.3    76  LEU76       0.0001
    153  CD2       -2.5660  -54.5140   24.0930 C.3    76  LEU76       0.0001
    154  N         -4.7500  -54.3520   31.7820 N.3    78  ILE78      -0.1245
    155  CA        -5.3000  -55.6470   32.1890 C.3    78  ILE78       0.1561
    156  C         -6.1880  -55.5780   33.4410 C.2    78  ILE78       0.2260
    157  O         -5.8040  -54.9990   34.4510 O.2    78  ILE78      -0.2867
    158  CB        -4.1800  -56.6930   32.3870 C.3    78  ILE78       0.0252
    159  CG1       -3.2280  -56.6840   31.1810 C.3    78  ILE78       0.0019
    160  CG2       -4.7740  -58.0720   32.5650 C.3    78  ILE78       0.0019
    161  CD1       -2.2170  -57.8370   31.1640 C.3    78  ILE78       0.0001
    162  N         -9.5370  -57.3700   36.0950 N.3    80  SER80      -0.1217
    163  CA       -10.2350  -58.5290   36.6050 C.3    80  SER80       0.1889
    164  C        -11.5280  -58.0670   37.2740 C.2    80  SER80       0.2288
    165  O        -11.5110  -57.2220   38.1640 O.2    80  SER80      -0.2866
    166  CB        -9.3580  -59.2970   37.5970 C.3    80  SER80       0.2089
    167  OG        -9.7740  -60.6530   37.6860 O.3    80  SER80      -0.2183
@<TRIPOS>BOND
     1    72    71   ar
     2   153   151    1
     3   152   151    1
     4    69    66    1
     5    69    70    1
     6    71    73   ar
     7    71    70    1
     8   151   150    1
     9   145   143    1
    10    65    66    1
    11    66    67    1
    12   143   144    1
    13   143   142    2
    14   150   147    1
    15   146   147    1
    16   142   141    1
    17   138   137    2
    18    67    74   am
    19    67    68    2
    20   147   148    1
    21    74    75    1
    22    83    81   ar
    23    83    84   ar
    24    81    79   ar
    25   141   140    1
    26   137   136    1
    27    77    76    2
    28   139   140    1
    29   139   136    1
    30    84    82   ar
    31    79    78    1
    32    79    80   ar
    33    75    78    1
    34    75    76    1
    35   148   149    2
    36   136   135    1
    37    76    85   am
    38   135   125   am
    39    80    82   ar
    40    85    86    1
    41   130   132   ar
    42   130   128   ar
    43   125   124    1
    44   125   126    2
    45   127   124    1
    46   127   128    1
    47    93    91   am
    48   132   133   ar
    49    86    89    1
    50    86    87    1
    51   124   123    1
    52   128   129   ar
    53    89    90    1
    54    91    90    1
    55    91    92    2
    56   118   117    2
    57   161   159    1
    58   159   158    1
    59   133   134    1
    60   133   131   ar
    61    87    88    2
    62   123   117   am
    63   129   131   ar
    64   154   155    1
    65   117   116    1
    66   155   158    1
    67   155   156    1
    68   158   160    1
    69   119   116    1
    70   119   120    1
    71   116   115    1
    72   156   157    2
    73   103   101   ar
    74   103   102   ar
    75   122   120    1
    76   120   121    1
    77    94    95    1
    78   101    99   ar
    79   102   100   ar
    80    19    21   ar
    81    19    18   ar
    82    21    23   ar
    83    99   100   ar
    84    99    98    1
    85    16    15    2
    86    17    18    1
    87    17    14    1
    88    95    98    1
    89    95    96    1
    90    18    20   ar
    91   162   163    1
    92   107   106    2
    93    46    44   ar
    94    46    45   ar
    95    23    22   ar
    96    15    14    1
    97   163   164    1
    98   163   166    1
    99    13    14    1
   100   106   105    1
   101    20    22   ar
   102    44    42   ar
   103    45    43   ar
   104    96    97    2
   105   164   165    2
   106     4     3    2
   107   166   167    1
   108    42    40   ar
   109    42    41   ar
   110   105   108    1
   111   105   104    1
   112    43    40   ar
   113     3     2    1
   114   108   109    1
   115    40    38   ar
   116    41    39   ar
   117     1     2    1
   118    27    26    2
   119     2     5    1
   120    24    25    1
   121    39    38   ar
   122   109   110   ar
   123   109   111   ar
   124    38    37    1
   125     5     6    1
   126    26    25    1
   127    26    33   am
   128    25    28    1
   129   110   112   ar
   130   111   113   ar
   131    34    33    1
   132    34    37    1
   133    34    35    1
   134    54    53   ar
   135    32    30   am
   136    50    49    2
   137    55    53   ar
   138     6     7   ar
   139     6     8   ar
   140     7     9   ar
   141    47    35   am
   142    47    48    1
   143    53    52    1
   144    35    36    2
   145    51    48    1
   146    51    52    1
   147   112   114   ar
   148    28    29    1
   149   113   114   ar
   150    49    48    1
   151    49    56   am
   152    30    29    1
   153    30    31    2
   154     8    10   ar
   155     9    11   ar
   156    59    58    2
   157    58    57    1
   158    56    57    1
   159    57    60    1
   160    10    11   ar
   161    11    12    1
   162    60    61    1
   163    61    62    1
   164    64    63    1
   165    62    63    1
