@<TRIPOS>MOLECULE
tmp/4b6lA00.pdb
 165 155 0 0 0
SMALL
GASTEIGER

@<TRIPOS>ATOM
      1  N         56.5650  -12.0510  -15.5260 N.3    15  ARG15      -0.1231
      2  CA        57.5520  -12.1790  -14.4680 C.3    15  ARG15       0.1694
      3  C         56.9050  -12.0510  -13.0700 C.2    15  ARG15       0.2592
      4  O         55.9130  -11.3210  -12.8970 O.2    15  ARG15      -0.2718
      5  CB        58.6750  -11.1380  -14.7200 C.3    15  ARG15       0.0321
      6  CG        59.5940  -10.7830  -13.5450 C.3    15  ARG15       0.0489
      7  CD        60.6680   -9.7610  -13.9160 C.3    15  ARG15       0.2205
      8  NE        60.1490   -8.6040  -14.6560 N.pl3  15  ARG15      -0.0865
      9  CZ        59.5750   -7.5410  -14.0990 C.cat  15  ARG15       0.5346
     10  NH1       59.4200   -7.4740  -12.7830 N.pl3  15  ARG15       0.1354
     11  NH2       59.1390   -6.5420  -14.8550 N.pl3  15  ARG15       0.1354
     12  N         57.4480  -12.8170  -12.0970 N.am   16  LEU16      -0.1966
     13  CA        57.0550  -12.7560  -10.6930 C.3    16  LEU16       0.1728
     14  C         57.6150  -11.4280  -10.1630 C.2    16  LEU16       0.2616
     15  O         58.8170  -11.1560  -10.2760 O.2    16  LEU16      -0.2715
     16  CB        57.5860  -13.9680   -9.9030 C.3    16  LEU16       0.0311
     17  CG        57.4090  -13.9560   -8.3710 C.3    16  LEU16       0.0022
     18  CD1       56.0270  -14.4330   -7.9540 C.3    16  LEU16       0.0001
     19  CD2       58.4530  -14.8120   -7.7050 C.3    16  LEU16       0.0001
     20  N         56.7120  -10.5630   -9.6840 N.am   17  LEU17      -0.1963
     21  CA        57.0740   -9.2520   -9.1820 C.3    17  LEU17       0.1728
     22  C         57.5570   -9.3330   -7.7320 C.2    17  LEU17       0.2617
     23  O         58.3930   -8.5330   -7.3150 O.2    17  LEU17      -0.2715
     24  CB        55.9020   -8.2800   -9.3290 C.3    17  LEU17       0.0311
     25  CG        55.1520   -8.2630  -10.6830 C.3    17  LEU17       0.0022
     26  CD1       53.9490   -7.3380  -10.6230 C.3    17  LEU17       0.0001
     27  CD2       56.0540   -7.8500  -11.8300 C.3    17  LEU17       0.0001
     28  N         57.0330  -10.3070   -6.9950 N.am   18  GLY18      -0.1940
     29  CA        57.3500  -10.5360   -5.5930 C.3    18  GLY18       0.2014
     30  C         56.4210  -11.5250   -4.9250 C.2    18  GLY18       0.2638
     31  O         55.3960  -11.9120   -5.4960 O.2    18  GLY18      -0.2714
     32  N         56.7820  -11.9290   -3.6920 N.am   19  LYS19      -0.1977
     33  CA        56.0480  -12.8990   -2.8760 C.3    19  LYS19       0.1596
     34  C         55.5840  -12.2430   -1.5540 C.2    19  LYS19       0.2287
     35  O         54.8650  -11.2380   -1.5980 O.2    19  LYS19      -0.2864
     36  CB        56.9070  -14.1650   -2.6510 C.3    19  LYS19       0.0298
     37  CG        56.1040  -15.4530   -2.5650 C.3    19  LYS19       0.0038
     38  CD        56.9840  -16.6710   -2.2940 C.3    19  LYS19       0.0206
     39  CE        56.1610  -17.9200   -2.0540 C.3    19  LYS19       0.1093
     40  NZ        57.0120  -19.1320   -1.9230 N.3    19  LYS19      -0.1314
     41  N         52.7780  -12.3420   -6.7060 N.3    25  CYS25      -0.1235
     42  CA        52.4080  -11.2700   -7.6090 C.3    25  CYS25       0.1677
     43  C         53.1050  -11.3920   -8.9230 C.2    25  CYS25       0.2270
     44  O         54.2900  -11.7280   -8.9670 O.2    25  CYS25      -0.2867
     45  CB        52.6560   -9.9100   -6.9640 C.3    25  CYS25       0.0956
     46  SG        51.9110   -9.7390   -5.3280 S.3    25  CYS25      -0.0801
     47  N         53.0570   -9.7850  -13.2520 N.3    27  GLU27      -0.1245
     48  CA        52.5810   -8.9030  -14.2910 C.3    27  GLU27       0.1567
     49  C         51.6560   -9.8550  -15.0870 C.2    27  GLU27       0.2260
     50  O         52.0110  -11.0180  -15.3000 O.2    27  GLU27      -0.2867
     51  CB        53.7410   -8.4030  -15.1740 C.3    27  GLU27       0.0388
     52  CG        53.2660   -7.4820  -16.2870 C.3    27  GLU27       0.1160
     53  CD        54.2970   -7.0030  -17.2920 C.2    27  GLU27       0.3649
     54  OE1       55.3520   -7.6620  -17.4440 O.co2  27  GLU27      -0.2457
     55  OE2       54.0230   -5.9800  -17.9630 O.co2  27  GLU27      -0.2457
     56  N         48.9150   -5.9130  -12.4540 N.3    38  ALA38      -0.1245
     57  CA        49.7270   -6.4770  -11.3940 C.3    38  ALA38       0.1562
     58  C         48.7020   -7.3700  -10.6900 C.2    38  ALA38       0.2260
     59  O         47.6820   -6.8810  -10.1860 O.2    38  ALA38      -0.2867
     60  CB        50.2520   -5.3860  -10.4700 C.3    38  ALA38       0.0290
     61  N         47.6490  -10.2640   -7.9400 N.3    40  LYS40      -0.1245
     62  CA        47.9550  -10.9170   -6.6770 C.3    40  LYS40       0.1561
     63  C         47.2410  -12.2620   -6.7310 C.2    40  LYS40       0.2260
     64  O         46.0070  -12.3250   -6.8450 O.2    40  LYS40      -0.2867
     65  CB        47.4950  -10.0960   -5.4710 C.3    40  LYS40       0.0271
     66  CG        48.2230   -8.7720   -5.3190 C.3    40  LYS40       0.0035
     67  CD        48.3390   -8.3640   -3.8470 C.3    40  LYS40       0.0206
     68  CE        47.0290   -7.9020   -3.2460 C.3    40  LYS40       0.1093
     69  NZ        47.2380   -7.2530   -1.9310 N.3    40  LYS40      -0.1314
     70  N         39.0510   -1.7240   -1.4290 N.3    63  HIS63      -0.1241
     71  CA        39.8020   -1.3090   -2.6090 C.3    63  HIS63       0.1621
     72  C         38.9530   -1.0500   -3.8750 C.2    63  HIS63       0.2264
     73  O         39.2780   -0.1330   -4.6150 O.2    63  HIS63      -0.2867
     74  CB        40.9570   -2.2580   -2.8770 C.3    63  HIS63       0.0745
     75  CG        42.0860   -1.6500   -3.6470 C.ar   63  HIS63       0.0817
     76  ND1       43.1930   -2.3890   -3.9770 N.ar   63  HIS63      -0.2268
     77  CD2       42.2450   -0.3920   -4.1180 C.ar   63  HIS63       0.1154
     78  CE1       43.9800   -1.5800   -4.6540 C.ar   63  HIS63       0.1986
     79  NE2       43.4510   -0.3660   -4.7680 N.ar   63  HIS63      -0.2212
     80  N         46.2700    3.2220   -6.0080 N.3    72  VAL72      -0.1245
     81  CA        46.2950    2.0800   -6.9060 C.3    72  VAL72       0.1561
     82  C         44.8640    1.7800   -7.3300 C.2    72  VAL72       0.2260
     83  O         43.9560    1.6730   -6.4870 O.2    72  VAL72      -0.2867
     84  CB        46.9680    0.8460   -6.2460 C.3    72  VAL72       0.0252
     85  CG1       46.6350   -0.4480   -7.0020 C.3    72  VAL72       0.0019
     86  CG2       48.4850    1.0480   -6.1300 C.3    72  VAL72       0.0019
     87  N         45.2040   -5.5230  -10.1910 N.3    88  LEU88      -0.1231
     88  CA        45.5070   -4.1660   -9.7510 C.3    88  LEU88       0.1693
     89  C         46.3210   -3.4440  -10.7680 C.2    88  LEU88       0.2592
     90  O         46.9130   -4.0590  -11.6560 O.2    88  LEU88      -0.2718
     91  CB        46.2930   -4.2220   -8.4190 C.3    88  LEU88       0.0284
     92  CG        45.6420   -5.0300   -7.3000 C.3    88  LEU88       0.0019
     93  CD1       46.6590   -5.4560   -6.2330 C.3    88  LEU88       0.0001
     94  CD2       44.4550   -4.3110   -6.7250 C.3    88  LEU88       0.0001
     95  N         46.3270   -2.1180  -10.6530 N.am   89  GLU89      -0.1966
     96  CA        47.1090   -1.2220  -11.4670 C.3    89  GLU89       0.1733
     97  C         48.5830   -1.5910  -11.4450 C.2    89  GLU89       0.2616
     98  O         49.2100   -1.7120  -10.3870 O.2    89  GLU89      -0.2715
     99  CB        46.9090    0.2170  -10.9940 C.3    89  GLU89       0.0429
    100  CG        47.4080    1.2480  -11.9820 C.3    89  GLU89       0.1163
    101  CD        47.0270    2.6680  -11.6290 C.2    89  GLU89       0.3649
    102  OE1       46.4240    2.8660  -10.5510 O.co2  89  GLU89      -0.2457
    103  OE2       47.2830    3.5750  -12.4550 O.co2  89  GLU89      -0.2457
    104  N         49.1140   -1.8560  -12.6180 N.am   90  LEU90      -0.1963
    105  CA        50.5220   -2.1750  -12.6880 C.3    90  LEU90       0.1728
    106  C         51.2900   -0.8380  -12.6830 C.2    90  LEU90       0.2616
    107  O         50.9120    0.1080  -13.3800 O.2    90  LEU90      -0.2715
    108  CB        50.8260   -3.0010  -13.9390 C.3    90  LEU90       0.0311
    109  CG        52.2940   -3.3480  -14.2120 C.3    90  LEU90       0.0022
    110  CD1       52.8570   -4.3430  -13.1710 C.3    90  LEU90       0.0001
    111  CD2       52.4190   -3.9000  -15.6160 C.3    90  LEU90       0.0001
    112  N         52.3000   -0.7540  -11.8330 N.am   91  CYS91      -0.1954
    113  CA        53.1370    0.4360  -11.7250 C.3    91  CYS91       0.1843
    114  C         54.5320   -0.0390  -12.0970 C.2    91  CYS91       0.2626
    115  O         55.1560   -0.8300  -11.3800 O.2    91  CYS91      -0.2714
    116  CB        53.0440    1.0490  -10.3330 C.3    91  CYS91       0.0997
    117  SG        51.3450    1.4970   -9.8560 S.3    91  CYS91      -0.0797
    118  N         54.9180    0.2990  -13.3330 N.am   92  SER92      -0.1950
    119  CA        56.1580   -0.1370  -13.9780 C.3    92  SER92       0.1924
    120  C         57.4670    0.1740  -13.2330 C.2    92  SER92       0.2314
    121  O         58.4700   -0.4940  -13.4760 O.2    92  SER92      -0.2863
    122  CB        56.2060    0.3340  -15.4280 C.3    92  SER92       0.2116
    123  OG        56.2340    1.7500  -15.4740 O.3    92  SER92      -0.2180
    124  N         57.9710   -0.1330   -9.9340 N.3    94  LYS94      -0.1245
    125  CA        57.8980   -0.9280   -8.7050 C.3    94  LYS94       0.1561
    126  C         57.3310   -0.1280   -7.5320 C.2    94  LYS94       0.2260
    127  O         56.2840    0.4980   -7.6790 O.2    94  LYS94      -0.2867
    128  CB        59.2680   -1.5970   -8.3670 C.3    94  LYS94       0.0271
    129  CG        59.9960   -2.1690   -9.5930 C.3    94  LYS94       0.0035
    130  CD        61.3950   -2.6660   -9.2970 C.3    94  LYS94       0.0206
    131  CE        62.1020   -3.0170  -10.5960 C.3    94  LYS94       0.1093
    132  NZ        63.5780   -3.0400  -10.4320 N.3    94  LYS94      -0.1314
    133  N         61.5270   -0.6440   -3.3160 N.3    98  HIS98      -0.1241
    134  CA        62.4830   -0.9850   -4.3670 C.3    98  HIS98       0.1621
    135  C         63.4290    0.1900   -4.6070 C.2    98  HIS98       0.2264
    136  O         64.6280   -0.0200   -4.7000 O.2    98  HIS98      -0.2867
    137  CB        61.7790   -1.4210   -5.6600 C.3    98  HIS98       0.0745
    138  CG        60.9700   -2.6730   -5.5070 C.ar   98  HIS98       0.0817
    139  ND1       59.6970   -2.6480   -4.9590 N.ar   98  HIS98      -0.2268
    140  CD2       61.2820   -3.9480   -5.8270 C.ar   98  HIS98       0.1154
    141  CE1       59.2680   -3.9010   -4.9760 C.ar   98  HIS98       0.1986
    142  NE2       60.1900   -4.7210   -5.4850 N.ar   98  HIS98      -0.2212
    143  N         57.1480   -0.0430    0.8850 N.3   138  GLY138     -0.1225
    144  CA        56.7110   -1.2380    0.1680 C.3   138  GLY138      0.1811
    145  C         55.3360   -1.1560   -0.4560 C.2   138  GLY138      0.2280
    146  O         55.0480   -1.8950   -1.4040 O.2   138  GLY138     -0.2866
    147  N         53.4380    2.5560   -4.7190 N.3   141  PHE141     -0.1241
    148  CA        53.7280    2.1150   -6.0750 C.3   141  PHE141      0.1605
    149  C         54.0630    3.2080   -7.0410 C.2   141  PHE141      0.2264
    150  O         53.4320    4.2460   -7.0080 O.2   141  PHE141     -0.2867
    151  CB        52.6340    1.1480   -6.5410 C.3   141  PHE141      0.0534
    152  CG        52.6690   -0.0470   -5.6230 C.ar  141  PHE141     -0.0203
    153  CD1       53.6930   -0.9780   -5.7100 C.ar  141  PHE141     -0.0042
    154  CD2       51.7290   -0.1900   -4.5950 C.ar  141  PHE141     -0.0042
    155  CE1       53.7740   -2.0300   -4.7970 C.ar  141  PHE141     -0.0003
    156  CE2       51.8110   -1.2410   -3.6930 C.ar  141  PHE141     -0.0003
    157  CZ        52.8200   -2.1680   -3.8070 C.ar  141  PHE141     -0.0000
    158  N         48.1330   -1.6130   -1.6040 N.3   152  ASP152     -0.1239
    159  CA        48.0030   -2.6550   -0.6030 C.3   152  ASP152      0.1674
    160  C         47.0410   -2.3280    0.5410 C.2   152  ASP152      0.2266
    161  O         47.4510   -1.8930    1.6350 O.2   152  ASP152     -0.2867
    162  CB        49.3820   -3.1550   -0.0870 C.3   152  ASP152      0.1410
    163  CG        49.3390   -4.4810    0.6700 C.2   152  ASP152      0.3668
    164  OD1       48.2370   -5.0980    0.7520 O.co2 152  ASP152     -0.2456
    165  OD2       50.3820   -4.8840    1.2110 O.co2 152  ASP152     -0.2456
@<TRIPOS>BOND
     1    55    53   ar
     2    54    53   ar
     3    53    52    1
     4    52    51    1
     5   111   109    1
     6     1     2    1
     7   123   122    1
     8   122   119    1
     9    50    49    2
    10    51    48    1
    11    49    48    1
    12    11     9    1
    13     5     2    1
    14     5     6    1
    15     8     9    2
    16     8     7    1
    17     2     3    1
    18    48    47    1
    19   109   108    1
    20   109   110    1
    21     9    10    1
    22   119   118    1
    23   119   120    1
    24   108   105    1
    25     7     6    1
    26   121   120    2
    27   107   106    2
    28   118   114   am
    29     3     4    2
    30     3    12   am
    31   105   106    1
    32   105   104    1
    33   106   112   am
    34   104    97   am
    35   103   101   ar
    36    56    57    1
    37   114   113    1
    38   114   115    2
    39    12    13    1
    40   100   101    1
    41   100    99    1
    42   112   113    1
    43    27    25    1
    44   113   116    1
    45    90    89    2
    46   101   102   ar
    47    96    97    1
    48    96    99    1
    49    96    95    1
    50    97    98    2
    51    57    58    1
    52    57    60    1
    53    89    95   am
    54    89    88    1
    55    13    14    1
    56    13    16    1
    57    58    59    2
    58    25    26    1
    59    25    24    1
    60   131   132    1
    61   131   130    1
    62   116   117    1
    63    15    14    2
    64    87    88    1
    65    14    20   am
    66   124   125    1
    67    16    17    1
    68    88    91    1
    69    20    21    1
    70   129   130    1
    71   129   128    1
    72    24    21    1
    73    21    22    1
    74    44    43    2
    75    43    42    1
    76   125   128    1
    77   125   126    1
    78    91    92    1
    79    17    18    1
    80    17    19    1
    81    61    62    1
    82    22    23    2
    83    22    28   am
    84   127   126    2
    85    42    45    1
    86    42    41    1
    87    82    81    1
    88    82    83    2
    89    92    94    1
    90    92    93    1
    91   149   150    2
    92   149   148    1
    93    85    84    1
    94    28    29    1
    95    45    46    1
    96    81    84    1
    97    81    80    1
    98    64    63    2
    99    63    62    1
   100    62    65    1
   101   151   148    1
   102   151   152    1
   103    84    86    1
   104   148   147    1
   105   140   138   ar
   106   140   142   ar
   107   153   152   ar
   108   153   155   ar
   109   137   138    1
   110   137   134    1
   111   152   154   ar
   112    29    30    1
   113   138   139   ar
   114    31    30    2
   115   142   141   ar
   116    65    66    1
   117    66    67    1
   118   141   139   ar
   119    30    32   am
   120   155   157   ar
   121    79    78   ar
   122    79    77   ar
   123   136   135    2
   124    78    76   ar
   125    73    72    2
   126   135   134    1
   127   154   156   ar
   128   134   133    1
   129    77    75   ar
   130    76    75   ar
   131    72    71    1
   132    67    68    1
   133   157   156   ar
   134    32    33    1
   135    75    74    1
   136    68    69    1
   137    74    71    1
   138    33    36    1
   139    33    34    1
   140    36    37    1
   141    71    70    1
   142    37    38    1
   143    38    39    1
   144    39    40    1
   145   158   159    1
   146    35    34    2
   147   146   145    2
   148   159   162    1
   149   159   160    1
   150   145   144    1
   151   162   163    1
   152   144   143    1
   153   160   161    2
   154   163   164   ar
   155   163   165   ar
