@<TRIPOS>MOLECULE
tmp/4b6oA00.pdb
 144 137 0 0 0
SMALL
GASTEIGER

@<TRIPOS>ATOM
      1  N        -47.3200  -21.2880   -7.2400 N.3    10  PRO10      -0.2102
      2  CA       -48.6370  -21.7670   -7.6440 C.3    10  PRO10       0.1504
      3  C        -48.9180  -23.2100   -7.2890 C.2    10  PRO10       0.2576
      4  O        -48.0470  -24.0800   -7.4160 O.2    10  PRO10      -0.2718
      5  CB       -48.6440  -21.6080   -9.1670 C.3    10  PRO10       0.0282
      6  CG       -47.6080  -20.6040   -9.4580 C.3    10  PRO10       0.0208
      7  CD       -46.6190  -20.5990   -8.3430 C.3    10  PRO10       0.0893
      8  N        -50.1660  -23.4280   -6.8760 N.am   11  ASN11      -0.1961
      9  CA       -50.6940  -24.7060   -6.5040 C.3    11  ASN11       0.1819
     10  C        -50.2530  -25.2490   -5.1430 C.2    11  ASN11       0.2621
     11  O        -50.8200  -26.2350   -4.6650 O.2    11  ASN11      -0.2715
     12  CB       -50.4910  -25.7110   -7.6140 C.3    11  ASN11       0.1195
     13  CG       -51.2050  -25.2860   -8.8890 C.2    11  ASN11       0.2630
     14  OD1      -52.4330  -25.0820   -8.8710 O.2    11  ASN11      -0.2716
     15  ND2      -50.4630  -25.1440   -9.9800 N.am   11  ASN11      -0.0877
     16  N        -49.2760  -24.6180   -4.5070 N.am   12  LEU12      -0.1977
     17  CA       -48.8060  -25.1130   -3.2300 C.3    12  LEU12       0.1596
     18  C        -49.8600  -24.9950   -2.1270 C.2    12  LEU12       0.2287
     19  O        -49.7800  -25.6980   -1.1180 O.2    12  LEU12      -0.2864
     20  CB       -47.4950  -24.4500   -2.8110 C.3    12  LEU12       0.0297
     21  CG       -46.2270  -25.2100   -3.2460 C.3    12  LEU12       0.0022
     22  CD1      -46.1210  -26.6260   -2.5940 C.3    12  LEU12       0.0001
     23  CD2      -46.1530  -25.2870   -4.7780 C.3    12  LEU12       0.0001
     24  N        -52.6620  -26.1250   -2.4770 N.3    14  ARG14      -0.1231
     25  CA       -53.5020  -27.2870   -2.6850 C.3    14  ARG14       0.1694
     26  C        -53.0370  -28.5430   -1.9290 C.2    14  ARG14       0.2591
     27  O        -53.6610  -29.5880   -2.0760 O.2    14  ARG14      -0.2718
     28  CB       -53.5960  -27.6360   -4.1730 C.3    14  ARG14       0.0321
     29  CG       -54.1350  -26.5320   -5.0690 C.3    14  ARG14       0.0489
     30  CD       -55.5960  -26.2300   -4.7750 C.3    14  ARG14       0.2205
     31  NE       -56.4250  -27.3910   -5.0670 N.pl3  14  ARG14      -0.0865
     32  CZ       -57.6960  -27.5140   -4.7110 C.cat  14  ARG14       0.5346
     33  NH1      -58.3160  -26.5280   -4.0700 N.pl3  14  ARG14       0.1354
     34  NH2      -58.3350  -28.6420   -4.9840 N.pl3  14  ARG14       0.1354
     35  N        -51.9390  -28.4730   -1.1690 N.am   15  LEU15      -0.1980
     36  CA       -51.4280  -29.6560   -0.4790 C.3    15  LEU15       0.1596
     37  C        -52.5220  -30.2070    0.4310 C.2    15  LEU15       0.2287
     38  O        -53.2340  -29.4310    1.0920 O.2    15  LEU15      -0.2864
     39  CB       -50.1890  -29.3090    0.3740 C.3    15  LEU15       0.0297
     40  CG       -48.9210  -28.8580   -0.3690 C.3    15  LEU15       0.0022
     41  CD1      -47.8720  -28.2390    0.5910 C.3    15  LEU15       0.0001
     42  CD2      -48.3170  -29.9950   -1.2070 C.3    15  LEU15       0.0001
     43  N        -56.4100  -33.0950   -2.4590 N.3    18  ARG18      -0.1245
     44  CA       -56.7050  -34.2680   -3.3110 C.3    18  ARG18       0.1563
     45  C        -56.2910  -35.5740   -2.6190 C.2    18  ARG18       0.2260
     46  O        -55.3370  -35.5970   -1.8360 O.2    18  ARG18      -0.2867
     47  CB       -56.0090  -34.1570   -4.6810 C.3    18  ARG18       0.0307
     48  CG       -56.1100  -35.4160   -5.5630 C.3    18  ARG18       0.0489
     49  CD       -55.5360  -35.2670   -6.9880 C.3    18  ARG18       0.2205
     50  NE       -54.2580  -34.5390   -7.0450 N.pl3  18  ARG18      -0.0865
     51  CZ       -53.3430  -34.6610   -8.0140 C.cat  18  ARG18       0.5346
     52  NH1      -53.5300  -35.5050   -9.0320 N.pl3  18  ARG18       0.1354
     53  NH2      -52.2220  -33.9330   -7.9650 N.pl3  18  ARG18       0.1354
     54  N        -49.9610  -36.2130   -2.7260 N.3    23  TYR23      -0.1241
     55  CA       -49.3310  -35.1490   -1.9070 C.3    23  TYR23       0.1605
     56  C        -50.4500  -34.7220   -0.9400 C.2    23  TYR23       0.2264
     57  O        -50.8810  -33.5430   -0.9030 O.2    23  TYR23      -0.2867
     58  CB       -48.8600  -33.9150   -2.7410 C.3    23  TYR23       0.0534
     59  CG       -48.1050  -34.1240   -4.0660 C.ar   23  TYR23      -0.0201
     60  CD1      -48.4800  -35.1100   -4.9810 C.ar   23  TYR23      -0.0009
     61  CD2      -47.0590  -33.2800   -4.4240 C.ar   23  TYR23      -0.0009
     62  CE1      -47.8240  -35.2820   -6.1840 C.ar   23  TYR23       0.0417
     63  CE2      -46.3960  -33.4410   -5.6370 C.ar   23  TYR23       0.0417
     64  CZ       -46.7840  -34.4500   -6.5150 C.ar   23  TYR23       0.1957
     65  OH       -46.1510  -34.6550   -7.7290 O.3    23  TYR23      -0.2866
     66  N        -40.0230  -22.7450   -3.1780 N.3    74  ASN74      -0.1240
     67  CA       -40.6530  -23.7470   -3.9760 C.3    74  ASN74       0.1653
     68  C        -41.6150  -23.0200   -4.9010 C.2    74  ASN74       0.2266
     69  O        -42.7580  -22.7230   -4.5220 O.2    74  ASN74      -0.2867
     70  CB       -41.4300  -24.7050   -3.0900 C.3    74  ASN74       0.1155
     71  CG       -42.0350  -25.8450   -3.8610 C.2    74  ASN74       0.2627
     72  OD1      -42.0420  -25.8480   -5.1030 O.2    74  ASN74      -0.2716
     73  ND2      -42.4900  -26.8640   -3.1300 N.am   74  ASN74      -0.0877
     74  N        -43.1930  -23.9370   -7.4810 N.3    76  GLY76      -0.1210
     75  CA       -44.1890  -24.7340   -8.1910 C.3    76  GLY76       0.1956
     76  C        -43.8870  -24.7990   -9.6860 C.2    76  GLY76       0.2612
     77  O        -42.7190  -24.8480  -10.0610 O.2    76  GLY76      -0.2717
     78  N        -44.9070  -24.7270  -10.5350 N.am   77  GLY77      -0.1956
     79  CA       -44.7070  -24.8260  -11.9780 C.3    77  GLY77       0.1869
     80  C        -43.7830  -23.7450  -12.5670 C.2    77  GLY77       0.2309
     81  O        -43.1430  -23.9610  -13.5930 O.2    77  GLY77      -0.2863
     82  N        -40.0860  -24.2220  -13.6880 N.3    80  HIS80      -0.1241
     83  CA       -39.7630  -24.7720  -14.9980 C.3    80  HIS80       0.1621
     84  C        -39.9350  -23.7590  -16.1230 C.2    80  HIS80       0.2264
     85  O        -39.4540  -24.0090  -17.2230 O.2    80  HIS80      -0.2867
     86  CB       -40.6090  -26.0220  -15.2710 C.3    80  HIS80       0.0745
     87  CG       -40.6630  -26.9580  -14.1030 C.ar   80  HIS80       0.0817
     88  ND1      -39.5330  -27.5760  -13.6090 N.ar   80  HIS80      -0.2268
     89  CD2      -41.6840  -27.3290  -13.2940 C.ar   80  HIS80       0.1154
     90  CE1      -39.8670  -28.3110  -12.5600 C.ar   80  HIS80       0.1986
     91  NE2      -41.1630  -28.1700  -12.3420 N.ar   80  HIS80      -0.2212
     92  N        -38.2720  -28.7220   -3.6780 N.3   100  HIS100     -0.1226
     93  CA       -39.4640  -29.3770   -4.2160 C.3   100  HIS100      0.1752
     94  C        -39.7910  -30.6140   -3.3740 C.2   100  HIS100      0.2596
     95  O        -38.9090  -31.3760   -2.9830 O.2   100  HIS100     -0.2718
     96  CB       -39.2840  -29.7210   -5.6900 C.3   100  HIS100      0.0759
     97  CG       -38.8600  -28.5460   -6.5030 C.ar  100  HIS100      0.0818
     98  ND1      -39.7310  -27.5300   -6.8320 N.ar  100  HIS100     -0.2268
     99  CD2      -37.6570  -28.1880   -6.9970 C.ar  100  HIS100      0.1154
    100  CE1      -39.0760  -26.6020   -7.5080 C.ar  100  HIS100      0.1986
    101  NE2      -37.8140  -26.9770   -7.6250 N.ar  100  HIS100     -0.2212
    102  N        -41.0750  -30.7790   -3.1010 N.am  101  ILE101     -0.1966
    103  CA       -41.6040  -31.8870   -2.3240 C.3   101  ILE101      0.1727
    104  C        -41.4060  -33.1830   -3.0960 C.2   101  ILE101      0.2616
    105  O        -40.8230  -34.1270   -2.5790 O.2   101  ILE101     -0.2715
    106  CB       -43.0950  -31.6210   -2.0250 C.3   101  ILE101      0.0290
    107  CG1      -43.2120  -30.3590   -1.1300 C.3   101  ILE101      0.0022
    108  CG2      -43.7880  -32.8660   -1.3840 C.3   101  ILE101      0.0023
    109  CD1      -44.6450  -29.9000   -0.8990 C.3   101  ILE101      0.0001
    110  N        -41.8370  -33.1900   -4.3610 N.am  102  SER102     -0.1950
    111  CA       -41.7250  -34.3630   -5.2190 C.3   102  SER102      0.1924
    112  C        -40.3110  -34.4440   -5.8170 C.2   102  SER102      0.2314
    113  O        -39.5710  -33.4460   -5.8380 O.2   102  SER102     -0.2863
    114  CB       -42.7480  -34.2730   -6.3640 C.3   102  SER102      0.2116
    115  OG       -42.3420  -33.2770   -7.3210 O.3   102  SER102     -0.2180
    116  N        -38.5800  -34.1590   -8.8260 N.3   104  VAL104     -0.1245
    117  CA       -38.8460  -33.5920  -10.1360 C.3   104  VAL104      0.1561
    118  C        -38.1060  -34.3210  -11.2810 C.2   104  VAL104      0.2260
    119  O        -38.3950  -34.0740  -12.4520 O.2   104  VAL104     -0.2867
    120  CB       -38.5240  -32.0690  -10.1790 C.3   104  VAL104      0.0252
    121  CG1      -39.3760  -31.2920   -9.1490 C.3   104  VAL104      0.0019
    122  CG2      -37.0060  -31.7950   -9.9710 C.3   104  VAL104      0.0019
    123  N        -40.2640  -37.7580  -13.2410 N.3   107  ARG107     -0.1245
    124  CA       -41.5520  -37.4930  -13.8960 C.3   107  ARG107      0.1563
    125  C        -41.2940  -37.1050  -15.3430 C.2   107  ARG107      0.2260
    126  O        -40.4130  -37.6920  -15.9810 O.2   107  ARG107     -0.2867
    127  CB       -42.3130  -36.3950  -13.1220 C.3   107  ARG107      0.0307
    128  CG       -42.4460  -36.6670  -11.6210 C.3   107  ARG107      0.0489
    129  CD       -43.2310  -35.5520  -10.8840 C.3   107  ARG107      0.2205
    130  NE       -44.5720  -35.4390  -11.4430 N.pl3 107  ARG107     -0.0865
    131  CZ       -45.4300  -34.4420  -11.2040 C.cat 107  ARG107      0.5346
    132  NH1      -45.1090  -33.4400  -10.3830 N.pl3 107  ARG107      0.1354
    133  NH2      -46.6330  -34.4660  -11.7820 N.pl3 107  ARG107      0.1354
    134  N        -39.9020  -31.3420  -16.3400 N.3   111  ARG111     -0.1245
    135  CA       -39.6980  -31.0420  -14.9080 C.3   111  ARG111      0.1563
    136  C        -38.2250  -31.1470  -14.4480 C.2   111  ARG111      0.2260
    137  O        -37.8790  -30.6740  -13.3560 O.2   111  ARG111     -0.2867
    138  CB       -40.6140  -31.9100  -14.0380 C.3   111  ARG111      0.0307
    139  CG       -42.0960  -31.6470  -14.2790 C.3   111  ARG111      0.0489
    140  CD       -42.9880  -32.4540  -13.3170 C.3   111  ARG111      0.2205
    141  NE       -44.3710  -32.3880  -13.7730 N.pl3 111  ARG111     -0.0865
    142  CZ       -45.2180  -31.3980  -13.5080 C.cat 111  ARG111      0.5346
    143  NH1      -44.8720  -30.3470  -12.7430 N.pl3 111  ARG111      0.1354
    144  NH2      -46.4320  -31.4620  -14.0070 N.pl3 111  ARG111      0.1354
@<TRIPOS>BOND
     1    85    84    2
     2   134   135    1
     3    84    83    1
     4   126   125    2
     5   125   124    1
     6    86    83    1
     7    86    87    1
     8    83    82    1
     9   135   136    1
    10   135   138    1
    11   136   137    2
    12   139   138    1
    13   139   140    1
    14    87    88   ar
    15    87    89   ar
    16   144   142    1
    17   124   123    1
    18   124   127    1
    19   141   142    2
    20   141   140    1
    21    88    90   ar
    22    81    80    2
    23   142   143    1
    24    89    91   ar
    25   127   128    1
    26    80    79    1
    27    90    91   ar
    28   119   118    2
    29    79    78    1
    30   133   131    1
    31   128   129    1
    32   130   131    2
    33   130   129    1
    34   118   117    1
    35   131   132    1
    36    78    76   am
    37   120   117    1
    38   120   122    1
    39   120   121    1
    40   117   116    1
    41    77    76    2
    42    15    13   am
    43    76    75    1
    44     6     5    1
    45     6     7    1
    46     5     2    1
    47    52    51    1
    48    13    14    2
    49    13    12    1
    50     7     1    1
    51    75    74    1
    52    51    53    1
    53    51    50    2
    54    65    64    1
    55     2     3    1
    56     2     1    1
    57   101   100   ar
    58   101    99   ar
    59    12     9    1
    60   100    98   ar
    61     4     3    2
    62   115   114    1
    63     3     8   am
    64    50    49    1
    65    99    97   ar
    66    49    48    1
    67     8     9    1
    68    98    97   ar
    69    64    62   ar
    70    64    63   ar
    71     9    10    1
    72    97    96    1
    73   114   111    1
    74    62    60   ar
    75   113   112    2
    76   112   111    1
    77    96    93    1
    78    63    61   ar
    79    48    47    1
    80   111   110    1
    81    10    11    2
    82    10    16   am
    83    72    71    2
    84    29    30    1
    85    29    28    1
    86    31    30    1
    87    31    32    2
    88    34    32    1
    89    60    59   ar
    90    68    69    2
    91    68    67    1
    92    23    21    1
    93    32    33    1
    94    47    44    1
    95    16    17    1
    96    61    59   ar
    97   110   104   am
    98    93    92    1
    99    93    94    1
   100    28    25    1
   101    59    58    1
   102    67    66    1
   103    67    70    1
   104    71    73   am
   105    71    70    1
   106    94   102   am
   107    94    95    2
   108    44    45    1
   109    44    43    1
   110    21    20    1
   111    21    22    1
   112    17    20    1
   113    17    18    1
   114   102   103    1
   115   104   105    2
   116   104   103    1
   117    58    55    1
   118    54    55    1
   119    25    24    1
   120    25    26    1
   121    45    46    2
   122   103   106    1
   123    18    19    2
   124    27    26    2
   125   106   108    1
   126   106   107    1
   127    26    35   am
   128    55    56    1
   129    42    40    1
   130    35    36    1
   131   107   109    1
   132    56    57    2
   133    36    39    1
   134    36    37    1
   135    40    39    1
   136    40    41    1
   137    37    38    2
