@<TRIPOS>MOLECULE
tmp/4b6pA00.pdb
 144 137 0 0 0
SMALL
GASTEIGER

@<TRIPOS>ATOM
      1  N         21.4070   47.4130    7.3260 N.3     9  PRO9       -0.2102
      2  CA        21.9490   48.6780    7.7810 C.3     9  PRO9        0.1504
      3  C         23.3800   48.9680    7.3890 C.2     9  PRO9        0.2576
      4  O         24.2650   48.0960    7.5050 O.2     9  PRO9       -0.2718
      5  CB        21.8880   48.5630    9.2870 C.3     9  PRO9        0.0282
      6  CG        20.8080   47.6760    9.5580 C.3     9  PRO9        0.0208
      7  CD        20.7510   46.6920    8.4280 C.3     9  PRO9        0.0893
      8  N         23.5910   50.2100    6.9440 N.am   10  ASN10      -0.1961
      9  CA        24.9060   50.7350    6.6120 C.3    10  ASN10       0.1819
     10  C         25.5020   50.2960    5.2810 C.2    10  ASN10       0.2621
     11  O         26.5560   50.8050    4.8890 O.2    10  ASN10      -0.2715
     12  CB        25.8770   50.4770    7.7630 C.3    10  ASN10       0.1195
     13  CG        25.4900   51.2290    9.0160 C.2    10  ASN10       0.2630
     14  OD1       25.3560   52.4500    8.9880 O.2    10  ASN10      -0.2716
     15  ND2       25.3250   50.5260   10.1120 N.am   10  ASN10      -0.0877
     16  N         24.8430   49.3710    4.5730 N.am   11  LEU11      -0.1977
     17  CA        25.3410   48.9270    3.2670 C.3    11  LEU11       0.1596
     18  C         25.1490   49.9850    2.1840 C.2    11  LEU11       0.2287
     19  O         25.8480   49.9510    1.1760 O.2    11  LEU11      -0.2864
     20  CB        24.7300   47.5950    2.8330 C.3    11  LEU11       0.0297
     21  CG        25.5040   46.3220    3.2950 C.3    11  LEU11       0.0022
     22  CD1       26.8850   46.1870    2.6450 C.3    11  LEU11       0.0001
     23  CD2       25.6000   46.2160    4.8140 C.3    11  LEU11       0.0001
     24  N         26.1900   52.8880    2.6670 N.3    13  ARG13      -0.1231
     25  CA        27.3980   53.6810    2.8750 C.3    13  ARG13       0.1694
     26  C         28.6360   53.0710    2.2350 C.2    13  ARG13       0.2591
     27  O         29.7370   53.6440    2.2890 O.2    13  ARG13      -0.2718
     28  CB        27.6540   53.8410    4.3640 C.3    13  ARG13       0.0321
     29  CG        26.5030   54.4330    5.0930 C.3    13  ARG13       0.0489
     30  CD        26.2210   55.8340    4.6350 C.3    13  ARG13       0.2205
     31  NE        27.3330   56.6950    4.9920 N.pl3  13  ARG13      -0.0865
     32  CZ        27.4380   57.9680    4.6690 C.cat  13  ARG13       0.5346
     33  NH1       26.4690   58.5830    3.9580 N.pl3  13  ARG13       0.1354
     34  NH2       28.5310   58.6360    5.0670 N.pl3  13  ARG13       0.1354
     35  N         28.4620   51.9080    1.6360 N.am   14  LEU14      -0.1980
     36  CA        29.5120   51.2540    0.9060 C.3    14  LEU14       0.1596
     37  C         30.1610   52.2260   -0.0940 C.2    14  LEU14       0.2287
     38  O         29.4640   53.0350   -0.7230 O.2    14  LEU14      -0.2864
     39  CB        28.8610   50.0910    0.1800 C.3    14  LEU14       0.0297
     40  CG        29.6580   48.9840   -0.4270 C.3    14  LEU14       0.0022
     41  CD1       30.6040   48.3030    0.6180 C.3    14  LEU14       0.0001
     42  CD2       28.5790   48.0650   -1.0060 C.3    14  LEU14       0.0001
     43  N         33.4360   56.2140    3.4970 N.3    17  ARG17      -0.1245
     44  CA        33.7510   55.7080    4.8240 C.3    17  ARG17       0.1563
     45  C         35.1500   55.0690    4.9740 C.2    17  ARG17       0.2260
     46  O         36.0240   55.6750    5.6280 O.2    17  ARG17      -0.2867
     47  CB        32.6100   54.7720    5.3320 C.3    17  ARG17       0.0307
     48  CG        32.4670   53.3260    4.8100 C.3    17  ARG17       0.0489
     49  CD        31.4480   52.5560    5.6420 C.3    17  ARG17       0.2205
     50  NE        31.8510   52.3470    7.0410 N.pl3  17  ARG17      -0.0865
     51  CZ        31.0830   52.5620    8.1160 C.cat  17  ARG17       0.5346
     52  NH1       29.8100   52.9970    8.0060 N.pl3  17  ARG17       0.1354
     53  NH2       31.5830   52.3250    9.3350 N.pl3  17  ARG17       0.1354
     54  N         36.3220   47.7770    2.7020 N.3    22  TYR22      -0.1241
     55  CA        35.2260   47.1200    1.9470 C.3    22  TYR22       0.1605
     56  C         35.2920   47.3050    0.4130 C.2    22  TYR22       0.2264
     57  O         34.5050   46.6990   -0.3220 O.2    22  TYR22      -0.2867
     58  CB        33.8680   47.6320    2.4420 C.3    22  TYR22       0.0534
     59  CG        33.6620   47.6190    3.9410 C.ar   22  TYR22      -0.0201
     60  CD1       33.5810   46.4260    4.6350 C.ar   22  TYR22      -0.0009
     61  CD2       33.5120   48.8080    4.6530 C.ar   22  TYR22      -0.0009
     62  CE1       33.3890   46.4080    5.9990 C.ar   22  TYR22       0.0417
     63  CE2       33.3040   48.8110    6.0370 C.ar   22  TYR22       0.0417
     64  CZ        33.2420   47.5950    6.7040 C.ar   22  TYR22       0.1957
     65  OH        33.0280   47.5430    8.0610 O.3    22  TYR22      -0.2866
     66  N         22.8480   40.1870    3.1500 N.3    73  ASN73      -0.1240
     67  CA        23.8700   40.8180    3.9650 C.3    73  ASN73       0.1653
     68  C         23.1580   41.7250    4.9420 C.2    73  ASN73       0.2266
     69  O         22.8600   42.8890    4.6320 O.2    73  ASN73      -0.2867
     70  CB        24.8490   41.6040    3.1100 C.3    73  ASN73       0.1155
     71  CG        26.0020   42.1240    3.9010 C.2    73  ASN73       0.2627
     72  OD1       25.9540   42.1490    5.1450 O.2    73  ASN73      -0.2716
     73  ND2       27.0720   42.5360    3.1980 N.am   73  ASN73      -0.0877
     74  N         24.0430   43.3200    7.5310 N.3    75  GLY75      -0.1210
     75  CA        24.8040   44.3330    8.2730 C.3    75  GLY75       0.1956
     76  C         24.8860   43.9640    9.7490 C.2    75  GLY75       0.2612
     77  O         24.9630   42.7810   10.0920 O.2    75  GLY75      -0.2717
     78  N         24.7740   44.9640   10.6220 N.am   76  GLY76      -0.1956
     79  CA        24.8740   44.7650   12.0630 C.3    76  GLY76       0.1869
     80  C         23.8450   43.8320   12.6490 C.2    76  GLY76       0.2309
     81  O         24.0950   43.2130   13.6880 O.2    76  GLY76      -0.2863
     82  N         24.2170   40.0940   13.7830 N.3    79  HIS79      -0.1241
     83  CA        24.7640   39.6750   15.0600 C.3    79  HIS79       0.1621
     84  C         23.7620   39.8490   16.1940 C.2    79  HIS79       0.2264
     85  O         24.0040   39.3900   17.3080 O.2    79  HIS79      -0.2867
     86  CB        26.0520   40.4680   15.3670 C.3    79  HIS79       0.0745
     87  CG        26.9700   40.5630   14.2000 C.ar   79  HIS79       0.0817
     88  ND1       27.5490   39.4560   13.6190 N.ar   79  HIS79      -0.2268
     89  CD2       27.3450   41.6230   13.4500 C.ar   79  HIS79       0.1154
     90  CE1       28.2850   39.8410   12.5920 C.ar   79  HIS79       0.1986
     91  NE2       28.1720   41.1520   12.4660 N.ar   79  HIS79      -0.2212
     92  N         28.8620   38.3530    3.6980 N.3    99  HIS99      -0.1226
     93  CA        29.5300   39.5090    4.3110 C.3    99  HIS99       0.1752
     94  C         30.7510   39.8870    3.4650 C.2    99  HIS99       0.2596
     95  O         31.5550   39.0300    3.0590 O.2    99  HIS99      -0.2718
     96  CB        29.9030   39.2210    5.7750 C.3    99  HIS99       0.0759
     97  CG        28.7130   38.8400    6.6020 C.ar   99  HIS99       0.0818
     98  ND1       27.7290   39.7470    6.9350 N.ar   99  HIS99      -0.2268
     99  CD2       28.3100   37.6530    7.1020 C.ar   99  HIS99       0.1154
    100  CE1       26.7700   39.1350    7.5980 C.ar   99  HIS99       0.1986
    101  NE2       27.1100   37.8690    7.7370 N.ar   99  HIS99      -0.2212
    102  N         30.8500   41.1850    3.1830 N.am  100  ILE100     -0.1966
    103  CA        31.9310   41.7060    2.3830 C.3   100  ILE100      0.1727
    104  C         33.2660   41.5140    3.1450 C.2   100  ILE100      0.2616
    105  O         34.2170   40.9170    2.6050 O.2   100  ILE100     -0.2715
    106  CB        31.6650   43.1900    2.0010 C.3   100  ILE100      0.0290
    107  CG1       30.3950   43.3080    1.1230 C.3   100  ILE100      0.0022
    108  CG2       32.8800   43.7850    1.2760 C.3   100  ILE100      0.0023
    109  CD1       29.9870   44.7280    0.8720 C.3   100  ILE100      0.0001
    110  N         33.3180   41.9680    4.4000 N.am  101  SER101     -0.1950
    111  CA        34.5070   41.8060    5.2330 C.3   101  SER101      0.1924
    112  C         34.6020   40.3890    5.8380 C.2   101  SER101      0.2314
    113  O         33.5980   39.6420    5.9060 O.2   101  SER101     -0.2863
    114  CB        34.5050   42.8600    6.3480 C.3   101  SER101      0.2116
    115  OG        33.5150   42.6090    7.3570 O.3   101  SER101     -0.2180
    116  N         34.3410   38.6920    8.8230 N.3   103  VAL103     -0.1245
    117  CA        33.8140   38.9350   10.1680 C.3   103  VAL103      0.1561
    118  C         34.6140   38.1950   11.2730 C.2   103  VAL103      0.2260
    119  O         34.6160   38.6180   12.4330 O.2   103  VAL103     -0.2867
    120  CB        32.2630   38.5840   10.2790 C.3   103  VAL103      0.0252
    121  CG1       31.3990   39.4370    9.3040 C.3   103  VAL103      0.0019
    122  CG2       32.0170   37.1350   10.0230 C.3   103  VAL103      0.0019
    123  N         37.7020   40.2900   12.9500 N.3   106  ARG106     -0.1245
    124  CA        37.3260   41.5530   13.5560 C.3   106  ARG106      0.1563
    125  C         37.0230   41.2950   15.0430 C.2   106  ARG106      0.2260
    126  O         37.6570   40.4150   15.6530 O.2   106  ARG106     -0.2867
    127  CB        36.1300   42.1110   12.7840 C.3   106  ARG106      0.0307
    128  CG        36.4780   42.3990   11.2950 C.3   106  ARG106      0.0489
    129  CD        35.2800   42.9650   10.5370 C.3   106  ARG106      0.2205
    130  NE        35.0320   44.3350   10.9500 N.pl3 106  ARG106     -0.0865
    131  CZ        34.2060   45.1730   10.3370 C.cat 106  ARG106      0.5346
    132  NH1       33.4960   44.8030    9.2870 N.pl3 106  ARG106      0.1354
    133  NH2       34.0950   46.4060   10.7890 N.pl3 106  ARG106      0.1354
    134  N         31.2880   39.9660   16.2750 N.3   110  ARG110     -0.1245
    135  CA        30.9860   39.7130   14.8550 C.3   110  ARG110      0.1563
    136  C         31.1380   38.2490   14.3890 C.2   110  ARG110      0.2260
    137  O         30.7380   37.8870   13.2880 O.2   110  ARG110     -0.2867
    138  CB        31.8550   40.6060   13.9840 C.3   110  ARG110      0.0307
    139  CG        31.5980   42.0940   14.1900 C.3   110  ARG110      0.0489
    140  CD        32.2990   42.9330   13.1110 C.3   110  ARG110      0.2205
    141  NE        32.4600   44.2980   13.5910 N.pl3 110  ARG110     -0.0865
    142  CZ        31.5590   45.2700   13.4590 C.cat 110  ARG110      0.5346
    143  NH1       30.4040   45.0590   12.8000 N.pl3 110  ARG110      0.1354
    144  NH2       31.8240   46.4590   13.9800 N.pl3 110  ARG110      0.1354
@<TRIPOS>BOND
     1    42    40    1
     2    38    37    2
     3    40    39    1
     4    40    41    1
     5    57    56    2
     6    37    36    1
     7    39    36    1
     8    56    55    1
     9   109   107    1
    10    36    35    1
    11   107   106    1
    12    19    18    2
    13   108   106    1
    14    35    26   am
    15    55    58    1
    16    55    54    1
    17   106   103    1
    18    18    17    1
    19    26    27    2
    20    26    25    1
    21   103   104    1
    22   103   102    1
    23    58    59    1
    24   105   104    2
    25    22    21    1
    26    24    25    1
    27    20    17    1
    28    20    21    1
    29    25    28    1
    30    95    94    2
    31    70    71    1
    32    70    67    1
    33   104   110   am
    34    66    67    1
    35   102    94   am
    36    73    71   am
    37    17    16    1
    38    21    23    1
    39    94    93    1
    40    43    44    1
    41    92    93    1
    42    71    72    2
    43    59    60   ar
    44    59    61   ar
    45    33    32    1
    46    67    68    1
    47    93    96    1
    48    28    29    1
    49   110   111    1
    50    16    10   am
    51    69    68    2
    52    30    31    1
    53    30    29    1
    54    60    62   ar
    55    61    63   ar
    56    32    31    2
    57    32    34    1
    58    48    47    1
    59    48    49    1
    60    44    45    1
    61    44    47    1
    62    11    10    2
    63    45    46    2
    64   111   112    1
    65   111   114    1
    66    10     9    1
    67    49    50    1
    68    96    97    1
    69   112   113    2
    70    62    64   ar
    71    63    64   ar
    72   114   115    1
    73    97    98   ar
    74    97    99   ar
    75     9     8    1
    76     9    12    1
    77    64    65    1
    78    98   100   ar
    79     8     3   am
    80    50    51    2
    81    99   101   ar
    82     1     2    1
    83     1     7    1
    84     3     4    2
    85     3     2    1
    86    74    75    1
    87   100   101   ar
    88    12    13    1
    89     2     5    1
    90    52    51    1
    91    51    53    1
    92    75    76    1
    93     7     6    1
    94   116   117    1
    95    14    13    2
    96    13    15   am
    97   132   131    1
    98     5     6    1
    99   121   120    1
   100    76    77    2
   101    76    78   am
   102   122   120    1
   103   117   120    1
   104   117   118    1
   105   131   133    1
   106   131   130    2
   107   129   130    1
   108   129   128    1
   109    78    79    1
   110   118   119    2
   111   128   127    1
   112    79    80    1
   113    91    90   ar
   114    91    89   ar
   115    90    88   ar
   116    80    81    2
   117   127   124    1
   118   143   142    1
   119   123   124    1
   120   140   141    1
   121   140   139    1
   122   137   136    2
   123    89    87   ar
   124   142   141    2
   125   142   144    1
   126   124   125    1
   127    88    87   ar
   128    82    83    1
   129   138   139    1
   130   138   135    1
   131    87    86    1
   132   136   135    1
   133   135   134    1
   134   125   126    2
   135    83    86    1
   136    83    84    1
   137    84    85    2
