@<TRIPOS>MOLECULE
tmp/4b6sA00.pdb
 144 137 0 0 0
SMALL
GASTEIGER

@<TRIPOS>ATOM
      1  N         24.0980   40.8550  -15.8290 N.3     9  PRO9       -0.2102
      2  CA        23.6750   41.2450  -17.1710 C.3     9  PRO9        0.1504
      3  C         24.0330   42.6860  -17.5590 C.2     9  PRO9        0.2576
      4  O         23.9420   43.5940  -16.7370 O.2     9  PRO9       -0.2718
      5  CB        22.1420   41.0170  -17.1470 C.3     9  PRO9        0.0282
      6  CG        21.8040   41.0090  -15.7040 C.3     9  PRO9        0.0208
      7  CD        22.9620   40.4150  -15.0000 C.3     9  PRO9        0.0893
      8  N         24.4500   42.8620  -18.8130 N.am   10  ASN10      -0.1961
      9  CA        24.7660   44.1640  -19.4150 C.3    10  ASN10       0.1819
     10  C         26.0830   44.8030  -18.9760 C.2    10  ASN10       0.2621
     11  O         26.4650   45.8060  -19.5390 O.2    10  ASN10      -0.2715
     12  CB        23.5930   45.1470  -19.2780 C.3    10  ASN10       0.1195
     13  CG        22.3440   44.6610  -19.9800 C.2    10  ASN10       0.2630
     14  OD1       22.3830   44.3110  -21.1510 O.2    10  ASN10      -0.2716
     15  ND2       21.2440   44.5830  -19.2530 N.am   10  ASN10      -0.0877
     16  N         26.7680   44.2170  -17.9990 N.am   11  LEU11      -0.1977
     17  CA        28.0420   44.7660  -17.5010 C.3    11  LEU11       0.1596
     18  C         29.1030   44.7060  -18.5730 C.2    11  LEU11       0.2287
     19  O         30.0110   45.5470  -18.6220 O.2    11  LEU11      -0.2864
     20  CB        28.5160   44.0370  -16.2610 C.3    11  LEU11       0.0297
     21  CG        28.1330   44.6300  -14.8900 C.3    11  LEU11       0.0022
     22  CD1       28.7300   46.0370  -14.7340 C.3    11  LEU11       0.0001
     23  CD2       26.6820   44.6820  -14.6720 C.3    11  LEU11       0.0001
     24  N         28.5880   45.6380  -21.4350 N.3    13  MET13      -0.1230
     25  CA        28.3300   46.7640  -22.3440 C.3    13  MET13       0.1702
     26  C         28.8890   48.0980  -21.8970 C.2    13  MET13       0.2592
     27  O         28.6590   49.1250  -22.5610 O.2    13  MET13      -0.2718
     28  CB        26.8350   46.9150  -22.6130 C.3    13  MET13       0.0401
     29  CG        26.2100   45.6690  -23.1830 C.3    13  MET13       0.0596
     30  SD        26.8560   45.0050  -24.7630 S.3    13  MET13      -0.1393
     31  CE        26.1760   46.0820  -26.0320 C.3    13  MET13       0.0692
     32  N         29.5950   48.0930  -20.7750 N.am   14  LEU14      -0.1980
     33  CA        30.3380   49.2700  -20.2720 C.3    14  LEU14       0.1596
     34  C         31.3100   49.8440  -21.2760 C.2    14  LEU14       0.2287
     35  O         32.1010   49.1080  -21.8620 O.2    14  LEU14      -0.2864
     36  CB        31.1770   48.8840  -19.0770 C.3    14  LEU14       0.0297
     37  CG        30.4240   48.8030  -17.7820 C.3    14  LEU14       0.0022
     38  CD1       31.3190   48.1050  -16.8200 C.3    14  LEU14       0.0001
     39  CD2       30.0630   50.2080  -17.2940 C.3    14  LEU14       0.0001
     40  N         28.2180   52.0110  -24.4910 N.3    17  ARG17      -0.1245
     41  CA        26.9250   52.7170  -24.4160 C.3    17  ARG17       0.1563
     42  C         26.7860   53.4900  -23.1140 C.2    17  ARG17       0.2260
     43  O         27.3420   53.0940  -22.0820 O.2    17  ARG17      -0.2867
     44  CB        25.7320   51.7640  -24.5160 C.3    17  ARG17       0.0307
     45  CG        25.4020   51.2630  -25.9310 C.3    17  ARG17       0.0489
     46  CD        24.9590   52.3700  -26.8740 C.3    17  ARG17       0.2205
     47  NE        24.8060   51.8550  -28.2360 N.pl3  17  ARG17      -0.0865
     48  CZ        24.6360   52.6150  -29.3180 C.cat  17  ARG17       0.5346
     49  NH1       24.5960   53.9440  -29.2100 N.pl3  17  ARG17       0.1354
     50  NH2       24.5080   52.0490  -30.5180 N.pl3  17  ARG17       0.1354
     51  N         27.1520   55.5940  -16.4850 N.3    22  TYR22      -0.1241
     52  CA        28.3120   54.7340  -16.2290 C.3    22  TYR22       0.1605
     53  C         29.5580   55.4670  -16.7840 C.2    22  TYR22       0.2264
     54  O         29.5380   56.7000  -16.9260 O.2    22  TYR22      -0.2867
     55  CB        28.0580   53.3060  -16.7820 C.3    22  TYR22       0.0534
     56  CG        26.6070   52.8780  -16.5640 C.ar   22  TYR22      -0.0201
     57  CD1       26.0670   52.8080  -15.2710 C.ar   22  TYR22      -0.0009
     58  CD2       25.7500   52.6240  -17.6450 C.ar   22  TYR22      -0.0009
     59  CE1       24.7130   52.4730  -15.0470 C.ar   22  TYR22       0.0417
     60  CE2       24.3810   52.2760  -17.4280 C.ar   22  TYR22       0.0417
     61  CZ        23.8760   52.2070  -16.1200 C.ar   22  TYR22       0.1957
     62  OH        22.5550   51.8690  -15.8730 O.3    22  TYR22      -0.2866
     63  N         28.6420   41.7180   -8.9640 N.3    76  ASN76      -0.1240
     64  CA        27.6810   42.7420   -9.3710 C.3    76  ASN76       0.1653
     65  C         26.5820   42.0130  -10.1780 C.2    76  ASN76       0.2266
     66  O         26.8050   41.7150  -11.3200 O.2    76  ASN76      -0.2867
     67  CB        28.3730   43.8230  -10.2260 C.3    76  ASN76       0.1155
     68  CG        27.4270   44.9820  -10.6390 C.2    76  ASN76       0.2627
     69  OD1       26.1840   44.8770  -10.6050 O.2    76  ASN76      -0.2716
     70  ND2       28.0250   46.1020  -11.0210 N.am   76  ASN76      -0.0877
     71  N         23.9030   43.0680  -11.3540 N.3    78  GLY78      -0.1210
     72  CA        23.2610   43.8420  -12.4210 C.3    78  GLY78       0.1956
     73  C         21.7790   43.9980  -12.0530 C.2    78  GLY78       0.2611
     74  O         21.4560   44.1290  -10.8830 O.2    78  GLY78      -0.2717
     75  N         20.8900   43.9600  -13.0350 N.am   79  ALA79      -0.1979
     76  CA        19.4650   44.1070  -12.7590 C.3    79  ALA79       0.1597
     77  C         18.8520   42.9300  -11.9640 C.2    79  ALA79       0.2287
     78  O         17.8060   43.0990  -11.3110 O.2    79  ALA79      -0.2864
     79  CB        18.6770   44.3640  -14.0720 C.3    79  ALA79       0.0319
     80  N         17.8010   43.1730   -8.1050 N.3    82  HIS82      -0.1241
     81  CA        16.5200   43.6600   -7.6510 C.3    82  HIS82       0.1621
     82  C         15.4390   42.5980   -7.7540 C.2    82  HIS82       0.2264
     83  O         14.4120   42.7140   -7.0990 O.2    82  HIS82      -0.2867
     84  CB        16.0870   44.9010   -8.4390 C.3    82  HIS82       0.0745
     85  CG        17.2130   45.8380   -8.7490 C.ar   82  HIS82       0.0817
     86  ND1       17.9020   46.5210   -7.7770 N.ar   82  HIS82      -0.2268
     87  CD2       17.7630   46.2090   -9.9320 C.ar   82  HIS82       0.1154
     88  CE1       18.8510   47.2510   -8.3380 C.ar   82  HIS82       0.1986
     89  NE2       18.7860   47.0840   -9.6520 N.ar   82  HIS82      -0.2212
     90  N         27.9410   47.7280   -6.8510 N.3   102  HIS102     -0.1226
     91  CA        27.2710   48.4300   -7.9310 C.3   102  HIS102      0.1752
     92  C         28.0830   49.6310   -8.3460 C.2   102  HIS102      0.2596
     93  O         28.6520   50.3170   -7.5140 O.2   102  HIS102     -0.2718
     94  CB        25.8690   48.8650   -7.4810 C.3   102  HIS102      0.0759
     95  CG        25.0090   47.7190   -7.0660 C.ar  102  HIS102      0.0818
     96  ND1       24.3560   46.9140   -7.9740 N.ar  102  HIS102     -0.2268
     97  CD2       24.7120   47.2220   -5.8460 C.ar  102  HIS102      0.1154
     98  CE1       23.6990   45.9690   -7.3310 C.ar  102  HIS102      0.1986
     99  NE2       23.8940   46.1410   -6.0380 N.ar  102  HIS102     -0.2212
    100  N         28.1530   49.8750   -9.6480 N.am  103  LEU103     -0.1966
    101  CA        28.8050   51.1020  -10.1530 C.3   103  LEU103      0.1728
    102  C         28.0440   52.3170   -9.6750 C.2   103  LEU103      0.2616
    103  O         28.6420   53.3110   -9.2520 O.2   103  LEU103     -0.2715
    104  CB        28.8970   51.0870  -11.6770 C.3   103  LEU103      0.0311
    105  CG        29.6940   49.9470  -12.3070 C.3   103  LEU103      0.0022
    106  CD1       29.5760   50.0740  -13.8310 C.3   103  LEU103      0.0001
    107  CD2       31.1440   50.0690  -11.9220 C.3   103  LEU103      0.0001
    108  N         26.7210   52.2270   -9.6930 N.am  104  THR104     -0.1951
    109  CA        25.9070   53.3780   -9.4210 C.3   104  THR104      0.1897
    110  C         25.3470   53.2590   -8.0360 C.2   104  THR104      0.2313
    111  O         25.3790   52.1750   -7.4300 O.2   104  THR104     -0.2863
    112  CB        24.7590   53.5740  -10.4580 C.3   104  THR104      0.1794
    113  OG1       23.8690   52.4450  -10.4320 O.3   104  THR104     -0.2208
    114  CG2       25.3340   53.7320  -11.8680 C.3   104  THR104      0.0378
    115  N         22.3480   52.7570   -6.0020 N.3   106  ILE106     -0.1245
    116  CA        21.0130   52.2300   -6.2460 C.3   106  ILE106      0.1561
    117  C         19.9220   52.7580   -5.3260 C.2   106  ILE106      0.2260
    118  O         18.7450   52.4620   -5.5710 O.2   106  ILE106     -0.2867
    119  CB        20.9650   50.6750   -6.3680 C.3   106  ILE106      0.0252
    120  CG1       21.5410   49.9820   -5.1220 C.3   106  ILE106      0.0019
    121  CG2       21.7030   50.2560   -7.6230 C.3   106  ILE106      0.0019
    122  CD1       21.0700   48.5150   -4.9030 C.3   106  ILE106      0.0001
    123  N         18.2190   56.2540   -7.6670 N.3   109  ARG109     -0.1245
    124  CA        17.7320   56.1100   -9.0330 C.3   109  ARG109      0.1563
    125  C         16.2600   55.7370   -8.9220 C.2   109  ARG109      0.2260
    126  O         15.6010   56.1410   -7.9740 O.2   109  ARG109     -0.2867
    127  CB        18.5680   55.0600   -9.7920 C.3   109  ARG109      0.0307
    128  CG        20.0800   55.2470   -9.6250 C.3   109  ARG109      0.0489
    129  CD        20.9110   54.3500  -10.5230 C.3   109  ARG109      0.2205
    130  NE        20.3920   54.3810  -11.8760 N.pl3 109  ARG109     -0.0865
    131  CZ        20.8580   53.6470  -12.8790 C.cat 109  ARG109      0.5346
    132  NH1       21.8570   52.7970  -12.6950 N.pl3 109  ARG109      0.1354
    133  NH2       20.3030   53.7500  -14.0650 N.pl3 109  ARG109      0.1354
    134  N         14.9080   50.0250   -8.4680 N.3   113  ARG113     -0.1245
    135  CA        16.2830   49.6250   -8.2080 C.3   113  ARG113      0.1563
    136  C         16.6460   49.5810   -6.7150 C.2   113  ARG113      0.2260
    137  O         17.7080   49.0890   -6.3680 O.2   113  ARG113     -0.2867
    138  CB        17.3050   50.5270   -8.9430 C.3   113  ARG113      0.0307
    139  CG        17.1640   50.5420  -10.4230 C.3   113  ARG113      0.0489
    140  CD        18.3790   51.1730  -11.1190 C.3   113  ARG113      0.2205
    141  NE        18.0560   51.4780  -12.5360 N.pl3 113  ARG113     -0.0865
    142  CZ        18.1810   50.6480  -13.5760 C.cat 113  ARG113      0.5346
    143  NH1       18.6520   49.4170  -13.4460 N.pl3 113  ARG113      0.1354
    144  NH2       17.8180   51.0650  -14.7850 N.pl3 113  ARG113      0.1354
@<TRIPOS>BOND
     1    50    48    1
     2    48    49    1
     3    48    47    2
     4    47    46    1
     5    46    45    1
     6    31    30    1
     7    45    44    1
     8    30    29    1
     9    44    41    1
    10    40    41    1
    11    41    42    1
    12    29    28    1
    13    42    43    2
    14    28    25    1
    15    27    26    2
    16    25    26    1
    17    25    24    1
    18    26    32   am
    19    35    34    2
    20    34    33    1
    21    14    13    2
    22    32    33    1
    23    33    36    1
    24    13    12    1
    25    13    15   am
    26    11    10    2
    27     9    12    1
    28     9    10    1
    29     9     8    1
    30    36    37    1
    31    10    16   am
    32     8     3   am
    33    19    18    2
    34    18    17    1
    35    16    17    1
    36    37    39    1
    37    37    38    1
    38    58    60   ar
    39    58    56   ar
    40     3     2    1
    41     3     4    2
    42    17    20    1
    43    60    61   ar
    44     2     5    1
    45     2     1    1
    46     5     6    1
    47    54    53    2
    48    53    52    1
    49    55    56    1
    50    55    52    1
    51    56    57   ar
    52    51    52    1
    53    20    21    1
    54    61    62    1
    55    61    59   ar
    56     1     7    1
    57     6     7    1
    58    57    59   ar
    59    21    22    1
    60    21    23    1
    61   144   142    1
    62    79    76    1
    63   133   131    1
    64   106   105    1
    65   142   143    1
    66   142   141    2
    67    75    76    1
    68    75    73   am
    69   131   132    1
    70   131   130    2
    71    76    77    1
    72   141   140    1
    73    72    73    1
    74    72    71    1
    75   105   107    1
    76   105   104    1
    77    73    74    2
    78    77    78    2
    79   130   129    1
    80   114   112    1
    81   104   101    1
    82    66    65    2
    83   140   139    1
    84    70    68   am
    85    68    69    2
    86    68    67    1
    87   129   128    1
    88   112   113    1
    89   112   109    1
    90   139   138    1
    91    67    64    1
    92    65    64    1
    93   101   102    1
    94   101   100    1
    95    87    89   ar
    96    87    85   ar
    97   127   128    1
    98   127   124    1
    99   108   102   am
   100   108   109    1
   101   102   103    2
   102    89    88   ar
   103   100    92   am
   104   109   110    1
   105    64    63    1
   106   124   125    1
   107   124   123    1
   108   138   135    1
   109   125   126    2
   110    85    84    1
   111    85    86   ar
   112   134   135    1
   113    84    81    1
   114    92    91    1
   115    92    93    2
   116    88    86   ar
   117   135   136    1
   118    80    81    1
   119   110   111    2
   120    96    98   ar
   121    96    95   ar
   122    91    94    1
   123    91    90    1
   124    82    81    1
   125    82    83    2
   126   121   119    1
   127    94    95    1
   128    98    99   ar
   129    95    97   ar
   130   136   137    2
   131   119   116    1
   132   119   120    1
   133   116   115    1
   134   116   117    1
   135    99    97   ar
   136   118   117    2
   137   120   122    1
