@<TRIPOS>MOLECULE
tmp/4b70A00.pdb
 139 132 0 0 0
SMALL
GASTEIGER

@<TRIPOS>ATOM
      1  N         -0.8690   -8.1780  -14.5460 N.3    11  SER11      -0.1202
      2  CA        -0.1340   -6.9930  -14.0890 C.3    11  SER11       0.2020
      3  C          1.3640   -6.9530  -14.4480 C.2    11  SER11       0.2619
      4  O          1.8690   -5.8860  -14.7840 O.2    11  SER11      -0.2717
      5  CB        -0.3180   -6.7920  -12.5850 C.3    11  SER11       0.2103
      6  OG         0.2900   -7.8340  -11.8470 O.3    11  SER11      -0.2182
      7  N          2.0530   -8.1060  -14.3700 N.am   12  GLY12      -0.1942
      8  CA         3.4840   -8.2040  -14.6530 C.3    12  GLY12       0.2014
      9  C          3.9350   -7.9170  -16.0830 C.2    12  GLY12       0.2639
     10  O          5.0500   -7.4230  -16.2880 O.2    12  GLY12      -0.2714
     11  N          3.0990   -8.2570  -17.0810 N.am   13  GLN13      -0.1963
     12  CA         3.4700   -8.0660  -18.4950 C.3    13  GLN13       0.1733
     13  C          2.5190   -7.1630  -19.2220 C.2    13  GLN13       0.2616
     14  O          2.7520   -6.8810  -20.3960 O.2    13  GLN13      -0.2715
     15  CB         3.5890   -9.4010  -19.2460 C.3    13  GLN13       0.0408
     16  CG         4.9290  -10.1150  -19.0370 C.3    13  GLN13       0.0908
     17  CD         5.0160  -11.4960  -19.6610 C.2    13  GLN13       0.2608
     18  OE1        4.0110  -12.1700  -19.9410 O.2    13  GLN13      -0.2717
     19  NE2        6.2390  -11.9710  -19.8490 N.am   13  GLN13      -0.0878
     20  N          1.4750   -6.7200  -18.5270 N.am   14  GLY14      -0.1955
     21  CA         0.4790   -5.8150  -19.0640 C.3    14  GLY14       0.1869
     22  C         -0.7830   -6.4680  -19.5590 C.2    14  GLY14       0.2309
     23  O         -0.8100   -7.6730  -19.8430 O.2    14  GLY14      -0.2863
     24  N         -1.1590   -3.2070  -25.7850 N.3    31  LEU31      -0.1245
     25  CA        -1.1090   -2.8890  -24.3540 C.3    31  LEU31       0.1561
     26  C         -2.0280   -1.6720  -24.0670 C.2    31  LEU31       0.2260
     27  O         -1.9260   -0.6630  -24.7560 O.2    31  LEU31      -0.2867
     28  CB         0.3310   -2.5500  -23.9580 C.3    31  LEU31       0.0270
     29  CG         0.5470   -2.1950  -22.4720 C.3    31  LEU31       0.0019
     30  CD1        0.5170   -3.4310  -21.6050 C.3    31  LEU31       0.0001
     31  CD2        1.7970   -1.3530  -22.2580 C.3    31  LEU31       0.0001
     32  N         -2.6340    1.3340  -22.0090 N.3    33  ASP33      -0.1239
     33  CA        -1.7550    2.1340  -21.1550 C.3    33  ASP33       0.1674
     34  C         -2.3080    3.5290  -20.8070 C.2    33  ASP33       0.2266
     35  O         -2.2500    4.4500  -21.6340 O.2    33  ASP33      -0.2867
     36  CB        -0.4060    2.2420  -21.8510 C.3    33  ASP33       0.1410
     37  CG         0.7060    2.9020  -21.0530 C.2    33  ASP33       0.3668
     38  OD1        0.4970    3.1620  -19.8260 O.co2  33  ASP33      -0.2456
     39  OD2        1.8100    3.0660  -21.6220 O.co2  33  ASP33      -0.2456
     40  N         -0.9010    5.4930  -18.8220 N.3    35  GLY35      -0.1210
     41  CA         0.3090    6.2200  -18.4560 C.3    35  GLY35       0.1956
     42  C          1.1190    6.8180  -19.5930 C.2    35  GLY35       0.2612
     43  O          2.1850    7.3650  -19.3490 O.2    35  GLY35      -0.2717
     44  N          0.6300    6.7080  -20.8450 N.am   36  SER36      -0.1952
     45  CA         1.2980    7.2830  -21.9970 C.3    36  SER36       0.1924
     46  C          0.2370    7.7320  -22.9860 C.2    36  SER36       0.2314
     47  O         -0.9500    7.3810  -22.8080 O.2    36  SER36      -0.2863
     48  CB         2.2920    6.2900  -22.5990 C.3    36  SER36       0.2116
     49  OG         1.6380    5.1630  -23.1580 O.3    36  SER36      -0.2180
     50  N         12.7800    5.5150  -22.6750 N.3    72  TYR72      -0.1241
     51  CA        12.1820    5.2960  -21.3520 C.3    72  TYR72       0.1605
     52  C         13.3590    5.0650  -20.3950 C.2    72  TYR72       0.2264
     53  O         14.5080    5.0850  -20.8410 O.2    72  TYR72      -0.2867
     54  CB        11.2530    4.0540  -21.3410 C.3    72  TYR72       0.0534
     55  CG        10.1280    4.0740  -22.3590 C.ar   72  TYR72      -0.0201
     56  CD1        9.0730    4.9790  -22.2470 C.ar   72  TYR72      -0.0009
     57  CD2       10.0750    3.1350  -23.3840 C.ar   72  TYR72      -0.0009
     58  CE1        8.0330    4.9960  -23.1770 C.ar   72  TYR72       0.0417
     59  CE2        9.0260    3.1230  -24.3000 C.ar   72  TYR72       0.0417
     60  CZ         8.0060    4.0500  -24.1900 C.ar   72  TYR72       0.1957
     61  OH         6.9690    4.0030  -25.0930 O.3    72  TYR72      -0.2866
     62  N         12.3820   -3.0810  -25.0780 N.3   109  PHE109     -0.1241
     63  CA        11.0120   -2.5620  -25.0760 C.3   109  PHE109      0.1605
     64  C          9.9820   -3.6990  -25.1720 C.2   109  PHE109      0.2264
     65  O          9.1260   -3.8510  -24.2850 O.2   109  PHE109     -0.2867
     66  CB        10.8480   -1.5430  -26.2110 C.3   109  PHE109      0.0534
     67  CG         9.4330   -1.0800  -26.4310 C.ar  109  PHE109     -0.0203
     68  CD1        8.8100   -0.2480  -25.5150 C.ar  109  PHE109     -0.0042
     69  CD2        8.7230   -1.4790  -27.5530 C.ar  109  PHE109     -0.0042
     70  CE1        7.5110    0.1980  -25.7330 C.ar  109  PHE109     -0.0003
     71  CE2        7.4300   -1.0170  -27.7730 C.ar  109  PHE109     -0.0003
     72  CZ         6.8250   -0.2060  -26.8510 C.ar  109  PHE109     -0.0000
     73  N          8.6140   -7.4170  -24.8290 N.3   111  ILE111     -0.1245
     74  CA         8.8300   -8.4330  -23.8020 C.3   111  ILE111      0.1561
     75  C          8.4300   -9.7920  -24.3420 C.2   111  ILE111      0.2260
     76  O          7.3210   -9.9530  -24.8580 O.2   111  ILE111     -0.2867
     77  CB         8.0600   -8.0730  -22.4860 C.3   111  ILE111      0.0252
     78  CG1        8.4640   -6.6770  -21.9640 C.3   111  ILE111      0.0019
     79  CG2        8.2380   -9.1600  -21.3990 C.3   111  ILE111      0.0019
     80  CD1        7.4490   -6.0050  -21.1570 C.3   111  ILE111      0.0001
     81  N          1.7820   -9.0620  -26.6330 N.3   116  TRP116     -0.1241
     82  CA         1.3490   -7.7830  -27.2280 C.3   116  TRP116      0.1605
     83  C          2.4230   -7.2260  -28.1840 C.2   116  TRP116      0.2264
     84  O          3.6130   -7.5220  -28.0220 O.2   116  TRP116     -0.2867
     85  CB         0.8130   -6.7770  -26.2090 C.3   116  TRP116      0.0550
     86  CG         1.7190   -6.4600  -25.0680 C.ar  116  TRP116      0.0003
     87  CD1        1.5850   -6.8920  -23.7840 C.ar  116  TRP116      0.0946
     88  CD2        2.7740   -5.4910  -25.0540 C.ar  116  TRP116      0.0152
     89  NE1        2.5580   -6.3300  -22.9890 N.ar  116  TRP116     -0.2442
     90  CE2        3.2960   -5.4590  -23.7370 C.ar  116  TRP116      0.0810
     91  CE3        3.3730   -4.6830  -26.0390 C.ar  116  TRP116      0.0012
     92  CZ2        4.3840   -4.6550  -23.3790 C.ar  116  TRP116      0.0191
     93  CZ3        4.4500   -3.8860  -25.6860 C.ar  116  TRP116      0.0001
     94  CH2        4.9460   -3.8780  -24.3670 C.ar  116  TRP116      0.0015
     95  N          1.4450   -0.4450  -28.1490 N.3   119  ILE119     -0.1245
     96  CA         0.9000    0.2480  -26.9820 C.3   119  ILE119      0.1561
     97  C         -0.1770    1.2630  -27.3910 C.2   119  ILE119      0.2260
     98  O          0.0110    2.0150  -28.3540 O.2   119  ILE119     -0.2867
     99  CB         2.0340    0.9240  -26.1740 C.3   119  ILE119      0.0252
    100  CG1        3.0550   -0.1300  -25.6590 C.3   119  ILE119      0.0019
    101  CG2        1.4670    1.6860  -24.9710 C.3   119  ILE119      0.0019
    102  CD1        4.1880    0.4830  -24.7530 C.3   119  ILE119      0.0001
    103  N         -2.0450    4.6140  -13.5200 N.3   216  ASP216     -0.1225
    104  CA        -1.3300    4.0620  -14.6780 C.3   216  ASP216      0.1805
    105  C         -1.4920    2.5540  -14.8800 C.2   216  ASP216      0.2598
    106  O         -0.8250    1.7670  -14.2150 O.2   216  ASP216     -0.2718
    107  CB         0.1570    4.4320  -14.5580 C.3   216  ASP216      0.1424
    108  CG         0.9820    4.0940  -15.7860 C.2   216  ASP216      0.3668
    109  OD1        0.3980    3.5830  -16.7820 O.co2 216  ASP216     -0.2456
    110  OD2        2.2190    4.3380  -15.7610 O.co2 216  ASP216     -0.2456
    111  N         -2.3090    2.1680  -15.8650 N.am  217  SER217     -0.1938
    112  CA        -2.5250    0.7490  -16.1970 C.3   217  SER217      0.2055
    113  C         -1.2580    0.1250  -16.8490 C.2   217  SER217      0.2644
    114  O         -1.1540   -1.0980  -16.9210 O.2   217  SER217     -0.2714
    115  CB        -3.7210    0.6210  -17.1340 C.3   217  SER217      0.2130
    116  OG        -3.4840    1.2550  -18.3860 O.3   217  SER217     -0.2179
    117  N         -0.3410    0.9820  -17.3330 N.am  218  GLY218     -0.1939
    118  CA         0.9360    0.5960  -17.9580 C.3   218  GLY218      0.2014
    119  C          2.1470    0.4870  -17.0400 C.2   218  GLY218      0.2640
    120  O          3.2850    0.3330  -17.5060 O.2   218  GLY218     -0.2714
    121  N          1.9160    0.5210  -15.7270 N.am  219  THR219     -0.1936
    122  CA         2.9570    0.2890  -14.7180 C.3   219  THR219      0.2028
    123  C          2.4240   -0.8360  -13.8730 C.2   219  THR219      0.2642
    124  O          1.2400   -0.7850  -13.5050 O.2   219  THR219     -0.2714
    125  CB         3.1770    1.5380  -13.8370 C.3   219  THR219      0.1808
    126  OG1        3.8330    2.5380  -14.6130 O.3   219  THR219     -0.2208
    127  CG2        4.0360    1.2210  -12.5660 C.3   219  THR219      0.0379
    128  N          3.2530   -1.8580  -13.5920 N.am  220  THR220     -0.1950
    129  CA         2.8170   -2.9850  -12.7690 C.3   220  THR220      0.1897
    130  C          2.5810   -2.5650  -11.3020 C.2   220  THR220      0.2313
    131  O          1.5170   -2.8210  -10.7420 O.2   220  THR220     -0.2863
    132  CB         3.9100   -4.0950  -12.7890 C.3   220  THR220      0.1794
    133  OG1        4.1090   -4.5450  -14.1360 O.3   220  THR220     -0.2208
    134  CG2        3.5470   -5.2980  -11.8950 C.3   220  THR220      0.0378
    135  N         -1.0850   -1.2350  -12.1400 N.3   323  ALA323     -0.1245
    136  CA        -2.0490   -2.3020  -12.3740 C.3   323  ALA323      0.1562
    137  C         -2.3720   -3.1130  -11.1340 C.2   323  ALA323      0.2260
    138  O         -3.5470   -3.4560  -10.9580 O.2   323  ALA323     -0.2867
    139  CB        -1.5750   -3.2100  -13.4920 C.3   323  ALA323      0.0290
@<TRIPOS>BOND
     1    98    97    2
     2    83    84    2
     3    83    82    1
     4    95    96    1
     5    71    69   ar
     6    71    72   ar
     7    69    67   ar
     8    97    96    1
     9    82    81    1
    10    82    85    1
    11    96    99    1
    12    72    70   ar
    13    67    66    1
    14    67    68   ar
    15    66    63    1
    16    85    86    1
    17    99   100    1
    18    99   101    1
    19    91    93   ar
    20    91    88   ar
    21    24    25    1
    22    70    68   ar
    23    93    94   ar
    24   100   102    1
    25    64    63    1
    26    64    65    2
    27    61    60    1
    28    62    63    1
    29    86    88   ar
    30    86    87   ar
    31    88    90   ar
    32    76    75    2
    33    73    74    1
    34    27    26    2
    35    94    92   ar
    36    25    26    1
    37    25    28    1
    38    75    74    1
    39    59    60   ar
    40    59    57   ar
    41    60    58   ar
    42    28    29    1
    43    74    77    1
    44    87    89   ar
    45    90    92   ar
    46    90    89   ar
    47    57    55   ar
    48    58    56   ar
    49    49    48    1
    50    46    47    2
    51    46    45    1
    52    50    51    1
    53    48    45    1
    54    77    78    1
    55    77    79    1
    56    29    31    1
    57    29    30    1
    58    55    56   ar
    59    55    54    1
    60    32    33    1
    61    45    44    1
    62    78    80    1
    63    36    33    1
    64    36    37    1
    65    35    34    2
    66    39    37   ar
    67    51    54    1
    68    51    52    1
    69    33    34    1
    70    37    38   ar
    71    44    42   am
    72    53    52    2
    73    14    13    2
    74    18    17    2
    75    19    17   am
    76    23    22    2
    77    17    16    1
    78    42    43    2
    79    42    41    1
    80    22    21    1
    81    15    16    1
    82    15    12    1
    83    13    20   am
    84    13    12    1
    85    21    20    1
    86    40    41    1
    87    12    11    1
    88   116   115    1
    89   118   117    1
    90   118   119    1
    91   120   119    2
    92   117   113   am
    93   115   112    1
    94    11     9   am
    95   119   121   am
    96   114   113    2
    97   113   112    1
    98   109   108   ar
    99    10     9    2
   100   112   111    1
   101     9     8    1
   102   111   105   am
   103   108   110   ar
   104   108   107    1
   105   121   122    1
   106   105   104    1
   107   105   106    2
   108     4     3    2
   109   122   123    1
   110   122   125    1
   111   104   107    1
   112   104   103    1
   113     8     7    1
   114   126   125    1
   115     1     2    1
   116     3     7   am
   117     3     2    1
   118   133   132    1
   119     2     5    1
   120   123   128   am
   121   123   124    2
   122   125   127    1
   123   128   129    1
   124   139   136    1
   125   132   129    1
   126   132   134    1
   127   129   130    1
   128     5     6    1
   129   136   135    1
   130   136   137    1
   131   130   131    2
   132   137   138    2
