@<TRIPOS>MOLECULE
tmp/4b71B00.pdb
 154 148 0 0 0
SMALL
GASTEIGER

@<TRIPOS>ATOM
      1  N         44.8060   13.9860  -37.0790 N.3    67  TYR67      -0.1227
      2  CA        44.8650   14.2720  -38.5200 C.3    67  TYR67       0.1736
      3  C         43.5170   14.0370  -39.2200 C.2    67  TYR67       0.2595
      4  O         43.1730   14.7660  -40.1500 O.2    67  TYR67      -0.2718
      5  CB        45.9680   13.4490  -39.2570 C.3    67  TYR67       0.0548
      6  CG        46.1180   13.8510  -40.7290 C.ar   67  TYR67      -0.0200
      7  CD1       46.8140   15.0110  -41.0950 C.ar   67  TYR67      -0.0009
      8  CD2       45.5660   13.0760  -41.7540 C.ar   67  TYR67      -0.0009
      9  CE1       46.9560   15.3860  -42.4230 C.ar   67  TYR67       0.0417
     10  CE2       45.7030   13.4450  -43.0880 C.ar   67  TYR67       0.0417
     11  CZ        46.4000   14.6030  -43.4170 C.ar   67  TYR67       0.1957
     12  OH        46.5420   14.9810  -44.7390 O.3    67  TYR67      -0.2866
     13  N         42.7570   13.0340  -38.7850 N.am   68  HIS68      -0.1975
     14  CA        41.5240   12.6790  -39.4960 C.3    68  HIS68       0.1656
     15  C         40.4060   13.6630  -39.2920 C.2    68  HIS68       0.2291
     16  O         39.4130   13.5530  -39.9680 O.2    68  HIS68      -0.2864
     17  CB        41.0550   11.2650  -39.1560 C.3    68  HIS68       0.0771
     18  CG        40.4250   11.1060  -37.8050 C.ar   68  HIS68       0.0820
     19  ND1       41.1040   10.5720  -36.7260 N.ar   68  HIS68      -0.2267
     20  CD2       39.1790   11.4040  -37.3550 C.ar   68  HIS68       0.1154
     21  CE1       40.3060   10.5500  -35.6690 C.ar   68  HIS68       0.1986
     22  NE2       39.1310   11.0490  -36.0220 N.ar   68  HIS68      -0.2212
     23  N         51.0770   12.1940  -40.1180 N.3    89  VAL89      -0.1231
     24  CA        49.9400   11.4890  -40.6820 C.3    89  VAL89       0.1692
     25  C         49.9150   10.0490  -40.2190 C.2    89  VAL89       0.2592
     26  O         48.8530    9.4920  -39.9580 O.2    89  VAL89      -0.2718
     27  CB        49.9520   11.5500  -42.2300 C.3    89  VAL89       0.0266
     28  CG1       48.7800   10.7270  -42.8350 C.3    89  VAL89       0.0020
     29  CG2       49.8930   13.0080  -42.7060 C.3    89  VAL89       0.0020
     30  N         51.0910    9.4420  -40.1190 N.am   90  ASP90      -0.1960
     31  CA        51.2280    8.0180  -39.7870 C.3    90  ASP90       0.1840
     32  C         50.6660    7.6640  -38.4140 C.2    90  ASP90       0.2622
     33  O         50.1780    6.5410  -38.2260 O.2    90  ASP90      -0.2715
     34  CB        52.7000    7.5850  -39.8670 C.3    90  ASP90       0.1450
     35  CG        53.2720    7.6620  -41.2970 C.2    90  ASP90       0.3671
     36  OD1       52.6860    7.0610  -42.2270 O.co2  90  ASP90      -0.2456
     37  OD2       54.3140    8.3290  -41.4850 O.co2  90  ASP90      -0.2456
     38  N         50.7390    8.6170  -37.4700 N.am   91  GLN91      -0.1963
     39  CA        50.2560    8.4160  -36.1120 C.3    91  GLN91       0.1733
     40  C         48.8950    9.1070  -35.8470 C.2    91  GLN91       0.2616
     41  O         48.3530    9.0340  -34.7260 O.2    91  GLN91      -0.2715
     42  CB        51.2850    8.9470  -35.1020 C.3    91  GLN91       0.0408
     43  CG        52.7100    8.4730  -35.2750 C.3    91  GLN91       0.0908
     44  CD        52.9470    7.0910  -34.7270 C.2    91  GLN91       0.2608
     45  OE1       52.1770    6.1710  -34.9890 O.2    91  GLN91      -0.2717
     46  NE2       54.0260    6.9340  -33.9550 N.am   91  GLN91      -0.0878
     47  N         48.3610    9.7660  -36.8740 N.am   92  ASP92      -0.1971
     48  CA        47.0690   10.4410  -36.8100 C.3    92  ASP92       0.1709
     49  C         47.1610   11.5700  -35.7950 C.2    92  ASP92       0.2293
     50  O         46.2670   11.7290  -34.9540 O.2    92  ASP92      -0.2864
     51  CB        45.9310    9.4500  -36.4570 C.3    92  ASP92       0.1436
     52  CG        44.5260   10.0090  -36.7310 C.2    92  ASP92       0.3671
     53  OD1       44.3720   11.1030  -37.3130 O.co2  92  ASP92      -0.2456
     54  OD2       43.5450    9.3330  -36.3560 O.co2  92  ASP92      -0.2456
     55  N         41.9010    8.6720  -30.1570 N.3   166  ARG166     -0.1245
     56  CA        41.7710    8.7720  -31.6180 C.3   166  ARG166      0.1563
     57  C         40.6860    7.9260  -32.2580 C.2   166  ARG166      0.2260
     58  O         40.2500    8.2570  -33.3380 O.2   166  ARG166     -0.2867
     59  CB        43.1190    8.5800  -32.3310 C.3   166  ARG166      0.0307
     60  CG        43.8050    7.2460  -32.1270 C.3   166  ARG166      0.0489
     61  CD        44.8680    7.0490  -33.2020 C.3   166  ARG166      0.2205
     62  NE        44.2140    7.0500  -34.5050 N.pl3 166  ARG166     -0.0865
     63  CZ        43.6240    5.9940  -35.0660 C.cat 166  ARG166      0.5346
     64  NH1       43.5960    4.8180  -34.4400 N.pl3 166  ARG166      0.1354
     65  NH2       43.0570    6.1190  -36.2670 N.pl3 166  ARG166      0.1354
     66  N         41.4860    3.3340  -28.7890 N.3   179  ASP179     -0.1239
     67  CA        42.8060    3.5740  -29.3570 C.3   179  ASP179      0.1674
     68  C         43.1650    5.0160  -29.0520 C.2   179  ASP179      0.2266
     69  O         42.3420    5.9340  -29.1760 O.2   179  ASP179     -0.2867
     70  CB        42.8000    3.3300  -30.8750 C.3   179  ASP179      0.1410
     71  CG        44.1760    2.9200  -31.4240 C.2   179  ASP179      0.3668
     72  OD1       44.4910    1.7030  -31.3570 O.co2 179  ASP179     -0.2456
     73  OD2       44.9350    3.8080  -31.9200 O.co2 179  ASP179     -0.2456
     74  N         44.3800    9.8300  -46.9860 N.3   496  MET496     -0.1230
     75  CA        43.6040    8.7570  -46.3330 C.3   496  MET496      0.1702
     76  C         42.7740    7.9870  -47.3320 C.2   496  MET496      0.2592
     77  O         42.2950    8.5460  -48.3070 O.2   496  MET496     -0.2718
     78  CB        42.6930    9.3240  -45.2560 C.3   496  MET496      0.0401
     79  CG        43.4220    9.9130  -44.0170 C.3   496  MET496      0.0596
     80  SD        42.3030   10.8830  -42.9500 S.3   496  MET496     -0.1393
     81  CE        41.9180   12.2740  -43.9810 C.3   496  MET496      0.0692
     82  N         42.5980    6.6970  -47.0980 N.am  497  PHE497     -0.1962
     83  CA        41.6400    5.9330  -47.8920 C.3   497  PHE497      0.1771
     84  C         40.7090    5.0830  -47.0310 C.2   497  PHE497      0.2619
     85  O         41.0680    4.6540  -45.9180 O.2   497  PHE497     -0.2715
     86  CB        42.3090    5.1320  -49.0320 C.3   497  PHE497      0.0574
     87  CG        43.4060    4.1790  -48.6030 C.ar  497  PHE497     -0.0200
     88  CD1       44.6780    4.6340  -48.3220 C.ar  497  PHE497     -0.0042
     89  CD2       43.1560    2.8210  -48.4850 C.ar  497  PHE497     -0.0042
     90  CE1       45.6820    3.7390  -47.9280 C.ar  497  PHE497     -0.0003
     91  CE2       44.1400    1.9350  -48.0980 C.ar  497  PHE497     -0.0003
     92  CZ        45.4010    2.3850  -47.8190 C.ar  497  PHE497     -0.0000
     93  N         39.5100    4.8500  -47.5670 N.am  498  ASP498     -0.1971
     94  CA        38.4550    4.1240  -46.8620 C.3   498  ASP498      0.1709
     95  C         38.6790    2.6040  -46.8220 C.2   498  ASP498      0.2293
     96  O         39.4000    2.0190  -47.6570 O.2   498  ASP498     -0.2864
     97  CB        37.0870    4.4390  -47.4880 C.3   498  ASP498      0.1436
     98  CG        35.9290    3.8550  -46.6850 C.2   498  ASP498      0.3671
     99  OD1       35.6480    4.3290  -45.5500 O.co2 498  ASP498     -0.2456
    100  OD2       35.3040    2.9160  -47.2020 O.co2 498  ASP498     -0.2456
    101  N         50.8610   -0.8810  -44.8840 N.3   528  LEU528     -0.1245
    102  CA        50.5320   -0.2140  -43.6120 C.3   528  LEU528      0.1561
    103  C         51.7760    0.1290  -42.7990 C.2   528  LEU528      0.2260
    104  O         51.9530    1.2810  -42.4330 O.2   528  LEU528     -0.2867
    105  CB        49.5720   -1.0450  -42.7540 C.3   528  LEU528      0.0270
    106  CG        48.0760   -0.7610  -42.9200 C.3   528  LEU528      0.0019
    107  CD1       47.5780   -1.1050  -44.3400 C.3   528  LEU528      0.0001
    108  CD2       47.2950   -1.5260  -41.8600 C.3   528  LEU528      0.0001
    109  N         47.3130    6.3260  -45.6460 N.3   535  VAL535     -0.1231
    110  CA        46.9510    5.6180  -44.4340 C.3   535  VAL535      0.1692
    111  C         45.4850    5.2490  -44.4280 C.2   535  VAL535      0.2592
    112  O         44.6520    5.9080  -45.0470 O.2   535  VAL535     -0.2718
    113  CB        47.2450    6.4480  -43.1790 C.3   535  VAL535      0.0266
    114  CG1       48.7370    6.6650  -43.0580 C.3   535  VAL535      0.0020
    115  CG2       46.4910    7.7810  -43.2270 C.3   535  VAL535      0.0020
    116  N         45.1960    4.1770  -43.7100 N.am  536  CYS536     -0.1956
    117  CA        43.8520    3.6640  -43.5700 C.3   536  CYS536      0.1843
    118  C         43.7040    3.0500  -42.1740 C.2   536  CYS536      0.2625
    119  O         44.6630    2.9760  -41.4020 O.2   536  CYS536     -0.2714
    120  CB        43.6290    2.5900  -44.6170 C.3   536  CYS536      0.0997
    121  SG        44.8320    1.2650  -44.4820 S.3   536  CYS536     -0.0797
    122  N         42.4970    2.6090  -41.8570 N.am  537  GLN537     -0.1963
    123  CA        42.2620    1.9070  -40.6130 C.3   537  GLN537      0.1733
    124  C         42.6990    0.4630  -40.7680 C.2   537  GLN537      0.2616
    125  O         42.6420   -0.0890  -41.8550 O.2   537  GLN537     -0.2715
    126  CB        40.7920    2.0060  -40.2370 C.3   537  GLN537      0.0408
    127  CG        40.4000    3.4000  -39.9100 C.3   537  GLN537      0.0908
    128  CD        38.9300    3.5470  -39.6850 C.2   537  GLN537      0.2608
    129  OE1       38.1550    3.5810  -40.6310 O.2   537  GLN537     -0.2717
    130  NE2       38.5320    3.6370  -38.4310 N.am  537  GLN537     -0.0878
    131  N         43.1370   -0.1510  -39.6790 N.am  538  ASP538     -0.1971
    132  CA        43.6550   -1.5060  -39.7460 C.3   538  ASP538      0.1709
    133  C         42.5050   -2.4680  -39.6020 C.2   538  ASP538      0.2293
    134  O         42.1560   -2.8460  -38.4790 O.2   538  ASP538     -0.2864
    135  CB        44.6890   -1.7590  -38.6560 C.3   538  ASP538      0.1436
    136  CG        45.3780   -3.1050  -38.8160 C.2   538  ASP538      0.3671
    137  OD1       44.8300   -3.9980  -39.5350 O.co2 538  ASP538     -0.2456
    138  OD2       46.4720   -3.2560  -38.2130 O.co2 538  ASP538     -0.2456
    139  N         38.1970   -1.0190  -35.4520 N.3   639  GLU639     -0.1245
    140  CA        38.4380    0.3920  -35.2900 C.3   639  GLU639      0.1567
    141  C         37.4210    1.1880  -36.1220 C.2   639  GLU639      0.2260
    142  O         37.2270    0.9460  -37.3010 O.2   639  GLU639     -0.2867
    143  CB        39.8560    0.7370  -35.7170 C.3   639  GLU639      0.0388
    144  CG        40.3060    2.1010  -35.2570 C.3   639  GLU639      0.1160
    145  CD        41.4710    2.6270  -36.0730 C.2   639  GLU639      0.3649
    146  OE1       42.5310    1.9650  -36.0980 O.co2 639  GLU639     -0.2457
    147  OE2       41.3200    3.7060  -36.6900 O.co2 639  GLU639     -0.2457
    148  N         36.5650    5.5370  -36.3310 N.3   641  VAL641     -0.1245
    149  CA        37.0280    6.8210  -35.8230 C.3   641  VAL641      0.1561
    150  C         35.9000    7.6700  -35.2450 C.2   641  VAL641      0.2260
    151  O         34.7490    7.6120  -35.6880 O.2   641  VAL641     -0.2867
    152  CB        37.7770    7.6590  -36.8920 C.3   641  VAL641      0.0252
    153  CG1       39.1630    7.0620  -37.1550 C.3   641  VAL641      0.0019
    154  CG2       36.9390    7.8090  -38.1750 C.3   641  VAL641      0.0019
@<TRIPOS>BOND
     1    86    87    1
     2    86    83    1
     3    87    89   ar
     4    87    88   ar
     5    89    91   ar
     6    88    90   ar
     7    77    76    2
     8    91    92   ar
     9    90    92   ar
    10    83    82    1
    11    83    84    1
    12    96    95    2
    13    93    84   am
    14    93    94    1
    15    97    94    1
    16    97    98    1
    17    76    82   am
    18    76    75    1
    19   100    98   ar
    20    84    85    2
    21    74    75    1
    22    94    95    1
    23    98    99   ar
    24    75    78    1
    25   109   110    1
    26    78    79    1
    27   112   111    2
    28   101   102    1
    29    12    11    1
    30   120   121    1
    31   120   117    1
    32   110   111    1
    33   110   113    1
    34   111   116   am
    35   107   106    1
    36    79    80    1
    37    81    80    1
    38   116   117    1
    39   102   103    1
    40   102   105    1
    41   117   118    1
    42    11    10   ar
    43    11     9   ar
    44   115   113    1
    45   113   114    1
    46    10     8   ar
    47   106   105    1
    48   106   108    1
    49    28    27    1
    50   103   104    2
    51    29    27    1
    52     9     7   ar
    53    27    24    1
    54    36    35   ar
    55   118   122   am
    56   118   119    2
    57   122   123    1
    58   125   124    2
    59     8     6   ar
    60    37    35   ar
    61    35    34    1
    62     7     6   ar
    63   124   123    1
    64   124   131   am
    65     6     5    1
    66    24    25    1
    67    24    23    1
    68   129   128    2
    69   123   126    1
    70   126   127    1
    71    25    30   am
    72    25    26    2
    73     4     3    2
    74    30    31    1
    75    16    15    2
    76   127   128    1
    77    34    31    1
    78    31    32    1
    79   132   131    1
    80   132   133    1
    81   132   135    1
    82   128   130   am
    83   133   134    2
    84   137   136   ar
    85    14    15    1
    86    14    17    1
    87    14    13    1
    88     5     2    1
    89     3    13   am
    90     3     2    1
    91    17    18    1
    92   136   135    1
    93   136   138   ar
    94     2     1    1
    95    32    33    2
    96    32    38   am
    97   154   152    1
    98    18    20   ar
    99    18    19   ar
   100    38    39    1
   101    20    22   ar
   102    53    52   ar
   103   142   141    2
   104   153   152    1
   105   152   149    1
   106    47    48    1
   107    47    40   am
   108    48    51    1
   109    48    49    1
   110    52    51    1
   111    52    54   ar
   112    19    21   ar
   113   147   145   ar
   114   148   149    1
   115    65    63    1
   116   141   140    1
   117    39    40    1
   118    39    42    1
   119   146   145   ar
   120   145   144    1
   121    22    21   ar
   122    40    41    2
   123   149   150    1
   124    49    50    2
   125   143   140    1
   126   143   144    1
   127   151   150    2
   128   139   140    1
   129    43    42    1
   130    43    44    1
   131    63    62    2
   132    63    64    1
   133    45    44    2
   134    44    46   am
   135    62    61    1
   136    58    57    2
   137    61    60    1
   138    59    60    1
   139    59    56    1
   140    57    56    1
   141    73    71   ar
   142    56    55    1
   143    71    72   ar
   144    71    70    1
   145    70    67    1
   146    67    68    1
   147    67    66    1
   148    69    68    2
