@<TRIPOS>MOLECULE
tmp/4b72A00.pdb
 223 213 0 0 0
SMALL
GASTEIGER

@<TRIPOS>ATOM
      1  N          2.3370   -9.1420  -14.3890 N.3    15  GLY15      -0.1210
      2  CA         3.4790   -8.2360  -14.4560 C.3    15  GLY15       0.1956
      3  C          3.8470   -7.7760  -15.8590 C.2    15  GLY15       0.2612
      4  O          4.8920   -7.1540  -16.0440 O.2    15  GLY15      -0.2717
      5  N          3.0450   -8.1560  -16.8660 N.am   16  GLN16      -0.1965
      6  CA         3.3330   -7.8450  -18.2790 C.3    16  GLN16       0.1733
      7  C          2.2320   -7.0550  -18.9340 C.2    16  GLN16       0.2616
      8  O          2.2200   -6.8960  -20.1630 O.2    16  GLN16      -0.2715
      9  CB         3.6700   -9.1140  -19.0830 C.3    16  GLN16       0.0408
     10  CG         4.9140   -9.8060  -18.5060 C.3    16  GLN16       0.0908
     11  CD         5.3490  -11.0570  -19.2290 C.2    16  GLN16       0.2608
     12  OE1        4.7490  -11.4880  -20.2150 O.2    16  GLN16      -0.2717
     13  NE2        6.3950  -11.6890  -18.7240 N.am   16  GLN16      -0.0878
     14  N          1.3620   -6.5060  -18.1050 N.am   17  GLY17      -0.1955
     15  CA         0.2680   -5.6770  -18.5720 C.3    17  GLY17       0.1869
     16  C         -0.9600   -6.3960  -19.0760 C.2    17  GLY17       0.2309
     17  O         -1.0480   -7.6330  -19.0460 O.2    17  GLY17      -0.2863
     18  N         -1.1710   -3.2810  -25.6740 N.3    34  LEU34      -0.1245
     19  CA        -1.1700   -3.0010  -24.2250 C.3    34  LEU34       0.1561
     20  C         -2.0020   -1.7330  -23.9620 C.2    34  LEU34       0.2260
     21  O         -1.8290   -0.7290  -24.6530 O.2    34  LEU34      -0.2867
     22  CB         0.2770   -2.7830  -23.7600 C.3    34  LEU34       0.0270
     23  CG         0.4420   -2.2960  -22.3330 C.3    34  LEU34       0.0019
     24  CD1        0.4120   -3.4530  -21.3670 C.3    34  LEU34       0.0001
     25  CD2        1.6960   -1.4140  -22.1790 C.3    34  LEU34       0.0001
     26  N         -2.6020    1.3430  -21.9250 N.3    36  ASP36      -0.1239
     27  CA        -1.7000    2.1390  -21.0860 C.3    36  ASP36       0.1674
     28  C         -2.2160    3.5240  -20.7430 C.2    36  ASP36       0.2266
     29  O         -2.0620    4.4470  -21.5440 O.2    36  ASP36      -0.2867
     30  CB        -0.3540    2.2440  -21.8380 C.3    36  ASP36       0.1410
     31  CG         0.7940    2.8620  -21.0300 C.2    36  ASP36       0.3668
     32  OD1        0.6040    3.1070  -19.8250 O.co2  36  ASP36      -0.2456
     33  OD2        1.8940    3.0680  -21.6130 O.co2  36  ASP36      -0.2456
     34  N         -0.7390    5.4460  -18.7670 N.3    38  GLY38      -0.1210
     35  CA         0.4500    6.2200  -18.4080 C.3    38  GLY38       0.1956
     36  C          1.2120    6.8440  -19.5560 C.2    38  GLY38       0.2613
     37  O          2.3180    7.3500  -19.3470 O.2    38  GLY38      -0.2717
     38  N          0.6820    6.7180  -20.7890 N.am   39  SER39      -0.1938
     39  CA         1.3280    7.3080  -21.9330 C.3    39  SER39       0.2055
     40  C          0.2550    7.7020  -22.9410 C.2    39  SER39       0.2644
     41  O         -0.9370    7.3870  -22.7540 O.2    39  SER39      -0.2714
     42  CB         2.3710    6.3500  -22.5050 C.3    39  SER39       0.2130
     43  OG         1.7100    5.2520  -23.1060 O.3    39  SER39      -0.2179
     44  N          0.6700    8.3650  -24.0340 N.am   40  SER40      -0.1935
     45  CA        -0.2880    8.9360  -24.9620 C.3    40  SER40       0.2055
     46  C         -0.0530    8.6840  -26.4450 C.2    40  SER40       0.2643
     47  O         -0.7710    9.2600  -27.2530 O.2    40  SER40      -0.2714
     48  CB        -0.4180   10.4440  -24.7210 C.3    40  SER40       0.2130
     49  OG        -0.6360   10.6340  -23.3310 O.3    40  SER40      -0.2179
     50  N          0.8610    7.7500  -26.7930 N.am   41  ASN41      -0.1971
     51  CA         1.0580    7.3860  -28.1930 C.3    41  ASN41       0.1688
     52  C          0.4200    6.0140  -28.4710 C.2    41  ASN41       0.2292
     53  O          0.4730    5.1220  -27.6330 O.2    41  ASN41      -0.2864
     54  CB         2.5570    7.2600  -28.5090 C.3    41  ASN41       0.1181
     55  CG         3.2350    8.5970  -28.6030 C.2    41  ASN41       0.2629
     56  OD1        3.5790    9.2200  -27.5990 O.2    41  ASN41      -0.2716
     57  ND2        3.3980    9.0600  -29.8250 N.am   41  ASN41      -0.0877
     58  N          1.6050    3.2000  -30.4530 N.3    43  ALA43      -0.1245
     59  CA         2.9350    2.8190  -30.9800 C.3    43  ALA43       0.1562
     60  C          2.9260    1.3180  -31.1680 C.2    43  ALA43       0.2260
     61  O          2.6560    0.5790  -30.2120 O.2    43  ALA43      -0.2867
     62  CB         4.0120    3.2420  -29.9930 C.3    43  ALA43       0.0290
     63  N         12.2090    7.8450  -28.6630 N.3    73  VAL73      -0.1245
     64  CA        11.7930    7.9020  -27.2760 C.3    73  VAL73       0.1561
     65  C         12.7070    7.0970  -26.3390 C.2    73  VAL73       0.2260
     66  O         12.4100    5.9360  -26.0370 O.2    73  VAL73      -0.2867
     67  CB        10.2720    7.5390  -27.0750 C.3    73  VAL73       0.0252
     68  CG1        9.8460    7.7160  -25.6080 C.3    73  VAL73       0.0019
     69  CG2        9.3540    8.3440  -27.9940 C.3    73  VAL73       0.0019
     70  N         13.6190    6.2180  -22.6990 N.3    75  TYR75      -0.1227
     71  CA        12.8980    6.3460  -21.4430 C.3    75  TYR75       0.1736
     72  C         13.7220    5.6680  -20.3530 C.2    75  TYR75       0.2596
     73  O         14.7500    5.0530  -20.6590 O.2    75  TYR75      -0.2718
     74  CB        11.4070    5.9170  -21.5490 C.3    75  TYR75       0.0548
     75  CG        11.1840    4.4700  -21.9070 C.ar   75  TYR75      -0.0200
     76  CD1       11.1310    4.0600  -23.2360 C.ar   75  TYR75      -0.0009
     77  CD2       10.9550    3.5180  -20.9220 C.ar   75  TYR75      -0.0009
     78  CE1       10.9050    2.7230  -23.5690 C.ar   75  TYR75       0.0417
     79  CE2       10.6980    2.1910  -21.2460 C.ar   75  TYR75       0.0417
     80  CZ        10.6910    1.7950  -22.5680 C.ar   75  TYR75       0.1957
     81  OH        10.5030    0.4750  -22.8740 O.3    75  TYR75      -0.2866
     82  N         13.3500    5.8700  -19.0880 N.am   76  THR76      -0.1939
     83  CA        14.1260    5.3960  -17.9420 C.3    76  THR76       0.2028
     84  C         14.5730    3.9230  -17.9600 C.2    76  THR76       0.2642
     85  O         15.6930    3.6340  -17.5150 O.2    76  THR76      -0.2714
     86  CB        13.5590    5.9410  -16.6090 C.3    76  THR76       0.1808
     87  OG1       14.1220    5.2220  -15.5090 O.3    76  THR76      -0.2208
     88  CG2       12.0380    5.8880  -16.5520 C.3    76  THR76       0.0379
     89  N         13.7480    3.0160  -18.5200 N.am   77  GLN77      -0.1976
     90  CA        14.0480    1.5840  -18.5590 C.3    77  GLN77       0.1601
     91  C         14.3070    0.9620  -19.9600 C.2    77  GLN77       0.2287
     92  O         14.5190   -0.2490  -20.0520 O.2    77  GLN77      -0.2864
     93  CB        12.9650    0.7830  -17.8040 C.3    77  GLN77       0.0394
     94  CG        12.7240    1.2130  -16.3410 C.3    77  GLN77       0.0908
     95  CD        11.6700    2.2980  -16.1910 C.2    77  GLN77       0.2608
     96  OE1       11.4290    2.8250  -15.0950 O.2    77  GLN77      -0.2717
     97  NE2       11.0120    2.6610  -17.2840 N.am   77  GLN77      -0.0878
     98  N         12.5350    3.2290  -27.7240 N.3    80  TRP80      -0.1241
     99  CA        11.9160    2.8360  -28.9770 C.3    80  TRP80       0.1605
    100  C         12.0610    3.9960  -29.9430 C.2    80  TRP80       0.2264
    101  O         12.1550    5.1510  -29.5210 O.2    80  TRP80      -0.2867
    102  CB        10.4640    2.3560  -28.8240 C.3    80  TRP80       0.0550
    103  CG         9.4790    3.4170  -28.4160 C.ar   80  TRP80       0.0003
    104  CD1        9.1130    3.7510  -27.1430 C.ar   80  TRP80       0.0946
    105  CD2        8.6660    4.2060  -29.2870 C.ar   80  TRP80       0.0152
    106  NE1        8.1360    4.7260  -27.1740 N.ar   80  TRP80      -0.2442
    107  CE2        7.8440    5.0200  -28.4770 C.ar   80  TRP80       0.0810
    108  CE3        8.5550    4.3210  -30.6870 C.ar   80  TRP80       0.0012
    109  CZ2        6.9140    5.9260  -29.0240 C.ar   80  TRP80       0.0191
    110  CZ3        7.6630    5.2230  -31.2180 C.ar   80  TRP80       0.0001
    111  CH2        6.8420    6.0100  -30.3940 C.ar   80  TRP80       0.0015
    112  N         14.6260   -3.2270  -24.8480 N.3   111  LYS111     -0.1231
    113  CA        13.9450   -3.5040  -23.5640 C.3   111  LYS111      0.1693
    114  C         12.4890   -2.9980  -23.5310 C.2   111  LYS111      0.2592
    115  O         11.9290   -2.7970  -22.4500 O.2   111  LYS111     -0.2718
    116  CB        14.7750   -2.9740  -22.3780 C.3   111  LYS111      0.0285
    117  CG        16.1880   -3.6160  -22.3000 C.3   111  LYS111      0.0035
    118  CD        17.0090   -3.1470  -21.1050 C.3   111  LYS111      0.0206
    119  CE        17.7650   -1.8650  -21.3760 C.3   111  LYS111      0.1093
    120  NZ        18.3390   -1.2840  -20.1330 N.3   111  LYS111     -0.1314
    121  N         11.8730   -2.8420  -24.7110 N.am  112  PHE112     -0.1976
    122  CA        10.4960   -2.3640  -24.8490 C.3   112  PHE112      0.1639
    123  C          9.5670   -3.5540  -24.8940 C.2   112  PHE112      0.2290
    124  O          8.7330   -3.6960  -24.0150 O.2   112  PHE112     -0.2864
    125  CB        10.3630   -1.4940  -26.0990 C.3   112  PHE112      0.0560
    126  CG         9.0070   -0.8680  -26.3210 C.ar  112  PHE112     -0.0200
    127  CD1        8.6700    0.3320  -25.7090 C.ar  112  PHE112     -0.0042
    128  CD2        8.0950   -1.4430  -27.1980 C.ar  112  PHE112     -0.0042
    129  CE1        7.4240    0.9290  -25.9410 C.ar  112  PHE112     -0.0003
    130  CE2        6.8540   -0.8440  -27.4300 C.ar  112  PHE112     -0.0003
    131  CZ         6.5340    0.3470  -26.8220 C.ar  112  PHE112     -0.0000
    132  N          8.4570   -7.5140  -24.5080 N.3   114  ILE114     -0.1245
    133  CA         8.7360   -8.5120  -23.4700 C.3   114  ILE114      0.1561
    134  C          8.6050   -9.9170  -24.0260 C.2   114  ILE114      0.2260
    135  O          7.6430  -10.1970  -24.7300 O.2   114  ILE114     -0.2867
    136  CB         7.8030   -8.2780  -22.2490 C.3   114  ILE114      0.0252
    137  CG1        8.0050   -6.8690  -21.6650 C.3   114  ILE114      0.0019
    138  CG2        7.9740   -9.3700  -21.1570 C.3   114  ILE114      0.0019
    139  CD1        6.8860   -6.4160  -20.7750 C.3   114  ILE114      0.0001
    140  N          1.7240   -9.2340  -26.5710 N.3   119  TRP119     -0.1241
    141  CA         1.3180   -7.9350  -27.1320 C.3   119  TRP119      0.1605
    142  C          2.4260   -7.3470  -28.0450 C.2   119  TRP119      0.2264
    143  O          3.6170   -7.6010  -27.8470 O.2   119  TRP119     -0.2867
    144  CB         0.7970   -6.9350  -26.0800 C.3   119  TRP119      0.0550
    145  CG         1.7150   -6.6250  -24.9410 C.ar  119  TRP119      0.0003
    146  CD1        1.5830   -7.0600  -23.6540 C.ar  119  TRP119      0.0946
    147  CD2        2.7930   -5.6730  -24.9320 C.ar  119  TRP119      0.0152
    148  NE1        2.5780   -6.5240  -22.8690 N.ar  119  TRP119     -0.2442
    149  CE2        3.3070   -5.6370  -23.6150 C.ar  119  TRP119      0.0810
    150  CE3        3.3700   -4.8360  -25.9140 C.ar  119  TRP119      0.0012
    151  CZ2        4.3980   -4.8340  -23.2560 C.ar  119  TRP119      0.0191
    152  CZ3        4.4510   -4.0410  -25.5610 C.ar  119  TRP119      0.0001
    153  CH2        4.9670   -4.0560  -24.2490 C.ar  119  TRP119      0.0015
    154  N          1.4500   -0.5650  -28.0420 N.3   122  ILE122     -0.1245
    155  CA         0.8670    0.1240  -26.8750 C.3   122  ILE122      0.1561
    156  C         -0.1640    1.1540  -27.2960 C.2   122  ILE122      0.2260
    157  O          0.0340    1.9110  -28.2640 O.2   122  ILE122     -0.2867
    158  CB         1.9850    0.8100  -26.0400 C.3   122  ILE122      0.0252
    159  CG1        2.9620   -0.2210  -25.4230 C.3   122  ILE122      0.0019
    160  CG2        1.3590    1.6900  -24.9400 C.3   122  ILE122      0.0019
    161  CD1        4.0740    0.4680  -24.5900 C.3   122  ILE122      0.0001
    162  N          1.6190   14.7050  -22.9440 N.3   130  ILE130     -0.1245
    163  CA         2.7670   13.7920  -22.8320 C.3   130  ILE130      0.1561
    164  C          2.9640   12.9380  -24.0990 C.2   130  ILE130      0.2260
    165  O          3.7580   11.9940  -24.0800 O.2   130  ILE130     -0.2867
    166  CB         2.7640   12.9750  -21.5170 C.3   130  ILE130      0.0252
    167  CG1        1.5360   12.0230  -21.4720 C.3   130  ILE130      0.0019
    168  CG2        2.7850   13.9290  -20.2860 C.3   130  ILE130      0.0019
    169  CD1        1.5500   10.9820  -20.4260 C.3   130  ILE130      0.0001
    170  N          4.5460   11.9480  -27.7170 N.3   132  ARG132     -0.1245
    171  CA         5.8770   12.1250  -28.2910 C.3   132  ARG132      0.1563
    172  C          5.7280   12.1710  -29.8040 C.2   132  ARG132      0.2260
    173  O          4.9090   11.4300  -30.3510 O.2   132  ARG132     -0.2867
    174  CB         6.8010   10.9560  -27.8840 C.3   132  ARG132      0.0307
    175  CG         7.0440   10.8280  -26.3600 C.3   132  ARG132      0.0489
    176  CD         7.7010   12.0540  -25.7500 C.3   132  ARG132      0.2205
    177  NE         8.1450   11.8000  -24.3800 N.pl3 132  ARG132     -0.0865
    178  CZ         9.3920   11.4960  -24.0350 C.cat 132  ARG132      0.5346
    179  NH1       10.3420   11.4100  -24.9560 N.pl3 132  ARG132      0.1354
    180  NH2        9.7020   11.2910  -22.7640 N.pl3 132  ARG132      0.1354
    181  N         -1.8100    4.5110  -13.4670 N.3   220  ASP220     -0.1225
    182  CA        -1.1300    4.0210  -14.6720 C.3   220  ASP220      0.1805
    183  C         -1.2680    2.5150  -14.8610 C.2   220  ASP220      0.2598
    184  O         -0.5280    1.7480  -14.2450 O.2   220  ASP220     -0.2718
    185  CB         0.3500    4.4140  -14.5420 C.3   220  ASP220      0.1424
    186  CG         1.1850    4.0050  -15.7590 C.2   220  ASP220      0.3668
    187  OD1        0.5830    3.5470  -16.7720 O.co2 220  ASP220     -0.2456
    188  OD2        2.4140    4.2490  -15.7410 O.co2 220  ASP220     -0.2456
    189  N         -2.1090    2.0990  -15.8380 N.am  221  SER221     -0.1938
    190  CA        -2.3000    0.6740  -16.0940 C.3   221  SER221      0.2055
    191  C         -1.0640    0.0480  -16.7620 C.2   221  SER221      0.2644
    192  O         -0.9340   -1.1880  -16.7850 O.2   221  SER221     -0.2714
    193  CB        -3.5130    0.5080  -16.9900 C.3   221  SER221      0.2130
    194  OG        -3.3320    1.1610  -18.2360 O.3   221  SER221     -0.2179
    195  N         -0.1580    0.9080  -17.2530 N.am  222  GLY222     -0.1939
    196  CA         1.0830    0.4860  -17.8990 C.3   222  GLY222      0.2014
    197  C          2.2790    0.3370  -16.9690 C.2   222  GLY222      0.2640
    198  O          3.4070    0.1840  -17.4400 O.2   222  GLY222     -0.2714
    199  N          2.0590    0.4380  -15.6390 N.am  223  THR223     -0.1936
    200  CA         3.0830    0.1710  -14.6270 C.3   223  THR223      0.2028
    201  C          2.5020   -0.9600  -13.7810 C.2   223  THR223      0.2642
    202  O          1.3370   -0.8770  -13.4000 O.2   223  THR223     -0.2714
    203  CB         3.3060    1.4090  -13.7340 C.3   223  THR223      0.1808
    204  OG1        4.0440    2.3900  -14.4680 O.3   223  THR223     -0.2208
    205  CG2        4.0750    1.0790  -12.4590 C.3   223  THR223      0.0379
    206  N          3.2790   -1.9930  -13.4870 N.am  224  THR224     -0.1950
    207  CA         2.7980   -3.0870  -12.6490 C.3   224  THR224      0.1897
    208  C          2.5760   -2.6530  -11.1930 C.2   224  THR224      0.2313
    209  O          1.5140   -2.9000  -10.6320 O.2   224  THR224     -0.2863
    210  CB         3.7990   -4.2580  -12.6600 C.3   224  THR224      0.1794
    211  OG1        3.9590   -4.7080  -14.0070 O.3   224  THR224     -0.2208
    212  CG2        3.3420   -5.4330  -11.7880 C.3   224  THR224      0.0378
    213  N          4.1010    2.3320   -6.9700 N.3   227  ARG227     -0.1245
    214  CA         5.4380    2.9670   -6.8360 C.3   227  ARG227      0.1563
    215  C          5.2540    4.1870   -5.9350 C.2   227  ARG227      0.2260
    216  O          4.2680    4.9210   -6.0600 O.2   227  ARG227     -0.2867
    217  CB         6.0790    3.3100   -8.1920 C.3   227  ARG227      0.0307
    218  CG         6.1170    2.1110   -9.1500 C.3   227  ARG227      0.0489
    219  CD         6.7970    2.4920  -10.4690 C.3   227  ARG227      0.2205
    220  NE         8.2490    2.6800  -10.3210 N.pl3 227  ARG227     -0.0865
    221  CZ         8.8910    3.8160  -10.5820 C.cat 227  ARG227      0.5346
    222  NH1        8.2200    4.8900  -10.9890 N.pl3 227  ARG227      0.1354
    223  NH2       10.2070    3.8910  -10.4300 N.pl3 227  ARG227      0.1354
@<TRIPOS>BOND
     1   110   108   ar
     2   110   111   ar
     3    60    59    1
     4    60    61    2
     5    59    58    1
     6    59    62    1
     7   108   105   ar
     8   111   109   ar
     9   173   172    2
    10   100   101    2
    11   100    99    1
    12    57    55   am
    13   172   171    1
    14   105   107   ar
    15   105   103   ar
    16   109   107   ar
    17    99   102    1
    18    99    98    1
    19   102   103    1
    20    63    64    1
    21    55    54    1
    22    55    56    2
    23    54    51    1
    24   107   106   ar
    25    52    51    1
    26    52    53    2
    27   103   104   ar
    28   171   174    1
    29   171   170    1
    30   157   156    2
    31    51    50    1
    32   142   143    2
    33   142   141    1
    34   154   155    1
    35    69    67    1
    36   174   175    1
    37   130   128   ar
    38   130   131   ar
    39   156   155    1
    40    64    67    1
    41    64    65    1
    42    47    46    2
    43   128   126   ar
    44   106   104   ar
    45   141   140    1
    46   141   144    1
    47    67    68    1
    48   155   158    1
    49   131   129   ar
    50    50    46   am
    51    46    45    1
    52   175   176    1
    53    65    66    2
    54   126   125    1
    55   126   127   ar
    56   125   122    1
    57   144   145    1
    58   158   159    1
    59   158   160    1
    60   129   127   ar
    61   150   152   ar
    62   150   147   ar
    63   176   177    1
    64    18    19    1
    65   152   153   ar
    66   159   161    1
    67    45    48    1
    68    45    44    1
    69   179   178    1
    70   145   147   ar
    71   145   146   ar
    72   147   149   ar
    73   123   122    1
    74   123   124    2
    75   122   121    1
    76   112   113    1
    77   135   134    2
    78    48    49    1
    79   121   114   am
    80    21    20    2
    81   132   133    1
    82   177   178    2
    83   153   151   ar
    84    19    20    1
    85    19    22    1
    86   164   165    2
    87   164   163    1
    88   178   180    1
    89    44    40   am
    90   134   133    1
    91    22    23    1
    92   146   148   ar
    93   149   151   ar
    94   149   148   ar
    95    78    76   ar
    96    78    80   ar
    97   113   114    1
    98   113   116    1
    99   114   115    2
   100   133   136    1
   101    76    75   ar
   102    43    42    1
   103   162   163    1
   104    40    41    2
   105    40    39    1
   106    81    80    1
   107   163   166    1
   108    70    71    1
   109    80    79   ar
   110    42    39    1
   111   116   117    1
   112    23    25    1
   113    23    24    1
   114   117   118    1
   115   136   137    1
   116   136   138    1
   117    39    38    1
   118    26    27    1
   119    75    74    1
   120    75    77   ar
   121    30    27    1
   122    30    31    1
   123   137   139    1
   124    33    31   ar
   125    74    71    1
   126    29    28    2
   127   166   167    1
   128   166   168    1
   129   167   169    1
   130    71    72    1
   131   119   118    1
   132   119   120    1
   133    79    77   ar
   134    27    28    1
   135    31    32   ar
   136    38    36   am
   137    73    72    2
   138    72    82   am
   139    12    11    2
   140     8     7    2
   141    92    91    2
   142    91    90    1
   143    36    37    2
   144    36    35    1
   145    11    13   am
   146    11    10    1
   147    82    83    1
   148     9    10    1
   149     9     6    1
   150    16    17    2
   151    16    15    1
   152     7     6    1
   153     7    14   am
   154    34    35    1
   155    15    14    1
   156    90    89    1
   157    90    93    1
   158    89    84   am
   159     6     5    1
   160   194   193    1
   161    84    83    1
   162    84    85    2
   163    83    86    1
   164   196   195    1
   165   196   197    1
   166    93    94    1
   167   198   197    2
   168    97    95   am
   169   195   191   am
   170   193   190    1
   171   197   199   am
   172     5     3   am
   173   192   191    2
   174   187   186   ar
   175   191   190    1
   176    86    88    1
   177    86    87    1
   178    94    95    1
   179    95    96    2
   180   190   189    1
   181     4     3    2
   182     3     2    1
   183   189   183   am
   184   186   188   ar
   185   186   185    1
   186   199   200    1
   187   183   182    1
   188   183   184    2
   189   182   185    1
   190   182   181    1
   191   200   201    1
   192   200   203    1
   193   204   203    1
   194     2     1    1
   195   211   210    1
   196   201   206   am
   197   201   202    2
   198   203   205    1
   199   206   207    1
   200   210   207    1
   201   210   212    1
   202   207   208    1
   203   208   209    2
   204   222   221    1
   205   221   223    1
   206   221   220    2
   207   219   220    1
   208   219   218    1
   209   218   217    1
   210   217   214    1
   211   213   214    1
   212   214   215    1
   213   216   215    2
