@<TRIPOS>MOLECULE
tmp/4b73B00.pdb
 199 193 0 0 0
SMALL
GASTEIGER

@<TRIPOS>ATOM
      1  N         44.6130   14.0680  -36.4960 N.3    67  TYR67      -0.1227
      2  CA        44.6930   14.4560  -37.9020 C.3    67  TYR67       0.1736
      3  C         43.3490   14.2180  -38.5910 C.2    67  TYR67       0.2595
      4  O         42.9440   15.0130  -39.4530 O.2    67  TYR67      -0.2718
      5  CB        45.8380   13.7110  -38.6510 C.3    67  TYR67       0.0548
      6  CG        45.9900   14.0900  -40.1230 C.ar   67  TYR67      -0.0200
      7  CD1       46.5650   15.3030  -40.4980 C.ar   67  TYR67      -0.0009
      8  CD2       45.5340   13.2570  -41.1390 C.ar   67  TYR67      -0.0009
      9  CE1       46.6910   15.6760  -41.8460 C.ar   67  TYR67       0.0417
     10  CE2       45.6380   13.6320  -42.4910 C.ar   67  TYR67       0.0417
     11  CZ        46.2280   14.8560  -42.8350 C.ar   67  TYR67       0.1957
     12  OH        46.3510   15.2540  -44.1680 O.3    67  TYR67      -0.2866
     13  N         42.6330   13.1560  -38.2200 N.am   68  HIS68      -0.1975
     14  CA        41.3660   12.8620  -38.9320 C.3    68  HIS68       0.1656
     15  C         40.3270   13.9460  -38.7550 C.2    68  HIS68       0.2291
     16  O         39.4450   14.0560  -39.5970 O.2    68  HIS68      -0.2864
     17  CB        40.7730   11.4750  -38.6240 C.3    68  HIS68       0.0771
     18  CG        40.2750   11.2960  -37.2270 C.ar   68  HIS68       0.0820
     19  ND1       40.9880   10.6020  -36.2710 N.ar   68  HIS68      -0.2267
     20  CD2       39.1280   11.6960  -36.6290 C.ar   68  HIS68       0.1154
     21  CE1       40.3110   10.5990  -35.1360 C.ar   68  HIS68       0.1986
     22  NE2       39.1780   11.2580  -35.3260 N.ar   68  HIS68      -0.2212
     23  N         50.9740   12.2980  -39.4100 N.3    89  VAL89      -0.1231
     24  CA        49.8280   11.6000  -40.0110 C.3    89  VAL89       0.1692
     25  C         49.8200   10.1070  -39.6130 C.2    89  VAL89       0.2592
     26  O         48.7610    9.5350  -39.3580 O.2    89  VAL89      -0.2718
     27  CB        49.7870   11.7580  -41.5620 C.3    89  VAL89       0.0266
     28  CG1       48.6480   10.9050  -42.1740 C.3    89  VAL89       0.0020
     29  CG2       49.6110   13.2120  -41.9650 C.3    89  VAL89       0.0020
     30  N         51.0040    9.5070  -39.5390 N.am   90  ASP90      -0.1960
     31  CA        51.1890    8.1090  -39.1040 C.3    90  ASP90       0.1840
     32  C         50.6030    7.8070  -37.7160 C.2    90  ASP90       0.2622
     33  O         50.1300    6.7100  -37.4710 O.2    90  ASP90      -0.2715
     34  CB        52.6910    7.7350  -39.0920 C.3    90  ASP90       0.1450
     35  CG        53.3950    7.9450  -40.4630 C.2    90  ASP90       0.3671
     36  OD1       52.7780    7.7310  -41.5400 O.co2  90  ASP90      -0.2456
     37  OD2       54.5920    8.3100  -40.4550 O.co2  90  ASP90      -0.2456
     38  N         50.6450    8.7790  -36.8120 N.am   91  GLN91      -0.1963
     39  CA        50.1230    8.6140  -35.4410 C.3    91  GLN91       0.1733
     40  C         48.7420    9.2680  -35.2120 C.2    91  GLN91       0.2616
     41  O         48.2680    9.3360  -34.0740 O.2    91  GLN91      -0.2715
     42  CB        51.1190    9.2040  -34.4220 C.3    91  GLN91       0.0408
     43  CG        52.5380    8.6410  -34.4690 C.3    91  GLN91       0.0908
     44  CD        52.6410    7.2790  -33.8630 C.2    91  GLN91       0.2608
     45  OE1       53.1290    6.3470  -34.5000 O.2    91  GLN91      -0.2717
     46  NE2       52.1810    7.1440  -32.6170 N.am   91  GLN91      -0.0878
     47  N         48.1090    9.7500  -36.2770 N.am   92  ASP92      -0.1971
     48  CA        46.8260   10.4550  -36.1610 C.3    92  ASP92       0.1709
     49  C         46.9850   11.5560  -35.1190 C.2    92  ASP92       0.2293
     50  O         46.1920   11.6630  -34.1790 O.2    92  ASP92      -0.2864
     51  CB        45.6870    9.4720  -35.7990 C.3    92  ASP92       0.1436
     52  CG        44.2710   10.0690  -35.9770 C.2    92  ASP92       0.3671
     53  OD1       44.1420   11.2090  -36.4640 O.co2  92  ASP92      -0.2456
     54  OD2       43.2750    9.3870  -35.5990 O.co2  92  ASP92      -0.2456
     55  N         41.7700    8.6850  -29.5210 N.3   166  ARG166     -0.1245
     56  CA        41.6510    8.7660  -30.9970 C.3   166  ARG166      0.1563
     57  C         40.5510    7.9360  -31.6670 C.2   166  ARG166      0.2260
     58  O         40.0420    8.3610  -32.6880 O.2   166  ARG166     -0.2867
     59  CB        43.0020    8.5390  -31.6910 C.3   166  ARG166      0.0307
     60  CG        43.6760    7.1760  -31.4960 C.3   166  ARG166      0.0489
     61  CD        44.7400    6.9460  -32.5850 C.3   166  ARG166      0.2205
     62  NE        44.0670    6.8900  -33.8740 N.pl3 166  ARG166     -0.0865
     63  CZ        43.4940    5.7980  -34.3780 C.cat 166  ARG166      0.5346
     64  NH1       43.5510    4.6260  -33.7340 N.pl3 166  ARG166      0.1354
     65  NH2       42.8820    5.8770  -35.5570 N.pl3 166  ARG166      0.1354
     66  N         41.2840    3.4040  -28.2830 N.3   179  ASP179     -0.1239
     67  CA        42.5820    3.6390  -28.8670 C.3   179  ASP179      0.1674
     68  C         42.9070    5.0830  -28.5350 C.2   179  ASP179      0.2266
     69  O         42.0750    5.9740  -28.7300 O.2   179  ASP179     -0.2867
     70  CB        42.5410    3.4170  -30.3890 C.3   179  ASP179      0.1410
     71  CG        43.6100    2.4470  -30.8750 C.2   179  ASP179      0.3668
     72  OD1       43.4170    1.2090  -30.7240 O.co2 179  ASP179     -0.2456
     73  OD2       44.6310    2.9300  -31.4340 O.co2 179  ASP179     -0.2456
     74  N         44.3250    9.8590  -46.2040 N.3   496  MET496     -0.1230
     75  CA        43.4670    8.8840  -45.5270 C.3   496  MET496      0.1702
     76  C         42.6760    8.1330  -46.5740 C.2   496  MET496      0.2592
     77  O         42.1510    8.7240  -47.5120 O.2   496  MET496     -0.2718
     78  CB        42.4970    9.5660  -44.5450 C.3   496  MET496      0.0401
     79  CG        43.1460   10.2030  -43.3070 C.3   496  MET496      0.0596
     80  SD        42.0030   11.1630  -42.2730 S.3   496  MET496     -0.1393
     81  CE        41.7400   12.6240  -43.2420 C.3   496  MET496      0.0692
     82  N         42.5910    6.8300  -46.4170 N.am  497  PHE497     -0.1962
     83  CA        41.6550    6.0640  -47.2130 C.3   497  PHE497      0.1771
     84  C         40.7380    5.2110  -46.3230 C.2   497  PHE497      0.2619
     85  O         41.0800    4.9440  -45.1770 O.2   497  PHE497     -0.2715
     86  CB        42.3760    5.2460  -48.2850 C.3   497  PHE497      0.0574
     87  CG        43.3520    4.2110  -47.7630 C.ar  497  PHE497     -0.0200
     88  CD1       44.6260    4.5640  -47.3830 C.ar  497  PHE497     -0.0042
     89  CD2       43.0150    2.8780  -47.7580 C.ar  497  PHE497     -0.0042
     90  CE1       45.5370    3.5970  -46.9530 C.ar  497  PHE497     -0.0003
     91  CE2       43.8900    1.9220  -47.3430 C.ar  497  PHE497     -0.0003
     92  CZ        45.1740    2.2770  -46.9360 C.ar  497  PHE497     -0.0000
     93  N         39.5740    4.8370  -46.8620 N.am  498  ASP498     -0.1971
     94  CA        38.5230    4.0960  -46.1400 C.3   498  ASP498      0.1709
     95  C         38.7580    2.5620  -46.0260 C.2   498  ASP498      0.2293
     96  O         39.5020    1.9420  -46.7960 O.2   498  ASP498     -0.2864
     97  CB        37.1640    4.3540  -46.8140 C.3   498  ASP498      0.1436
     98  CG        36.0000    3.7410  -46.0470 C.2   498  ASP498      0.3671
     99  OD1       35.5760    4.3300  -45.0380 O.co2 498  ASP498     -0.2456
    100  OD2       35.5290    2.6490  -46.4330 O.co2 498  ASP498     -0.2456
    101  N         49.9820   -5.6430  -44.3270 N.3   525  ARG525     -0.1245
    102  CA        50.6960   -5.4250  -43.0580 C.3   525  ARG525      0.1563
    103  C         52.0010   -4.6410  -43.3190 C.2   525  ARG525      0.2260
    104  O         52.3270   -3.7240  -42.5620 O.2   525  ARG525     -0.2867
    105  CB        50.9120   -6.7740  -42.3270 C.3   525  ARG525      0.0307
    106  CG        51.6910   -6.7660  -41.0110 C.3   525  ARG525      0.0489
    107  CD        51.1600   -5.7810  -39.9670 C.3   525  ARG525      0.2205
    108  NE        49.7980   -6.0720  -39.5000 N.pl3 525  ARG525     -0.0865
    109  CZ        49.0400   -5.2220  -38.7950 C.cat 525  ARG525      0.5346
    110  NH1       49.4830   -4.0110  -38.4560 N.pl3 525  ARG525      0.1354
    111  NH2       47.8160   -5.5710  -38.4440 N.pl3 525  ARG525      0.1354
    112  N         52.5490   -2.5830  -45.8650 N.3   527  TYR527     -0.1227
    113  CA        52.1360   -1.2330  -46.2400 C.3   527  TYR527      0.1736
    114  C         51.7960   -0.3860  -45.0330 C.2   527  TYR527      0.2595
    115  O         52.3490    0.6820  -44.8620 O.2   527  TYR527     -0.2718
    116  CB        50.9600   -1.2990  -47.1960 C.3   527  TYR527      0.0548
    117  CG        50.5080    0.0250  -47.7840 C.ar  527  TYR527     -0.0200
    118  CD1       49.6190    0.8470  -47.0910 C.ar  527  TYR527     -0.0009
    119  CD2       50.9130    0.4290  -49.0510 C.ar  527  TYR527     -0.0009
    120  CE1       49.1800    2.0400  -47.6280 C.ar  527  TYR527      0.0417
    121  CE2       50.4560    1.6420  -49.6080 C.ar  527  TYR527      0.0417
    122  CZ        49.5900    2.4360  -48.8790 C.ar  527  TYR527      0.1957
    123  OH        49.1290    3.6290  -49.3690 O.3   527  TYR527     -0.2866
    124  N         50.8830   -0.8640  -44.1990 N.am  528  LEU528     -0.1980
    125  CA        50.4700   -0.1170  -42.9940 C.3   528  LEU528      0.1596
    126  C         51.6930    0.2750  -42.1570 C.2   528  LEU528      0.2287
    127  O         51.8970    1.4600  -41.8380 O.2   528  LEU528     -0.2864
    128  CB        49.4640   -0.9380  -42.1590 C.3   528  LEU528      0.0297
    129  CG        47.9420   -0.7420  -42.3800 C.3   528  LEU528      0.0022
    130  CD1       47.3880   -1.1770  -43.7510 C.3   528  LEU528      0.0001
    131  CD2       47.2050   -1.4840  -41.2790 C.3   528  LEU528      0.0001
    132  N         54.7490    0.8650  -42.7280 N.3   530  THR530     -0.1218
    133  CA        55.7880    1.7220  -43.2740 C.3   530  THR530      0.1862
    134  C         55.3790    3.1850  -43.1270 C.2   530  THR530      0.2287
    135  O         54.2930    3.5920  -43.5760 O.2   530  THR530     -0.2866
    136  CB        56.0730    1.4190  -44.7490 C.3   530  THR530      0.1770
    137  OG1       56.5390    0.0690  -44.8790 O.3   530  THR530     -0.2211
    138  CG2       57.1240    2.3950  -45.2990 C.3   530  THR530      0.0375
    139  N         53.3320    6.6220  -45.5490 N.3   533  LEU533     -0.1231
    140  CA        52.3660    6.2320  -46.5730 C.3   533  LEU533      0.1678
    141  C         50.9690    6.6600  -46.1300 C.2   533  LEU533      0.2434
    142  O         50.7570    7.0090  -44.9820 O.2   533  LEU533     -0.2733
    143  CB        52.4290    4.7180  -46.8360 C.3   533  LEU533      0.0284
    144  CG        53.6070    4.3060  -47.7220 C.3   533  LEU533      0.0019
    145  CD1       53.9130    2.8500  -47.5360 C.3   533  LEU533      0.0001
    146  CD2       53.3150    4.6190  -49.1740 C.3   533  LEU533      0.0001
    147  N         50.0170    6.6380  -47.0500 N.am  534  PRO534     -0.2718
    148  CA        48.6420    6.8740  -46.6600 C.3   534  PRO534      0.1535
    149  C         48.1860    5.9460  -45.5550 C.2   534  PRO534      0.2598
    150  O         48.7450    4.8700  -45.3580 O.2   534  PRO534     -0.2715
    151  CB        47.8480    6.6070  -47.9280 C.3   534  PRO534      0.0310
    152  CG        48.8180    6.7770  -49.0260 C.3   534  PRO534      0.0237
    153  CD        50.1710    6.4590  -48.5020 C.3   534  PRO534      0.0939
    154  N         47.1690    6.4020  -44.8360 N.am  535  VAL535     -0.1964
    155  CA        46.7180    5.7630  -43.6380 C.3   535  VAL535      0.1727
    156  C         45.2480    5.3580  -43.7150 C.2   535  VAL535      0.2616
    157  O         44.4320    5.9520  -44.4380 O.2   535  VAL535     -0.2715
    158  CB        46.9430    6.6840  -42.4310 C.3   535  VAL535      0.0290
    159  CG1       48.3980    6.7670  -42.1570 C.3   535  VAL535      0.0023
    160  CG2       46.3330    8.0930  -42.6790 C.3   535  VAL535      0.0023
    161  N         44.9420    4.3290  -42.9340 N.am  536  CYS536     -0.1954
    162  CA        43.6030    3.7830  -42.8040 C.3   536  CYS536      0.1843
    163  C         43.4820    3.1390  -41.4130 C.2   536  CYS536      0.2625
    164  O         44.4650    3.0500  -40.6710 O.2   536  CYS536     -0.2714
    165  CB        43.4010    2.7340  -43.8790 C.3   536  CYS536      0.0997
    166  SG        44.5000    1.3040  -43.6500 S.3   536  CYS536     -0.0797
    167  N         42.2920    2.6720  -41.0650 N.am  537  GLN537     -0.1963
    168  CA        42.0810    1.9930  -39.7700 C.3   537  GLN537      0.1733
    169  C         42.5260    0.5430  -39.9420 C.2   537  GLN537      0.2616
    170  O         42.5230    0.0250  -41.0450 O.2   537  GLN537     -0.2715
    171  CB        40.6230    2.0960  -39.3180 C.3   537  GLN537      0.0408
    172  CG        40.0220    3.4760  -39.5550 C.3   537  GLN537      0.0908
    173  CD        38.8050    3.7760  -38.7160 C.2   537  GLN537      0.2608
    174  OE1       37.7060    3.9040  -39.2410 O.2   537  GLN537     -0.2717
    175  NE2       39.0010    3.9360  -37.4040 N.am  537  GLN537     -0.0878
    176  N         42.9800   -0.0990  -38.8780 N.am  538  ASP538     -0.1971
    177  CA        43.4650   -1.4590  -39.0170 C.3   538  ASP538      0.1709
    178  C         42.3090   -2.4370  -38.9060 C.2   538  ASP538      0.2293
    179  O         41.9790   -2.8940  -37.8160 O.2   538  ASP538     -0.2864
    180  CB        44.5190   -1.7710  -37.9770 C.3   538  ASP538      0.1436
    181  CG        44.9620   -3.2210  -38.0190 C.2   538  ASP538      0.3671
    182  OD1       44.7250   -3.9040  -39.0420 O.co2 538  ASP538     -0.2456
    183  OD2       45.5340   -3.6870  -37.0140 O.co2 538  ASP538     -0.2456
    184  N         38.0780   -0.8630  -34.8890 N.3   639  GLU639     -0.1245
    185  CA        38.3890    0.5240  -34.6630 C.3   639  GLU639      0.1567
    186  C         37.3680    1.3820  -35.4320 C.2   639  GLU639      0.2260
    187  O         37.0810    1.1410  -36.6040 O.2   639  GLU639     -0.2867
    188  CB        39.8110    0.7960  -35.1240 C.3   639  GLU639      0.0388
    189  CG        40.3520    2.1150  -34.6680 C.3   639  GLU639      0.1160
    190  CD        41.5890    2.5230  -35.4370 C.2   639  GLU639      0.3649
    191  OE1       42.5660    1.7300  -35.4540 O.co2 639  GLU639     -0.2457
    192  OE2       41.5650    3.6410  -36.0160 O.co2 639  GLU639     -0.2457
    193  N         36.2960    5.6300  -36.1480 N.3   641  VAL641     -0.1245
    194  CA        36.6030    7.0400  -35.9760 C.3   641  VAL641      0.1561
    195  C         35.5260    7.6540  -35.0800 C.2   641  VAL641      0.2260
    196  O         34.3280    7.4090  -35.2700 O.2   641  VAL641     -0.2867
    197  CB        36.6550    7.8070  -37.3210 C.3   641  VAL641      0.0252
    198  CG1       37.0840    6.8900  -38.4630 C.3   641  VAL641      0.0019
    199  CG2       35.3260    8.4250  -37.6460 C.3   641  VAL641      0.0019
@<TRIPOS>BOND
     1   121   119   ar
     2   121   122   ar
     3   123   122    1
     4   146   144    1
     5   119   117   ar
     6   152   153    1
     7   152   151    1
     8   122   120   ar
     9   153   147    1
    10    86    87    1
    11    86    83    1
    12   151   148    1
    13   117   116    1
    14   117   118   ar
    15    87    89   ar
    16    87    88   ar
    17    89    91   ar
    18   144   145    1
    19   144   143    1
    20   120   118   ar
    21    77    76    2
    22    88    90   ar
    23    91    92   ar
    24    83    82    1
    25    83    84    1
    26   116   113    1
    27   147   148    1
    28   147   141   am
    29    90    92   ar
    30    93    84   am
    31    93    94    1
    32   143   140    1
    33    97    94    1
    34    97    98    1
    35    96    95    2
    36   148   149    1
    37    76    82   am
    38    76    75    1
    39   140   141    1
    40   140   139    1
    41   100    98   ar
    42    84    85    2
    43   113   112    1
    44   113   114    1
    45    74    75    1
    46    94    95    1
    47   141   142    2
    48    98    99   ar
    49   149   150    2
    50   149   154   am
    51    75    78    1
    52   138   136    1
    53   114   115    2
    54   114   124   am
    55   137   136    1
    56   154   155    1
    57   136   133    1
    58    78    79    1
    59   157   156    2
    60   101   102    1
    61   124   125    1
    62    12    11    1
    63   165   166    1
    64   165   162    1
    65   130   129    1
    66   156   155    1
    67   156   161   am
    68   155   158    1
    69   135   134    2
    70   103   102    1
    71   103   104    2
    72    79    80    1
    73   133   134    1
    74   133   132    1
    75    81    80    1
    76   102   105    1
    77   125   128    1
    78   125   126    1
    79   161   162    1
    80    11    10   ar
    81    11     9   ar
    82   162   163    1
    83   160   158    1
    84    10     8   ar
    85   158   159    1
    86   129   128    1
    87   129   131    1
    88   105   106    1
    89    28    27    1
    90   126   127    2
    91    29    27    1
    92     9     7   ar
    93    27    24    1
    94    36    35   ar
    95   163   167   am
    96   163   164    2
    97     8     6   ar
    98   167   168    1
    99   170   169    2
   100   106   107    1
   101     7     6   ar
   102    35    37   ar
   103    35    34    1
   104     6     5    1
   105    24    25    1
   106    24    23    1
   107   107   108    1
   108   169   168    1
   109   169   176   am
   110   168   171    1
   111    25    30   am
   112    25    26    2
   113    16    15    2
   114   172   171    1
   115   172   173    1
   116    30    31    1
   117   108   109    2
   118     4     3    2
   119   174   173    2
   120    31    34    1
   121    31    32    1
   122   182   181   ar
   123   177   178    1
   124   177   176    1
   125   177   180    1
   126    14    15    1
   127    14    17    1
   128    14    13    1
   129   178   179    2
   130   109   110    1
   131   109   111    1
   132   173   175   am
   133     5     2    1
   134    17    18    1
   135     3    13   am
   136     3     2    1
   137   198   197    1
   138   181   180    1
   139   181   183   ar
   140     2     1    1
   141    32    33    2
   142    32    38   am
   143   199   197    1
   144   197   194    1
   145    18    20   ar
   146    18    19   ar
   147    38    39    1
   148    20    22   ar
   149   187   186    2
   150    53    52   ar
   151    47    48    1
   152    47    40   am
   153    19    21   ar
   154    48    51    1
   155    48    49    1
   156   193   194    1
   157   192   190   ar
   158    52    51    1
   159    52    54   ar
   160   194   195    1
   161    65    63    1
   162   191   190   ar
   163    39    40    1
   164    39    42    1
   165   190   189    1
   166   186   185    1
   167    22    21   ar
   168   196   195    2
   169    40    41    2
   170   188   189    1
   171   188   185    1
   172    49    50    2
   173   184   185    1
   174    45    44    2
   175    43    42    1
   176    43    44    1
   177    63    62    2
   178    63    64    1
   179    62    61    1
   180    44    46   am
   181    58    57    2
   182    61    60    1
   183    59    60    1
   184    59    56    1
   185    57    56    1
   186    73    71   ar
   187    56    55    1
   188    71    72   ar
   189    71    70    1
   190    70    67    1
   191    67    68    1
   192    67    66    1
   193    69    68    2
