@<TRIPOS>MOLECULE
tmp/4b74B00.pdb
 206 201 0 0 0
SMALL
GASTEIGER

@<TRIPOS>ATOM
      1  N         44.9500   13.6580  -34.8340 N.3    67  TYR67      -0.1227
      2  CA        45.0900   14.0120  -36.2200 C.3    67  TYR67       0.1736
      3  C         43.7530   13.7890  -36.9560 C.2    67  TYR67       0.2595
      4  O         43.3810   14.6070  -37.8020 O.2    67  TYR67      -0.2718
      5  CB        46.2150   13.2110  -36.8820 C.3    67  TYR67       0.0548
      6  CG        46.3570   13.5510  -38.3440 C.ar   67  TYR67      -0.0200
      7  CD1       46.9220   14.7510  -38.7360 C.ar   67  TYR67      -0.0009
      8  CD2       45.9260   12.6760  -39.3300 C.ar   67  TYR67      -0.0009
      9  CE1       47.0580   15.0770  -40.0560 C.ar   67  TYR67       0.0417
     10  CE2       46.0580   12.9950  -40.6730 C.ar   67  TYR67       0.0417
     11  CZ        46.6210   14.1890  -41.0350 C.ar   67  TYR67       0.1957
     12  OH        46.7600   14.5210  -42.3650 O.3    67  TYR67      -0.2866
     13  N         43.0520   12.7010  -36.6300 N.am   68  HIS68      -0.1975
     14  CA        41.7540   12.4050  -37.2710 C.3    68  HIS68       0.1656
     15  C         40.6630   13.4570  -37.0210 C.2    68  HIS68       0.2291
     16  O         39.7220   13.5730  -37.7890 O.2    68  HIS68      -0.2864
     17  CB        41.2800   10.9900  -36.9210 C.3    68  HIS68       0.0771
     18  CG        40.6670   10.8320  -35.5600 C.ar   68  HIS68       0.0820
     19  ND1       41.2960   10.1490  -34.5400 N.ar   68  HIS68      -0.2267
     20  CD2       39.4860   11.2610  -35.0490 C.ar   68  HIS68       0.1154
     21  CE1       40.5310   10.1670  -33.4610 C.ar   68  HIS68       0.1986
     22  NE2       39.4280   10.8350  -33.7440 N.ar   68  HIS68      -0.2212
     23  N         51.3420   11.9700  -37.7890 N.3    89  VAL89      -0.1231
     24  CA        50.2170   11.2240  -38.3730 C.3    89  VAL89       0.1692
     25  C         50.2610    9.7590  -37.9070 C.2    89  VAL89       0.2592
     26  O         49.2190    9.1490  -37.6530 O.2    89  VAL89      -0.2718
     27  CB        50.1730   11.3460  -39.9000 C.3    89  VAL89       0.0266
     28  CG1       49.0000   10.5350  -40.5010 C.3    89  VAL89       0.0020
     29  CG2       50.0550   12.8080  -40.2910 C.3    89  VAL89       0.0020
     30  N         51.4540    9.1880  -37.7860 N.am   90  ASP90      -0.1960
     31  CA        51.5600    7.7700  -37.4550 C.3    90  ASP90       0.1840
     32  C         50.9500    7.4470  -36.1060 C.2    90  ASP90       0.2622
     33  O         50.4340    6.3390  -35.9230 O.2    90  ASP90      -0.2715
     34  CB        53.0090    7.2940  -37.4310 C.3    90  ASP90       0.1450
     35  CG        53.6770    7.4020  -38.7770 C.2    90  ASP90       0.3671
     36  OD1       53.1050    6.9350  -39.7990 O.co2  90  ASP90      -0.2456
     37  OD2       54.7810    7.9580  -38.8080 O.co2  90  ASP90      -0.2456
     38  N         51.0120    8.4060  -35.1770 N.am   91  GLN91      -0.1963
     39  CA        50.4690    8.2300  -33.8210 C.3    91  GLN91       0.1733
     40  C         49.0790    8.8940  -33.6040 C.2    91  GLN91       0.2616
     41  O         48.5370    8.8530  -32.4890 O.2    91  GLN91      -0.2715
     42  CB        51.4790    8.7550  -32.8010 C.3    91  GLN91       0.0408
     43  CG        52.7810    7.9440  -32.7040 C.3    91  GLN91       0.0908
     44  CD        52.5780    6.6190  -31.9830 C.2    91  GLN91       0.2608
     45  OE1       52.1240    6.5840  -30.8390 O.2    91  GLN91      -0.2717
     46  NE2       52.9130    5.5240  -32.6500 N.am   91  GLN91      -0.0878
     47  N         48.5190    9.4950  -34.6640 N.am   92  ASP92      -0.1971
     48  CA        47.2220   10.1820  -34.6130 C.3    92  ASP92       0.1709
     49  C         47.2700   11.3030  -33.5910 C.2    92  ASP92       0.2293
     50  O         46.3620   11.4310  -32.7470 O.2    92  ASP92      -0.2864
     51  CB        46.0980    9.1940  -34.2680 C.3    92  ASP92       0.1436
     52  CG        44.7060    9.7500  -34.5420 C.2    92  ASP92       0.3671
     53  OD1       44.5250   10.7930  -35.2310 O.co2  92  ASP92      -0.2456
     54  OD2       43.7730    9.1130  -34.0460 O.co2  92  ASP92      -0.2456
     55  N         42.0160    8.2830  -28.0900 N.3   166  ARG166     -0.1245
     56  CA        41.9490    8.3950  -29.5380 C.3   166  ARG166      0.1563
     57  C         40.8710    7.5390  -30.2300 C.2   166  ARG166      0.2260
     58  O         40.3560    7.9100  -31.2700 O.2   166  ARG166     -0.2867
     59  CB        43.3430    8.1980  -30.1510 C.3   166  ARG166      0.0307
     60  CG        43.9770    6.8170  -30.0790 C.3   166  ARG166      0.0489
     61  CD        44.9750    6.6300  -31.2650 C.3   166  ARG166      0.2205
     62  NE        44.2040    6.6070  -32.4930 N.pl3 166  ARG166     -0.0865
     63  CZ        43.7240    5.5050  -33.0830 C.cat 166  ARG166      0.5346
     64  NH1       43.9270    4.2960  -32.5690 N.pl3 166  ARG166      0.1354
     65  NH2       43.0310    5.6300  -34.2050 N.pl3 166  ARG166      0.1354
     66  N         41.5140    3.2340  -26.7260 N.3   179  ASP179     -0.1239
     67  CA        42.8530    3.3630  -27.2280 C.3   179  ASP179      0.1674
     68  C         43.2710    4.7710  -26.9650 C.2   179  ASP179      0.2266
     69  O         42.5090    5.7030  -27.2120 O.2   179  ASP179     -0.2867
     70  CB        42.8710    3.1190  -28.7220 C.3   179  ASP179      0.1410
     71  CG        43.9920    2.2360  -29.1300 C.2   179  ASP179      0.3668
     72  OD1       43.8460    1.0100  -28.9070 O.co2 179  ASP179     -0.2456
     73  OD2       45.0010    2.7630  -29.6650 O.co2 179  ASP179     -0.2456
     74  N         44.7910    9.5320  -44.7030 N.3   496  MET496     -0.1230
     75  CA        44.0360    8.5200  -43.9850 C.3   496  MET496      0.1702
     76  C         43.2090    7.7170  -44.9810 C.2   496  MET496      0.2592
     77  O         42.7850    8.2450  -45.9660 O.2   496  MET496     -0.2718
     78  CB        43.0990    9.2140  -43.0130 C.3   496  MET496      0.0401
     79  CG        43.7870   10.0210  -41.9630 C.3   496  MET496      0.0596
     80  SD        42.5790   10.7580  -40.8100 S.3   496  MET496     -0.1393
     81  CE        41.8630   12.0580  -41.7740 C.3   496  MET496      0.0692
     82  N         42.9800    6.4440  -44.7260 N.am  497  PHE497     -0.1962
     83  CA        42.0910    5.7040  -45.5950 C.3   497  PHE497      0.1771
     84  C         41.1580    4.7680  -44.8370 C.2   497  PHE497      0.2619
     85  O         41.4270    4.3620  -43.6930 O.2   497  PHE497     -0.2715
     86  CB        42.8570    4.9990  -46.7380 C.3   497  PHE497      0.0574
     87  CG        43.8610    3.9510  -46.3010 C.ar  497  PHE497     -0.0200
     88  CD1       45.1770    4.2990  -45.9890 C.ar  497  PHE497     -0.0042
     89  CD2       43.4920    2.6050  -46.2060 C.ar  497  PHE497     -0.0042
     90  CE1       46.1190    3.3140  -45.5820 C.ar  497  PHE497     -0.0003
     91  CE2       44.4030    1.6280  -45.8090 C.ar  497  PHE497     -0.0003
     92  CZ        45.7250    1.9820  -45.4940 C.ar  497  PHE497     -0.0000
     93  N         40.0540    4.4310  -45.4960 N.am  498  ASP498     -0.1971
     94  CA        38.9640    3.7140  -44.8510 C.3   498  ASP498      0.1709
     95  C         39.2410    2.1960  -44.7240 C.2   498  ASP498      0.2293
     96  O         39.9870    1.6070  -45.5280 O.2   498  ASP498     -0.2864
     97  CB        37.6570    3.9810  -45.6260 C.3   498  ASP498      0.1436
     98  CG        36.4290    3.6410  -44.8050 C.2   498  ASP498      0.3671
     99  OD1       36.0740    4.4410  -43.9070 O.co2 498  ASP498     -0.2456
    100  OD2       35.8300    2.5740  -45.0580 O.co2 498  ASP498     -0.2456
    101  N         49.9870   -6.3080  -42.7320 N.3   525  ARG525     -0.1245
    102  CA        50.6730   -6.0610  -41.4700 C.3   525  ARG525      0.1563
    103  C         52.0100   -5.3470  -41.6860 C.2   525  ARG525      0.2260
    104  O         52.3790   -4.4510  -40.9330 O.2   525  ARG525     -0.2867
    105  CB        50.9000   -7.3630  -40.6930 C.3   525  ARG525      0.0307
    106  CG        51.6240   -7.1320  -39.3690 C.3   525  ARG525      0.0489
    107  CD        50.8150   -6.1840  -38.4430 C.3   525  ARG525      0.2205
    108  NE        49.4920   -6.7560  -38.1410 N.pl3 525  ARG525     -0.0865
    109  CZ        48.4590   -6.0810  -37.6290 C.cat 525  ARG525      0.5346
    110  NH1       48.5530   -4.7800  -37.3420 N.pl3 525  ARG525      0.1354
    111  NH2       47.3100   -6.7110  -37.4000 N.pl3 525  ARG525      0.1354
    112  N         52.7790   -3.3910  -44.1820 N.3   527  TYR527     -0.1227
    113  CA        52.4050   -2.0160  -44.4880 C.3   527  TYR527      0.1736
    114  C         52.0010   -1.2590  -43.2280 C.2   527  TYR527      0.2595
    115  O         52.4210   -0.1230  -43.0390 O.2   527  TYR527     -0.2718
    116  CB        51.2020   -2.0040  -45.4410 C.3   527  TYR527      0.0548
    117  CG        50.8130   -0.6460  -45.9670 C.ar  527  TYR527     -0.0200
    118  CD1       50.0860    0.2370  -45.1730 C.ar  527  TYR527     -0.0009
    119  CD2       51.1720   -0.2370  -47.2640 C.ar  527  TYR527     -0.0009
    120  CE1       49.7210    1.4870  -45.6420 C.ar  527  TYR527      0.0417
    121  CE2       50.8130    1.0160  -47.7500 C.ar  527  TYR527      0.0417
    122  CZ        50.0830    1.8720  -46.9200 C.ar  527  TYR527      0.1957
    123  OH        49.7100    3.1010  -47.3500 O.3   527  TYR527     -0.2866
    124  N         51.1800   -1.8900  -42.3700 N.am  528  LEU528     -0.1980
    125  CA        50.6760   -1.2290  -41.1650 C.3   528  LEU528      0.1596
    126  C         51.8530   -0.9360  -40.2540 C.2   528  LEU528      0.2287
    127  O         51.8740    0.0610  -39.5800 O.2   528  LEU528     -0.2864
    128  CB        49.6010   -2.0550  -40.4170 C.3   528  LEU528      0.0297
    129  CG        48.1290   -1.7650  -40.7460 C.3   528  LEU528      0.0022
    130  CD1       47.7810   -2.1330  -42.1650 C.3   528  LEU528      0.0001
    131  CD2       47.1850   -2.4850  -39.7640 C.3   528  LEU528      0.0001
    132  N         54.5900    0.2070  -40.9600 N.3   530  THR530     -0.1204
    133  CA        55.5570    1.1210  -41.5700 C.3   530  THR530      0.1979
    134  C         55.2050    2.6090  -41.4620 C.2   530  THR530      0.2459
    135  O         54.3090    3.0880  -42.1420 O.2   530  THR530     -0.2732
    136  CB        55.8100    0.7320  -43.0520 C.3   530  THR530      0.1783
    137  OG1       56.2980   -0.6190  -43.1130 O.3   530  THR530     -0.2211
    138  CG2       56.7820    1.6650  -43.7090 C.3   530  THR530      0.0376
    139  N         55.9180    3.3530  -40.6000 N.am  531  PRO531     -0.2728
    140  CA        55.6120    4.7700  -40.4040 C.3   531  PRO531      0.1401
    141  C         55.8300    5.6000  -41.6640 C.2   531  PRO531      0.2269
    142  O         56.6390    5.2260  -42.5020 O.2   531  PRO531     -0.2865
    143  CB        56.6150    5.2070  -39.3140 C.3   531  PRO531      0.0296
    144  CG        57.1080    3.9640  -38.6860 C.3   531  PRO531      0.0237
    145  CD        57.0470    2.9070  -39.7620 C.3   531  PRO531      0.0939
    146  N         53.9000    6.0700  -44.2230 N.3   533  LEU533     -0.1231
    147  CA        52.8610    5.7270  -45.2090 C.3   533  LEU533      0.1678
    148  C         51.4680    6.1280  -44.6850 C.2   533  LEU533      0.2434
    149  O         51.2980    6.2960  -43.4800 O.2   533  LEU533     -0.2733
    150  CB        52.9090    4.2250  -45.4840 C.3   533  LEU533      0.0284
    151  CG        53.9250    3.7920  -46.5560 C.3   533  LEU533      0.0019
    152  CD1       54.1710    2.2940  -46.4110 C.3   533  LEU533      0.0001
    153  CD2       53.3990    4.1490  -47.9570 C.3   533  LEU533      0.0001
    154  N         50.4690    6.2830  -45.5800 N.am  534  PRO534     -0.2718
    155  CA        49.0930    6.5660  -45.1530 C.3   534  PRO534      0.1535
    156  C         48.6020    5.6800  -44.0160 C.2   534  PRO534      0.2598
    157  O         49.1050    4.5700  -43.8380 O.2   534  PRO534     -0.2715
    158  CB        48.2890    6.3070  -46.4080 C.3   534  PRO534      0.0310
    159  CG        49.2470    6.6420  -47.5140 C.3   534  PRO534      0.0237
    160  CD        50.5800    6.2260  -47.0490 C.3   534  PRO534      0.0939
    161  N         47.6250    6.1790  -43.2610 N.am  535  VAL535     -0.1964
    162  CA        47.1570    5.5260  -42.0340 C.3   535  VAL535      0.1727
    163  C         45.7310    5.0120  -42.1300 C.2   535  VAL535      0.2616
    164  O         44.8880    5.5770  -42.8340 O.2   535  VAL535     -0.2715
    165  CB        47.2620    6.4530  -40.7990 C.3   535  VAL535      0.0290
    166  CG1       48.7330    6.6630  -40.4490 C.3   535  VAL535      0.0023
    167  CG2       46.5400    7.7690  -41.0230 C.3   535  VAL535      0.0023
    168  N         45.4970    3.9240  -41.3990 N.am  536  CYS536     -0.1954
    169  CA        44.2080    3.2760  -41.3440 C.3   536  CYS536      0.1843
    170  C         44.0310    2.6640  -39.9800 C.2   536  CYS536      0.2625
    171  O         44.9650    2.6610  -39.1480 O.2   536  CYS536     -0.2714
    172  CB        44.1490    2.1710  -42.3870 C.3   536  CYS536      0.0997
    173  SG        45.4340    0.9330  -42.1290 S.3   536  CYS536     -0.0797
    174  N         42.8400    2.1400  -39.7340 N.am  537  GLN537     -0.1963
    175  CA        42.6100    1.4010  -38.4770 C.3   537  GLN537      0.1733
    176  C         43.0280   -0.0420  -38.6070 C.2   537  GLN537      0.2616
    177  O         43.0000   -0.5960  -39.6770 O.2   537  GLN537     -0.2715
    178  CB        41.1490    1.5040  -38.0720 C.3   537  GLN537      0.0408
    179  CG        40.7640    2.9600  -37.9070 C.3   537  GLN537      0.0908
    180  CD        39.2870    3.2040  -37.7620 C.2   537  GLN537      0.2608
    181  OE1       38.5190    3.0000  -38.7030 O.2   537  GLN537     -0.2717
    182  NE2       38.8780    3.6470  -36.5750 N.am  537  GLN537     -0.0878
    183  N         43.4160   -0.6480  -37.4930 N.am  538  ASP538     -0.1971
    184  CA        43.8540   -2.0200  -37.5010 C.3   538  ASP538      0.1709
    185  C         42.6680   -2.9720  -37.4820 C.2   538  ASP538      0.2293
    186  O         42.2370   -3.3670  -36.4190 O.2   538  ASP538     -0.2864
    187  CB        44.7940   -2.2960  -36.3270 C.3   538  ASP538      0.1436
    188  CG        45.4540   -3.6370  -36.4400 C.2   538  ASP538      0.3671
    189  OD1       44.9550   -4.4660  -37.2360 O.co2 538  ASP538     -0.2456
    190  OD2       46.4650   -3.8670  -35.7420 O.co2 538  ASP538     -0.2456
    191  N         38.4060   -1.3870  -33.5560 N.3   639  GLU639     -0.1245
    192  CA        38.7410    0.0290  -33.3450 C.3   639  GLU639      0.1567
    193  C         37.7500    0.9040  -34.1110 C.2   639  GLU639      0.2260
    194  O         37.4480    0.6460  -35.2720 O.2   639  GLU639     -0.2867
    195  CB        40.1660    0.3370  -33.8080 C.3   639  GLU639      0.0388
    196  CG        40.6420    1.7400  -33.4220 C.3   639  GLU639      0.1160
    197  CD        41.7780    2.2620  -34.2990 C.2   639  GLU639      0.3649
    198  OE1       42.7120    1.4880  -34.5750 O.co2 639  GLU639     -0.2457
    199  OE2       41.7260    3.4470  -34.7060 O.co2 639  GLU639     -0.2457
    200  N         37.0280    5.2930  -34.2860 N.3   641  VAL641     -0.1245
    201  CA        37.4070    6.5860  -33.7920 C.3   641  VAL641      0.1561
    202  C         36.1720    7.2750  -33.2470 C.2   641  VAL641      0.2260
    203  O         35.0810    7.1620  -33.7990 O.2   641  VAL641     -0.2867
    204  CB        38.1110    7.4720  -34.8560 C.3   641  VAL641      0.0252
    205  CG1       39.5870    7.1390  -34.8980 C.3   641  VAL641      0.0019
    206  CG2       37.4390    7.3650  -36.2500 C.3   641  VAL641      0.0019
@<TRIPOS>BOND
     1   153   151    1
     2   121   119   ar
     3   121   122   ar
     4   159   160    1
     5   159   158    1
     6   123   122    1
     7   119   117   ar
     8   160   154    1
     9   122   120   ar
    10    86    87    1
    11    86    83    1
    12   151   152    1
    13   151   150    1
    14   158   155    1
    15    87    89   ar
    16    87    88   ar
    17    89    91   ar
    18    88    90   ar
    19   117   116    1
    20   117   118   ar
    21    77    76    2
    22    91    92   ar
    23   120   118   ar
    24    97    94    1
    25    97    98    1
    26    83    84    1
    27    83    82    1
    28    90    92   ar
    29   154   155    1
    30   154   148   am
    31    96    95    2
    32    93    94    1
    33    93    84   am
    34   150   147    1
    35   116   113    1
    36   147   148    1
    37   147   146    1
    38   155   156    1
    39   100    98   ar
    40    76    82   am
    41    76    75    1
    42    94    95    1
    43    84    85    2
    44    98    99   ar
    45    74    75    1
    46   148   149    2
    47   113   112    1
    48   113   114    1
    49   156   157    2
    50   156   161   am
    51    75    78    1
    52   138   136    1
    53   161   162    1
    54   114   115    2
    55   114   124   am
    56   137   136    1
    57   136   133    1
    58    78    79    1
    59   164   163    2
    60   101   102    1
    61   142   141    2
    62   172   173    1
    63   172   169    1
    64   124   125    1
    65    12    11    1
    66   130   129    1
    67   135   134    2
    68   163   162    1
    69   163   168   am
    70   162   165    1
    71    79    80    1
    72    81    80    1
    73   103   102    1
    74   103   104    2
    75   141   140    1
    76   133   134    1
    77   133   132    1
    78   102   105    1
    79   134   139   am
    80   168   169    1
    81   169   170    1
    82   125   128    1
    83   125   126    1
    84    11    10   ar
    85    11     9   ar
    86   167   165    1
    87   165   166    1
    88   129   128    1
    89   129   131    1
    90   105   106    1
    91    10     8   ar
    92   139   140    1
    93   139   145    1
    94    28    27    1
    95   140   143    1
    96    29    27    1
    97   126   127    2
    98     9     7   ar
    99   170   174   am
   100   170   171    2
   101    27    24    1
   102    36    35   ar
   103   145   144    1
   104   174   175    1
   105   177   176    2
   106   106   107    1
   107     8     6   ar
   108   143   144    1
   109    37    35   ar
   110    35    34    1
   111     7     6   ar
   112   181   180    2
   113   176   175    1
   114   176   183   am
   115   175   178    1
   116   107   108    1
   117    24    25    1
   118    24    23    1
   119     6     5    1
   120   108   109    2
   121   178   179    1
   122    25    30   am
   123    25    26    2
   124   179   180    1
   125     4     3    2
   126    16    15    2
   127    30    31    1
   128   180   182   am
   129   109   111    1
   130   109   110    1
   131   184   183    1
   132   184   185    1
   133   184   187    1
   134   185   186    2
   135    31    34    1
   136    31    32    1
   137    14    15    1
   138    14    17    1
   139    14    13    1
   140   189   188   ar
   141     3    13   am
   142     3     2    1
   143    17    18    1
   144     5     2    1
   145   188   187    1
   146   188   190   ar
   147   206   204    1
   148     2     1    1
   149    32    33    2
   150    32    38   am
   151    18    20   ar
   152    18    19   ar
   153   194   193    2
   154    53    52   ar
   155    38    39    1
   156    20    22   ar
   157   205   204    1
   158   204   201    1
   159   199   197   ar
   160    47    48    1
   161    47    40   am
   162    48    51    1
   163    48    49    1
   164   198   197   ar
   165    52    51    1
   166    52    54   ar
   167    19    21   ar
   168   197   196    1
   169   200   201    1
   170    65    63    1
   171   193   192    1
   172    39    40    1
   173    39    42    1
   174   195   196    1
   175   195   192    1
   176   203   202    2
   177   201   202    1
   178    22    21   ar
   179    40    41    2
   180    49    50    2
   181   191   192    1
   182    63    64    1
   183    63    62    2
   184    42    43    1
   185    43    44    1
   186    46    44   am
   187    62    61    1
   188    44    45    2
   189    58    57    2
   190    61    60    1
   191    57    56    1
   192    59    60    1
   193    59    56    1
   194    73    71   ar
   195    56    55    1
   196    71    72   ar
   197    71    70    1
   198    70    67    1
   199    67    68    1
   200    67    66    1
   201    69    68    2
