@<TRIPOS>MOLECULE
tmp/4b76A00.pdb
 144 140 0 0 0
SMALL
GASTEIGER

@<TRIPOS>ATOM
      1  N          5.7410   21.7950  -44.2150 N.3    70  TYR70      -0.1227
      2  CA         5.8060   22.2140  -42.8160 C.3    70  TYR70       0.1736
      3  C          6.9790   21.5020  -42.1100 C.2    70  TYR70       0.2595
      4  O          7.6670   22.0960  -41.2670 O.2    70  TYR70      -0.2718
      5  CB         4.4870   21.9540  -42.0860 C.3    70  TYR70       0.0548
      6  CG         4.5730   22.3550  -40.6400 C.ar   70  TYR70      -0.0200
      7  CD1        4.4750   23.6940  -40.2760 C.ar   70  TYR70      -0.0009
      8  CD2        4.7550   21.4020  -39.6280 C.ar   70  TYR70      -0.0009
      9  CE1        4.5530   24.0830  -38.9590 C.ar   70  TYR70       0.0417
     10  CE2        4.8360   21.7850  -38.2840 C.ar   70  TYR70       0.0417
     11  CZ         4.7330   23.1330  -37.9550 C.ar   70  TYR70       0.1957
     12  OH         4.8060   23.5810  -36.6460 O.3    70  TYR70      -0.2866
     13  N          7.2030   20.2380  -42.4570 N.am   71  HIS71      -0.1975
     14  CA         8.2840   19.4570  -41.8040 C.3    71  HIS71       0.1656
     15  C          9.6520   19.9920  -42.1030 C.2    71  HIS71       0.2291
     16  O         10.5920   19.6880  -41.3870 O.2    71  HIS71      -0.2864
     17  CB         8.1860   17.9430  -42.0740 C.3    71  HIS71       0.0771
     18  CG         8.5150   17.5020  -43.4710 C.ar   71  HIS71       0.0820
     19  ND1        9.8140   17.3820  -43.9370 N.ar   71  HIS71      -0.2267
     20  CD2        7.7200   17.1470  -44.5040 C.ar   71  HIS71       0.1154
     21  CE1        9.7960   16.9770  -45.1910 C.ar   71  HIS71       0.1986
     22  NE2        8.5390   16.8270  -45.5610 N.ar   71  HIS71      -0.2212
     23  N         -0.7410   22.5460  -41.1040 N.3    92  VAL92      -0.1231
     24  CA         0.0830   21.5160  -40.5190 C.3    92  VAL92       0.1692
     25  C         -0.3990   20.1480  -41.0050 C.2    92  VAL92       0.2592
     26  O          0.4130   19.2820  -41.3180 O.2    92  VAL92      -0.2718
     27  CB         0.0950   21.6060  -38.9850 C.3    92  VAL92       0.0266
     28  CG1        0.8260   20.4240  -38.3840 C.3    92  VAL92       0.0020
     29  CG2        0.7720   22.8790  -38.5510 C.3    92  VAL92       0.0020
     30  N         -1.7130   19.9650  -41.0680 N.am   93  ASP93      -0.1960
     31  CA        -2.2870   18.6960  -41.4500 C.3    93  ASP93       0.1840
     32  C         -1.9340   18.2570  -42.8680 C.2    93  ASP93       0.2622
     33  O         -1.7330   17.0780  -43.1220 O.2    93  ASP93      -0.2715
     34  CB        -3.7910   18.7400  -41.2130 C.3    93  ASP93       0.1450
     35  CG        -4.1250   18.5960  -39.7280 C.2    93  ASP93       0.3671
     36  OD1       -4.1300   17.4470  -39.2170 O.co2  93  ASP93      -0.2456
     37  OD2       -4.3800   19.6260  -39.0800 O.co2  93  ASP93      -0.2456
     38  N         -1.8590   19.2080  -43.7880 N.am   94  GLN94      -0.1963
     39  CA        -1.4410   18.9260  -45.1490 C.3    94  GLN94       0.1733
     40  C          0.0640   18.9750  -45.3050 C.2    94  GLN94       0.2616
     41  O          0.5370   18.6960  -46.3790 O.2    94  GLN94      -0.2715
     42  CB        -2.0210   19.9830  -46.1090 C.3    94  GLN94       0.0408
     43  CG        -3.5170   19.9410  -46.3270 C.3    94  GLN94       0.0908
     44  CD        -4.0340   21.2180  -47.0280 C.2    94  GLN94       0.2608
     45  OE1       -3.2840   22.1810  -47.2470 O.2    94  GLN94      -0.2717
     46  NE2       -5.3150   21.2210  -47.3790 N.am   94  GLN94      -0.0878
     47  N          0.8150   19.3260  -44.2540 N.am   95  ASP95      -0.1971
     48  CA         2.2530   19.5170  -44.3610 C.3    95  ASP95       0.1709
     49  C          2.6140   20.5690  -45.4090 C.2    95  ASP95       0.2293
     50  O          3.4930   20.3470  -46.2520 O.2    95  ASP95      -0.2864
     51  CB         2.9390   18.2050  -44.7340 C.3    95  ASP95       0.1436
     52  CG         4.3850   18.1640  -44.3330 C.2    95  ASP95       0.3671
     53  OD1        4.9530   19.1230  -43.7480 O.co2  95  ASP95      -0.2456
     54  OD2        4.9760   17.1280  -44.6160 O.co2  95  ASP95      -0.2456
     55  N          5.9600   15.7530  -50.8800 N.3   169  ARG169     -0.1245
     56  CA         6.1200   15.7870  -49.4200 C.3   169  ARG169      0.1563
     57  C          6.6860   14.5430  -48.7380 C.2   169  ARG169      0.2260
     58  O          7.2870   14.6590  -47.6660 O.2   169  ARG169     -0.2867
     59  CB         4.8250   16.2350  -48.7550 C.3   169  ARG169      0.0307
     60  CG         3.6090   15.3380  -48.9510 C.3   169  ARG169      0.0489
     61  CD         2.5800   15.5950  -47.8170 C.3   169  ARG169      0.2205
     62  NE         3.2450   15.2460  -46.5790 N.pl3 169  ARG169     -0.0865
     63  CZ         3.2520   14.0280  -46.0420 C.cat 169  ARG169      0.5346
     64  NH1        2.6160   13.0000  -46.6310 N.pl3 169  ARG169      0.1354
     65  NH2        3.9080   13.8480  -44.8980 N.pl3 169  ARG169      0.1354
     66  N          4.5870   18.1010  -34.2200 N.3   499  MET499     -0.1230
     67  CA         4.9390   16.8630  -34.9520 C.3   499  MET499      0.1702
     68  C          5.4050   15.8330  -33.9470 C.2   499  MET499      0.2592
     69  O          6.1150   16.1800  -33.0400 O.2   499  MET499     -0.2718
     70  CB         6.0990   17.1160  -35.9200 C.3   499  MET499      0.0401
     71  CG         5.7000   17.9500  -37.1290 C.3   499  MET499      0.0596
     72  SD         7.0820   18.4230  -38.1980 S.3   499  MET499     -0.1393
     73  CE         7.9530   19.5840  -37.1890 C.3   499  MET499      0.0692
     74  N          5.0240   14.5750  -34.0850 N.am  500  PHE500     -0.1962
     75  CA         5.6320   13.5730  -33.2130 C.3   500  PHE500      0.1771
     76  C          6.1810   12.3710  -33.9860 C.2   500  PHE500      0.2620
     77  O          5.7970   12.1000  -35.1200 O.2   500  PHE500     -0.2715
     78  CB         4.7090   13.1960  -32.0550 C.3   500  PHE500      0.0574
     79  CG         3.3920   12.5740  -32.4600 C.ar  500  PHE500     -0.0200
     80  CD1        3.2750   11.2080  -32.6070 C.ar  500  PHE500     -0.0042
     81  CD2        2.2720   13.3540  -32.6900 C.ar  500  PHE500     -0.0042
     82  CE1        2.0700   10.6160  -32.9780 C.ar  500  PHE500     -0.0003
     83  CE2        1.0640   12.7660  -33.0610 C.ar  500  PHE500     -0.0003
     84  CZ         0.9680   11.3940  -33.2040 C.ar  500  PHE500     -0.0000
     85  N          7.0880   11.6600  -33.3490 N.am  501  ASP501     -0.1957
     86  CA         7.7780   10.5600  -34.0050 C.3   501  ASP501      0.1840
     87  C          6.9020    9.2970  -34.0510 C.2   501  ASP501      0.2622
     88  O          5.9940    9.1120  -33.2270 O.2   501  ASP501     -0.2715
     89  CB         9.0900   10.2740  -33.2650 C.3   501  ASP501      0.1450
     90  CG         9.9700    9.3190  -34.0230 C.2   501  ASP501      0.3671
     91  OD1       10.6070    9.7880  -34.9760 O.co2 501  ASP501     -0.2456
     92  OD2       10.0210    8.0980  -33.6630 O.co2 501  ASP501     -0.2456
     93  N          7.1950    8.4410  -35.0260 N.am  502  SER502     -0.1950
     94  CA         6.6000    7.1230  -35.1520 C.3   502  SER502      0.1924
     95  C          6.7830    6.2380  -33.9160 C.2   502  SER502      0.2314
     96  O          5.9470    5.3630  -33.6410 O.2   502  SER502     -0.2863
     97  CB         7.1560    6.4470  -36.3840 C.3   502  SER502      0.2116
     98  OG         6.5230    5.2090  -36.6140 O.3   502  SER502     -0.2180
     99  N          0.7330   15.9860  -35.4050 N.3   538  VAL538     -0.1231
    100  CA         0.6890   15.0960  -36.5660 C.3   538  VAL538      0.1692
    101  C          1.8990   14.1890  -36.6220 C.2   538  VAL538      0.2592
    102  O          2.9250   14.4460  -35.9870 O.2   538  VAL538     -0.2718
    103  CB         0.6950   15.9030  -37.8820 C.3   538  VAL538      0.0266
    104  CG1       -0.6230   16.6920  -38.0370 C.3   538  VAL538      0.0020
    105  CG2        1.9170   16.8540  -37.9300 C.3   538  VAL538      0.0020
    106  N          1.7640   13.1220  -37.3960 N.am  539  CYS539     -0.1956
    107  CA         2.7770   12.1060  -37.4510 C.3   539  CYS539      0.1843
    108  C          2.6520   11.4160  -38.7860 C.2   539  CYS539      0.2625
    109  O          1.6540   11.5800  -39.4890 O.2   539  CYS539     -0.2714
    110  CB         2.5580   11.0920  -36.3180 C.3   539  CYS539      0.0997
    111  SG         1.0310   10.1310  -36.4990 S.3   539  CYS539     -0.0797
    112  N          3.6670   10.6420  -39.1360 N.am  540  GLN540     -0.1963
    113  CA         3.6030    9.8290  -40.3400 C.3   540  GLN540      0.1733
    114  C          2.6900    8.6560  -40.0420 C.2   540  GLN540      0.2616
    115  O          2.6870    8.1470  -38.9240 O.2   540  GLN540     -0.2715
    116  CB         4.9960    9.3970  -40.7230 C.3   540  GLN540      0.0408
    117  CG         5.8870   10.6150  -40.9400 C.3   540  GLN540      0.0908
    118  CD         7.3290   10.2650  -41.1620 C.2   540  GLN540      0.2608
    119  OE1        8.1250   10.2300  -40.2270 O.2   540  GLN540     -0.2717
    120  NE2        7.6780   10.0050  -42.3930 N.am  540  GLN540     -0.0878
    121  N          1.9230    8.2370  -41.0420 N.am  541  ASP541     -0.1971
    122  CA         0.9300    7.1970  -40.8850 C.3   541  ASP541      0.1709
    123  C          1.5370    5.7860  -40.9690 C.2   541  ASP541      0.2293
    124  O          1.5780    5.1660  -42.0340 O.2   541  ASP541     -0.2864
    125  CB        -0.1850    7.4020  -41.9250 C.3   541  ASP541      0.1436
    126  CG        -1.3190    6.3840  -41.7920 C.2   541  ASP541      0.3671
    127  OD1       -1.2130    5.4520  -40.9700 O.co2 541  ASP541     -0.2456
    128  OD2       -2.3220    6.5210  -42.5190 O.co2 541  ASP541     -0.2456
    129  N          5.5390    5.4200  -45.0220 N.3   642  GLU642     -0.1245
    130  CA         5.6930    6.8420  -45.3420 C.3   642  GLU642      0.1567
    131  C          6.9750    7.3590  -44.7140 C.2   642  GLU642      0.2260
    132  O          7.1700    7.2200  -43.5140 O.2   642  GLU642     -0.2867
    133  CB         4.5070    7.6190  -44.7800 C.3   642  GLU642      0.0388
    134  CG         4.4410    9.0800  -45.1870 C.3   642  GLU642      0.1160
    135  CD         3.5220    9.8930  -44.3040 C.2   642  GLU642      0.3649
    136  OE1        2.4750    9.3680  -43.8120 O.co2 642  GLU642     -0.2457
    137  OE2        3.8590   11.0790  -44.1020 O.co2 642  GLU642     -0.2457
    138  N          9.4410   10.9610  -44.7320 N.3   644  VAL644     -0.1245
    139  CA         9.4920   12.3470  -45.2040 C.3   644  VAL644      0.1561
    140  C         10.8070   12.5730  -45.9280 C.2   644  VAL644      0.2260
    141  O         11.8380   11.9840  -45.5780 O.2   644  VAL644     -0.2867
    142  CB         9.2450   13.4320  -44.0860 C.3   644  VAL644      0.0252
    143  CG1        7.7740   13.6220  -43.8530 C.3   644  VAL644      0.0019
    144  CG2        9.9740   13.1010  -42.7750 C.3   644  VAL644      0.0019
@<TRIPOS>BOND
     1    55    56    1
     2    56    59    1
     3    56    57    1
     4    60    59    1
     5    60    61    1
     6    57    58    2
     7    61    62    1
     8    46    44   am
     9    45    44    2
    10    44    43    1
    11    64    63    1
    12    62    63    2
    13    41    40    2
    14    43    42    1
    15    50    49    2
    16    42    39    1
    17    63    65    1
    18   140   141    2
    19   140   139    1
    20    22    21   ar
    21    22    20   ar
    22    49    48    1
    23   130   129    1
    24   130   133    1
    25   130   131    1
    26    40    39    1
    27    40    47   am
    28   139   138    1
    29   139   142    1
    30    21    19   ar
    31   134   133    1
    32   134   135    1
    33    39    38    1
    34    51    48    1
    35    51    52    1
    36   131   132    2
    37    54    52   ar
    38    20    18   ar
    39    48    47    1
    40    52    53   ar
    41   135   137   ar
    42   135   136   ar
    43     1     2    1
    44   142   143    1
    45   142   144    1
    46    19    18   ar
    47    38    32   am
    48    18    17    1
    49    33    32    2
    50    32    31    1
    51     2     3    1
    52     2     5    1
    53   128   126   ar
    54    13     3   am
    55    13    14    1
    56   120   118   am
    57     3     4    2
    58    15    14    1
    59    15    16    2
    60     5     6    1
    61    17    14    1
    62   124   123    2
    63   125   126    1
    64   125   122    1
    65   126   127   ar
    66    31    34    1
    67    31    30    1
    68    26    25    2
    69    34    35    1
    70   118   117    1
    71   118   119    2
    72    23    24    1
    73    30    25   am
    74   121   122    1
    75   121   114   am
    76    25    24    1
    77   123   122    1
    78   117   116    1
    79   116   113    1
    80     6     7   ar
    81     6     8   ar
    82    24    27    1
    83   113   114    1
    84   113   112    1
    85     7     9   ar
    86   114   115    2
    87    35    36   ar
    88    35    37   ar
    89     8    10   ar
    90   109   108    2
    91   112   108   am
    92    27    29    1
    93    27    28    1
    94     9    11   ar
    95   108   107    1
    96    10    11   ar
    97    72    73    1
    98    72    71    1
    99   104   103    1
   100    11    12    1
   101   105   103    1
   102   103   100    1
   103   107   106    1
   104   107   110    1
   105   106   101   am
   106    71    70    1
   107   101   100    1
   108   101   102    2
   109    98    97    1
   110   100    99    1
   111   111   110    1
   112    97    94    1
   113    70    67    1
   114    94    93    1
   115    94    95    1
   116    77    76    2
   117    93    87   am
   118    91    90   ar
   119    67    66    1
   120    67    68    1
   121    74    68   am
   122    74    75    1
   123    87    86    1
   124    87    88    2
   125    90    92   ar
   126    90    89    1
   127    86    85    1
   128    86    89    1
   129    76    85   am
   130    76    75    1
   131    68    69    2
   132    95    96    2
   133    75    78    1
   134    84    83   ar
   135    84    82   ar
   136    83    81   ar
   137    82    80   ar
   138    81    79   ar
   139    80    79   ar
   140    79    78    1
