@<TRIPOS>MOLECULE
tmp/4b77A00.pdb
 196 187 0 0 0
SMALL
GASTEIGER

@<TRIPOS>ATOM
      1  N          2.2160   -9.0450  -14.5000 N.3    15  GLY15      -0.1210
      2  CA         3.4090   -8.2040  -14.5860 C.3    15  GLY15       0.1956
      3  C          3.7350   -7.6710  -15.9860 C.2    15  GLY15       0.2612
      4  O          4.7450   -7.0110  -16.1720 O.2    15  GLY15      -0.2717
      5  N          2.8910   -7.9580  -16.9730 N.am   16  GLN16      -0.1965
      6  CA         3.2330   -7.6320  -18.3520 C.3    16  GLN16       0.1733
      7  C          2.1040   -6.8800  -19.0370 C.2    16  GLN16       0.2616
      8  O          2.0600   -6.7770  -20.2620 O.2    16  GLN16      -0.2715
      9  CB         3.5930   -8.8910  -19.1340 C.3    16  GLN16       0.0408
     10  CG         4.8090   -9.6050  -18.5690 C.3    16  GLN16       0.0908
     11  CD         5.1040  -10.9010  -19.2990 C.2    16  GLN16       0.2608
     12  OE1        4.5610  -11.1610  -20.3740 O.2    16  GLN16      -0.2717
     13  NE2        5.9660  -11.7270  -18.7120 N.am   16  GLN16      -0.0878
     14  N          1.2100   -6.3540  -18.2190 N.am   17  GLY17      -0.1955
     15  CA         0.1740   -5.4600  -18.6880 C.3    17  GLY17       0.1869
     16  C         -1.0690   -6.1490  -19.2180 C.2    17  GLY17       0.2309
     17  O         -1.1720   -7.3940  -19.2450 O.2    17  GLY17      -0.2863
     18  N         -1.3680   -3.1270  -25.7480 N.3    34  LEU34      -0.1245
     19  CA        -1.3910   -2.8060  -24.3170 C.3    34  LEU34       0.1561
     20  C         -2.1560   -1.5010  -24.0640 C.2    34  LEU34       0.2260
     21  O         -1.9380   -0.5030  -24.7440 O.2    34  LEU34      -0.2867
     22  CB         0.0480   -2.7610  -23.7880 C.3    34  LEU34       0.0270
     23  CG         0.1470   -2.4000  -22.3060 C.3    34  LEU34       0.0019
     24  CD1        0.9500   -3.4040  -21.5350 C.3    34  LEU34       0.0001
     25  CD2        0.8020   -1.0480  -22.2040 C.3    34  LEU34       0.0001
     26  N         -2.6720    1.5470  -22.0130 N.3    36  ASP36      -0.1239
     27  CA        -1.7300    2.3170  -21.2010 C.3    36  ASP36       0.1674
     28  C         -2.2810    3.7050  -20.8460 C.2    36  ASP36       0.2266
     29  O         -2.1730    4.6290  -21.6300 O.2    36  ASP36      -0.2867
     30  CB        -0.3900    2.4250  -21.9470 C.3    36  ASP36       0.1410
     31  CG         0.7260    3.0430  -21.0980 C.2    36  ASP36       0.3668
     32  OD1        0.5320    3.2690  -19.8710 O.co2  36  ASP36      -0.2456
     33  OD2        1.8140    3.2770  -21.6960 O.co2  36  ASP36      -0.2456
     34  N         -0.7460    5.6080  -18.8570 N.3    38  GLY38      -0.1210
     35  CA         0.4510    6.3320  -18.5080 C.3    38  GLY38       0.1956
     36  C          1.1980    6.9190  -19.6880 C.2    38  GLY38       0.2613
     37  O          2.2980    7.3980  -19.5140 O.2    38  GLY38      -0.2717
     38  N          0.6220    6.8350  -20.8950 N.am   39  SER39      -0.1938
     39  CA         1.2620    7.4630  -22.0650 C.3    39  SER39       0.2055
     40  C          0.1900    7.8360  -23.0710 C.2    39  SER39       0.2644
     41  O         -0.9960    7.5870  -22.8230 O.2    39  SER39      -0.2714
     42  CB         2.3170    6.5400  -22.6840 C.3    39  SER39       0.2130
     43  OG         1.6960    5.3790  -23.2140 O.3    39  SER39      -0.2179
     44  N          0.5810    8.4480  -24.1960 N.am   40  SER40      -0.1935
     45  CA        -0.3840    9.1010  -25.0690 C.3    40  SER40       0.2055
     46  C         -0.1320    8.8900  -26.5630 C.2    40  SER40       0.2643
     47  O         -0.7670    9.5470  -27.4030 O.2    40  SER40      -0.2714
     48  CB        -0.4320   10.6150  -24.7810 C.3    40  SER40       0.2130
     49  OG        -0.6980   10.8480  -23.4070 O.3    40  SER40      -0.2179
     50  N          0.7970    7.9970  -26.8860 N.am   41  ASN41      -0.1971
     51  CA         0.9950    7.5640  -28.2450 C.3    41  ASN41       0.1688
     52  C          0.2800    6.2390  -28.5560 C.2    41  ASN41       0.2292
     53  O          0.2700    5.3130  -27.7470 O.2    41  ASN41      -0.2864
     54  CB         2.4960    7.4370  -28.5370 C.3    41  ASN41       0.1181
     55  CG         3.1660    8.7760  -28.6490 C.2    41  ASN41       0.2629
     56  OD1        3.5640    9.3760  -27.6390 O.2    41  ASN41      -0.2716
     57  ND2        3.2730    9.2770  -29.8740 N.am   41  ASN41      -0.0877
     58  N          1.5200    3.4540  -30.6020 N.3    43  ALA43      -0.1245
     59  CA         2.8240    3.0480  -31.0800 C.3    43  ALA43       0.1562
     60  C          2.8500    1.5360  -31.2540 C.2    43  ALA43       0.2260
     61  O          2.6100    0.7850  -30.3000 O.2    43  ALA43      -0.2867
     62  CB         3.9070    3.5320  -30.1160 C.3    43  ALA43       0.0290
     63  N         12.1210    7.8360  -28.6170 N.3    73  VAL73      -0.1245
     64  CA        11.6560    7.9020  -27.2290 C.3    73  VAL73       0.1561
     65  C         12.4910    7.0310  -26.2850 C.2    73  VAL73       0.2260
     66  O         12.2270    5.8250  -26.1100 O.2    73  VAL73      -0.2867
     67  CB        10.1300    7.5990  -27.0660 C.3    73  VAL73       0.0252
     68  CG1        9.6840    7.8310  -25.6150 C.3    73  VAL73       0.0019
     69  CG2        9.2760    8.4170  -28.0210 C.3    73  VAL73       0.0019
     70  N         13.2070    6.2880  -22.4840 N.3    75  TYR75      -0.1241
     71  CA        12.5130    6.4340  -21.2140 C.3    75  TYR75       0.1605
     72  C         13.2700    5.5590  -20.2110 C.2    75  TYR75       0.2264
     73  O         14.2700    4.9210  -20.5740 O.2    75  TYR75      -0.2867
     74  CB        11.0200    6.0510  -21.3630 C.3    75  TYR75       0.0534
     75  CG        10.7870    4.6070  -21.7410 C.ar   75  TYR75      -0.0201
     76  CD1       10.9080    4.1660  -23.0710 C.ar   75  TYR75      -0.0009
     77  CD2       10.4340    3.6680  -20.7610 C.ar   75  TYR75      -0.0009
     78  CE1       10.7110    2.8330  -23.3960 C.ar   75  TYR75       0.0417
     79  CE2       10.2210    2.3440  -21.0860 C.ar   75  TYR75       0.0417
     80  CZ        10.3470    1.9370  -22.3920 C.ar   75  TYR75       0.1957
     81  OH        10.1180    0.6270  -22.6820 O.3    75  TYR75      -0.2866
     82  N         12.4780    3.2700  -27.7340 N.3    80  TRP80      -0.1241
     83  CA        11.9630    2.9100  -29.0540 C.3    80  TRP80       0.1605
     84  C         12.0710    4.0930  -29.9760 C.2    80  TRP80       0.2264
     85  O         12.2250    5.2440  -29.5460 O.2    80  TRP80      -0.2867
     86  CB        10.5280    2.3610  -28.9730 C.3    80  TRP80       0.0550
     87  CG         9.4850    3.4000  -28.5960 C.ar   80  TRP80       0.0003
     88  CD1        9.0570    3.7590  -27.3000 C.ar   80  TRP80       0.0946
     89  CD2        8.6930    4.2400  -29.5020 C.ar   80  TRP80       0.0152
     90  NE1        8.1140    4.7470  -27.3460 N.ar   80  TRP80      -0.2442
     91  CE2        7.8270    5.0680  -28.6480 C.ar   80  TRP80       0.0810
     92  CE3        8.6090    4.3840  -30.8830 C.ar   80  TRP80       0.0012
     93  CZ2        6.9590    6.0000  -29.1870 C.ar   80  TRP80       0.0191
     94  CZ3        7.7230    5.3160  -31.4060 C.ar   80  TRP80       0.0001
     95  CH2        6.9260    6.1130  -30.5810 C.ar   80  TRP80       0.0015
     96  N         14.4650   -3.1320  -25.0290 N.3   111  LYS111     -0.1231
     97  CA        13.7730   -3.4900  -23.7690 C.3   111  LYS111      0.1693
     98  C         12.3640   -2.9050  -23.6680 C.2   111  LYS111      0.2592
     99  O         11.8720   -2.6140  -22.5750 O.2   111  LYS111     -0.2718
    100  CB        14.6240   -3.1630  -22.5250 C.3   111  LYS111      0.0285
    101  CG        15.9650   -3.9020  -22.4700 C.3   111  LYS111      0.0035
    102  CD        16.8380   -3.4430  -21.3070 C.3   111  LYS111      0.0206
    103  CE        17.1900   -1.9600  -21.4110 C.3   111  LYS111      0.1093
    104  NZ        18.2580   -1.4960  -20.4660 N.3   111  LYS111     -0.1314
    105  N         11.7250   -2.7520  -24.8250 N.am  112  PHE112     -0.1976
    106  CA        10.3880   -2.2250  -24.9260 C.3   112  PHE112      0.1639
    107  C          9.4200   -3.3980  -24.9970 C.2   112  PHE112      0.2290
    108  O          8.5210   -3.5240  -24.1660 O.2   112  PHE112     -0.2864
    109  CB        10.2870   -1.3540  -26.1690 C.3   112  PHE112      0.0560
    110  CG         8.9460   -0.7200  -26.3720 C.ar  112  PHE112     -0.0200
    111  CD1        8.6360    0.5000  -25.7690 C.ar  112  PHE112     -0.0042
    112  CD2        8.0090   -1.3110  -27.2280 C.ar  112  PHE112     -0.0042
    113  CE1        7.3900    1.1030  -25.9860 C.ar  112  PHE112     -0.0003
    114  CE2        6.7800   -0.7130  -27.4580 C.ar  112  PHE112     -0.0003
    115  CZ         6.4660    0.4810  -26.8320 C.ar  112  PHE112     -0.0000
    116  N          8.3460   -7.3460  -24.6270 N.3   114  ILE114     -0.1245
    117  CA         8.5890   -8.3410  -23.5890 C.3   114  ILE114      0.1561
    118  C          8.3730   -9.7330  -24.1960 C.2   114  ILE114      0.2260
    119  O          7.3840   -9.9800  -24.8860 O.2   114  ILE114     -0.2867
    120  CB         7.6390   -8.1340  -22.3810 C.3   114  ILE114      0.0252
    121  CG1        7.8850   -6.7730  -21.7360 C.3   114  ILE114      0.0019
    122  CG2        7.7890   -9.2680  -21.3550 C.3   114  ILE114      0.0019
    123  CD1        6.9310   -6.4310  -20.6010 C.3   114  ILE114      0.0001
    124  N          1.5780   -8.9670  -26.6330 N.3   119  TRP119     -0.1241
    125  CA         1.1930   -7.6890  -27.2820 C.3   119  TRP119      0.1605
    126  C          2.2790   -7.1380  -28.1860 C.2   119  TRP119      0.2264
    127  O          3.4830   -7.3790  -27.9770 O.2   119  TRP119     -0.2867
    128  CB         0.6550   -6.6330  -26.2860 C.3   119  TRP119      0.0550
    129  CG         1.5640   -6.3090  -25.1210 C.ar  119  TRP119      0.0003
    130  CD1        1.5000   -6.8340  -23.8120 C.ar  119  TRP119      0.0946
    131  CD2        2.6970   -5.3800  -25.1040 C.ar  119  TRP119      0.0152
    132  NE1        2.4910   -6.2870  -23.0210 N.ar  119  TRP119     -0.2442
    133  CE2        3.2460   -5.4210  -23.7360 C.ar  119  TRP119      0.0810
    134  CE3        3.3070   -4.5570  -26.0590 C.ar  119  TRP119      0.0012
    135  CZ2        4.3560   -4.6780  -23.3670 C.ar  119  TRP119      0.0191
    136  CZ3        4.4080   -3.7740  -25.6640 C.ar  119  TRP119      0.0001
    137  CH2        4.9300   -3.8540  -24.3620 C.ar  119  TRP119      0.0015
    138  N          1.3300   -0.3640  -28.1140 N.3   122  ILE122     -0.1245
    139  CA         0.7780    0.3200  -26.9180 C.3   122  ILE122      0.1561
    140  C         -0.2610    1.3350  -27.3460 C.2   122  ILE122      0.2260
    141  O         -0.0460    2.0590  -28.3120 O.2   122  ILE122     -0.2867
    142  CB         1.8570    1.0350  -26.0790 C.3   122  ILE122      0.0252
    143  CG1        2.8190    0.0070  -25.4500 C.3   122  ILE122      0.0019
    144  CG2        1.1680    1.8930  -24.9990 C.3   122  ILE122      0.0019
    145  CD1        3.9300    0.6310  -24.6190 C.3   122  ILE122      0.0001
    146  N          1.6110   14.9860  -23.0180 N.3   130  ILE130     -0.1245
    147  CA         2.7430   14.0550  -22.9630 C.3   130  ILE130      0.1561
    148  C          2.9190   13.1570  -24.2070 C.2   130  ILE130      0.2260
    149  O          3.7050   12.2280  -24.1680 O.2   130  ILE130     -0.2867
    150  CB         2.7350   13.1700  -21.6800 C.3   130  ILE130      0.0252
    151  CG1        1.4640   12.2980  -21.5960 C.3   130  ILE130      0.0019
    152  CG2        2.8980   14.0370  -20.4380 C.3   130  ILE130      0.0019
    153  CD1        1.4920   11.3000  -20.4500 C.3   130  ILE130      0.0001
    154  N          4.5610   12.0820  -27.6990 N.3   132  ARG132     -0.1245
    155  CA         5.8540   12.3010  -28.3690 C.3   132  ARG132      0.1563
    156  C          5.6590   12.3500  -29.8790 C.2   132  ARG132      0.2260
    157  O          4.8040   11.6480  -30.4090 O.2   132  ARG132     -0.2867
    158  CB         6.8710   11.1890  -28.0140 C.3   132  ARG132      0.0307
    159  CG         7.0610   10.9940  -26.5090 C.3   132  ARG132      0.0489
    160  CD         7.6710   12.2350  -25.8790 C.3   132  ARG132      0.2205
    161  NE         8.1450   11.9510  -24.5300 N.pl3 132  ARG132     -0.0865
    162  CZ         9.3770   11.5690  -24.2240 C.cat 132  ARG132      0.5346
    163  NH1       10.2970   11.4250  -25.1690 N.pl3 132  ARG132      0.1354
    164  NH2        9.6900   11.3290  -22.9600 N.pl3 132  ARG132      0.1354
    165  N         -1.9450    4.6070  -13.5560 N.3   220  ASP220     -0.1225
    166  CA        -1.1630    4.1580  -14.7230 C.3   220  ASP220      0.1805
    167  C         -1.3140    2.6650  -14.9510 C.2   220  ASP220      0.2598
    168  O         -0.6890    1.8670  -14.2660 O.2   220  ASP220     -0.2718
    169  CB         0.3100    4.5720  -14.5750 C.3   220  ASP220      0.1424
    170  CG         1.1730    4.1410  -15.7720 C.2   220  ASP220      0.3668
    171  OD1        0.5910    3.6790  -16.7970 O.co2 220  ASP220     -0.2456
    172  OD2        2.4120    4.3030  -15.6960 O.co2 220  ASP220     -0.2456
    173  N         -2.1980    2.2890  -15.8760 N.am  221  SER221     -0.1938
    174  CA        -2.3810    0.8740  -16.2020 C.3   221  SER221      0.2055
    175  C         -1.1230    0.2400  -16.8670 C.2   221  SER221      0.2644
    176  O         -0.9950   -0.9930  -16.9170 O.2   221  SER221     -0.2714
    177  CB        -3.6320    0.7250  -17.0830 C.3   221  SER221      0.2130
    178  OG        -3.4320    1.3270  -18.3550 O.3   221  SER221     -0.2179
    179  N         -0.1900    1.0840  -17.3390 N.am  222  GLY222     -0.1939
    180  CA         1.0540    0.6170  -17.9940 C.3   222  GLY222      0.2014
    181  C          2.2340    0.4880  -17.0500 C.2   222  GLY222      0.2640
    182  O          3.3860    0.2790  -17.4910 O.2   222  GLY222     -0.2714
    183  N          1.9650    0.5950  -15.7410 N.am  223  THR223     -0.1936
    184  CA         2.9370    0.2560  -14.6970 C.3   223  THR223      0.2028
    185  C          2.3510   -0.8240  -13.8430 C.2   223  THR223      0.2642
    186  O          1.2250   -0.7120  -13.4130 O.2   223  THR223     -0.2714
    187  CB         3.2600    1.4920  -13.8060 C.3   223  THR223      0.1808
    188  OG1        3.9140    2.4530  -14.6170 O.3   223  THR223     -0.2208
    189  CG2        4.1700    1.1470  -12.5910 C.3   223  THR223      0.0379
    190  N          3.1100   -1.8880  -13.6260 N.am  224  THR224     -0.1950
    191  CA         2.6660   -2.9720  -12.7620 C.3   224  THR224      0.1897
    192  C          2.4930   -2.5200  -11.3000 C.2   224  THR224      0.2313
    193  O          1.4240   -2.6950  -10.7060 O.2   224  THR224     -0.2863
    194  CB         3.6500   -4.1540  -12.8360 C.3   224  THR224      0.1794
    195  OG1        3.7310   -4.6120  -14.1970 O.3   224  THR224     -0.2208
    196  CG2        3.1760   -5.3500  -11.9190 C.3   224  THR224      0.0378
@<TRIPOS>BOND
     1    94    92   ar
     2    94    95   ar
     3    60    59    1
     4    60    61    2
     5    59    58    1
     6    59    62    1
     7    92    89   ar
     8    95    93   ar
     9   157   156    2
    10    84    85    2
    11    84    83    1
    12   156   155    1
    13    57    55   am
    14    89    91   ar
    15    89    87   ar
    16    93    91   ar
    17    83    86    1
    18    83    82    1
    19    86    87    1
    20    55    54    1
    21    55    56    2
    22    91    90   ar
    23    63    64    1
    24    87    88   ar
    25    52    51    1
    26    52    53    2
    27    54    51    1
    28   155   158    1
    29   155   154    1
    30   141   140    2
    31    51    50    1
    32   126   127    2
    33   126   125    1
    34   138   139    1
    35    69    67    1
    36   158   159    1
    37   114   112   ar
    38   114   115   ar
    39    47    46    2
    40   140   139    1
    41    90    88   ar
    42   125   124    1
    43   125   128    1
    44    64    67    1
    45    64    65    1
    46   112   110   ar
    47    67    68    1
    48   139   142    1
    49    50    46   am
    50   115   113   ar
    51    46    45    1
    52   159   160    1
    53   110   109    1
    54   110   111   ar
    55   128   129    1
    56    65    66    2
    57   109   106    1
    58   142   143    1
    59   142   144    1
    60   134   136   ar
    61   134   131   ar
    62   113   111   ar
    63   160   161    1
    64    18    19    1
    65   136   137   ar
    66   143   145    1
    67   163   162    1
    68   129   131   ar
    69   129   130   ar
    70   131   133   ar
    71    45    48    1
    72    45    44    1
    73    96    97    1
    74   107   106    1
    75   107   108    2
    76   106   105    1
    77   119   118    2
    78   105    98   am
    79    48    49    1
    80    21    20    2
    81   116   117    1
    82   161   162    2
    83   137   135   ar
    84    19    20    1
    85    19    22    1
    86   162   164    1
    87   148   149    2
    88   148   147    1
    89    44    40   am
    90   118   117    1
    91   130   132   ar
    92    22    23    1
    93    97    98    1
    94    97   100    1
    95   133   135   ar
    96   133   132   ar
    97    98    99    2
    98   117   120    1
    99    78    76   ar
   100    78    80   ar
   101    43    42    1
   102    76    75   ar
   103    40    41    2
   104    40    39    1
   105   146   147    1
   106   147   150    1
   107    42    39    1
   108    81    80    1
   109   100   101    1
   110    70    71    1
   111   101   102    1
   112    80    79   ar
   113   120   121    1
   114   120   122    1
   115    23    25    1
   116    23    24    1
   117    39    38    1
   118    26    27    1
   119    30    27    1
   120    30    31    1
   121    75    74    1
   122    75    77   ar
   123   121   123    1
   124    33    31   ar
   125   150   151    1
   126   150   152    1
   127    29    28    2
   128   151   153    1
   129   103   102    1
   130   103   104    1
   131    74    71    1
   132    71    72    1
   133    27    28    1
   134    31    32   ar
   135    79    77   ar
   136    38    36   am
   137    73    72    2
   138    12    11    2
   139     8     7    2
   140    36    37    2
   141    36    35    1
   142    11    13   am
   143    11    10    1
   144    17    16    2
   145    16    15    1
   146     9    10    1
   147     9     6    1
   148     7     6    1
   149     7    14   am
   150    34    35    1
   151    15    14    1
   152   178   177    1
   153     6     5    1
   154   180   179    1
   155   180   181    1
   156   182   181    2
   157   179   175   am
   158   177   174    1
   159   181   183   am
   160     5     3   am
   161   176   175    2
   162   175   174    1
   163   171   170   ar
   164   174   173    1
   165     4     3    2
   166     3     2    1
   167   173   167   am
   168   170   172   ar
   169   170   169    1
   170   183   184    1
   171   167   166    1
   172   167   168    2
   173   166   169    1
   174   166   165    1
   175   184   185    1
   176   184   187    1
   177   188   187    1
   178     2     1    1
   179   195   194    1
   180   185   190   am
   181   185   186    2
   182   187   189    1
   183   190   191    1
   184   194   191    1
   185   194   196    1
   186   191   192    1
   187   192   193    2
