@<TRIPOS>MOLECULE
tmp/4b78A00.pdb
 216 205 0 0 0
SMALL
GASTEIGER

@<TRIPOS>ATOM
      1  N          2.3920   -9.6940  -13.9320 N.3    11  GLY11      -0.1210
      2  CA         3.5400   -8.7860  -14.0630 C.3    11  GLY11       0.1956
      3  C          3.8540   -8.3270  -15.4670 C.2    11  GLY11       0.2612
      4  O          4.8490   -7.6370  -15.6870 O.2    11  GLY11      -0.2717
      5  N          3.0120   -8.7010  -16.4270 N.am   12  GLN12      -0.1965
      6  CA         3.3160   -8.4290  -17.8240 C.3    12  GLN12       0.1733
      7  C          2.2960   -7.6000  -18.5520 C.2    12  GLN12       0.2616
      8  O          2.4080   -7.4530  -19.7830 O.2    12  GLN12      -0.2715
      9  CB         3.5690   -9.7250  -18.5860 C.3    12  GLN12       0.0408
     10  CG         4.7700  -10.4450  -18.0120 C.3    12  GLN12       0.0908
     11  CD         5.1530  -11.6910  -18.7780 C.2    12  GLN12       0.2608
     12  OE1        4.4860  -12.0930  -19.7370 O.2    12  GLN12      -0.2717
     13  NE2        6.2420  -12.3140  -18.3560 N.am   12  GLN12      -0.0878
     14  N          1.2980   -7.0980  -17.8210 N.am   13  GLY13      -0.1955
     15  CA         0.3470   -6.1520  -18.3940 C.3    13  GLY13       0.1869
     16  C         -0.9350   -6.8330  -18.7860 C.2    13  GLY13       0.2309
     17  O         -1.0650   -8.0450  -18.6860 O.2    13  GLY13      -0.2863
     18  N         -1.0620   -3.7880  -25.2600 N.3    30  LEU30      -0.1245
     19  CA        -1.0970   -3.5570  -23.8310 C.3    30  LEU30       0.1561
     20  C         -1.8630   -2.2640  -23.5530 C.2    30  LEU30       0.2260
     21  O         -1.5870   -1.2380  -24.1890 O.2    30  LEU30      -0.2867
     22  CB         0.3320   -3.4660  -23.3090 C.3    30  LEU30       0.0270
     23  CG         0.3430   -3.3750  -21.7890 C.3    30  LEU30       0.0019
     24  CD1        1.5000   -4.0990  -21.1180 C.3    30  LEU30       0.0001
     25  CD2        0.2850   -1.9190  -21.4200 C.3    30  LEU30       0.0001
     26  N         -2.5510    0.8410  -21.5270 N.3    32  ASP32      -0.1239
     27  CA        -1.5650    1.5820  -20.6890 C.3    32  ASP32       0.1674
     28  C         -2.0390    3.0040  -20.3480 C.2    32  ASP32       0.2266
     29  O         -1.9570    3.9200  -21.1880 O.2    32  ASP32      -0.2867
     30  CB        -0.2480    1.6690  -21.4510 C.3    32  ASP32       0.1410
     31  CG         0.8790    2.2800  -20.6310 C.2    32  ASP32       0.3668
     32  OD1        0.6700    2.5060  -19.4260 O.co2  32  ASP32      -0.2456
     33  OD2        1.9930    2.4650  -21.1930 O.co2  32  ASP32      -0.2456
     34  N         -0.6610    4.8920  -18.3610 N.3    34  GLY34      -0.1210
     35  CA         0.5350    5.6890  -17.9860 C.3    34  GLY34       0.1956
     36  C          1.3200    6.2450  -19.1500 C.2    34  GLY34       0.2613
     37  O          2.4790    6.6910  -18.9710 O.2    34  GLY34      -0.2717
     38  N          0.7480    6.2400  -20.3490 N.am   35  SER35      -0.1938
     39  CA         1.4690    6.7860  -21.5200 C.3    35  SER35       0.2055
     40  C          0.4480    7.1550  -22.5720 C.2    35  SER35       0.2644
     41  O         -0.7340    6.8870  -22.3540 O.2    35  SER35      -0.2714
     42  CB         2.4530    5.7740  -22.1180 C.3    35  SER35       0.2130
     43  OG         1.7340    4.6860  -22.6970 O.3    35  SER35      -0.2179
     44  N          0.8620    7.7860  -23.6790 N.am   36  SER36      -0.1935
     45  CA        -0.1030    8.4390  -24.5630 C.3    36  SER36       0.2055
     46  C          0.1220    8.1770  -26.0320 C.2    36  SER36       0.2643
     47  O         -0.5030    8.8250  -26.8650 O.2    36  SER36      -0.2714
     48  CB        -0.1200    9.9550  -24.2780 C.3    36  SER36       0.2130
     49  OG        -0.4130   10.1420  -22.9000 O.3    36  SER36      -0.2179
     50  N          1.0230    7.2420  -26.3490 N.am   37  ASN37      -0.1971
     51  CA         1.2640    6.8400  -27.7370 C.3    37  ASN37       0.1688
     52  C          0.6140    5.5010  -28.0680 C.2    37  ASN37       0.2292
     53  O          0.5830    4.5890  -27.2330 O.2    37  ASN37      -0.2864
     54  CB         2.7450    6.7070  -28.0220 C.3    37  ASN37       0.1181
     55  CG         3.4420    8.0310  -28.1520 C.2    37  ASN37       0.2629
     56  OD1        3.8430    8.6270  -27.1510 O.2    37  ASN37      -0.2716
     57  ND2        3.6030    8.4890  -29.3640 N.am   37  ASN37      -0.0877
     58  N          1.7400    2.6610  -30.0480 N.3    39  ALA39      -0.1245
     59  CA         3.0740    2.2890  -30.5360 C.3    39  ALA39       0.1562
     60  C          3.0850    0.7950  -30.6950 C.2    39  ALA39       0.2260
     61  O          2.7780    0.0560  -29.7460 O.2    39  ALA39      -0.2867
     62  CB         4.1360    2.7380  -29.5550 C.3    39  ALA39       0.0290
     63  N         12.4290    7.1590  -27.9350 N.3    69  VAL69      -0.1245
     64  CA        12.0090    7.2210  -26.5370 C.3    69  VAL69       0.1561
     65  C         12.9130    6.3670  -25.6670 C.2    69  VAL69       0.2260
     66  O         12.7110    5.1530  -25.5600 O.2    69  VAL69      -0.2867
     67  CB        10.5390    6.7560  -26.3530 C.3    69  VAL69       0.0252
     68  CG1       10.1010    6.9260  -24.8910 C.3    69  VAL69       0.0019
     69  CG2        9.6040    7.5020  -27.2940 C.3    69  VAL69       0.0019
     70  N         13.5960    5.5280  -21.9120 N.3    71  TYR71      -0.1241
     71  CA        12.9240    5.6980  -20.6260 C.3    71  TYR71       0.1605
     72  C         13.7420    4.8970  -19.6220 C.2    71  TYR71       0.2264
     73  O         14.7750    4.3420  -19.9920 O.2    71  TYR71      -0.2867
     74  CB        11.4330    5.2880  -20.7030 C.3    71  TYR71       0.0534
     75  CG        11.1890    3.8530  -21.1220 C.ar   71  TYR71      -0.0201
     76  CD1       11.2960    3.4600  -22.4660 C.ar   71  TYR71      -0.0009
     77  CD2       10.8400    2.8770  -20.1710 C.ar   71  TYR71      -0.0009
     78  CE1       11.0720    2.1390  -22.8420 C.ar   71  TYR71       0.0417
     79  CE2       10.6110    1.5630  -20.5450 C.ar   71  TYR71       0.0417
     80  CZ        10.7410    1.1980  -21.8760 C.ar   71  TYR71       0.1957
     81  OH        10.5320   -0.1190  -22.2250 O.3    71  TYR71      -0.2866
     82  N         13.5710    1.9830  -17.7740 N.3    73  GLN73      -0.1245
     83  CA        13.7750    0.5490  -17.8880 C.3    73  GLN73       0.1566
     84  C         14.0670    0.0700  -19.3180 C.2    73  GLN73       0.2260
     85  O         14.3540   -1.1120  -19.5100 O.2    73  GLN73      -0.2867
     86  CB        12.5770   -0.2210  -17.2880 C.3    73  GLN73       0.0367
     87  CG        12.2700    0.0700  -15.8140 C.3    73  GLN73       0.0905
     88  CD        13.2080   -0.6170  -14.8170 C.2    73  GLN73       0.2608
     89  OE1       13.1550   -0.3270  -13.6180 O.2    73  GLN73      -0.2717
     90  NE2       14.0540   -1.5320  -15.2960 N.am   73  GLN73      -0.0878
     91  N         12.8050    2.6570  -27.0880 N.3    76  TRP76      -0.1241
     92  CA        12.2940    2.2580  -28.3840 C.3    76  TRP76       0.1605
     93  C         12.3800    3.3940  -29.3430 C.2    76  TRP76       0.2264
     94  O         12.4640    4.5530  -28.9380 O.2    76  TRP76      -0.2867
     95  CB        10.8730    1.6910  -28.2550 C.3    76  TRP76       0.0550
     96  CG         9.8300    2.6940  -27.8960 C.ar   76  TRP76       0.0003
     97  CD1        9.3760    3.0280  -26.6210 C.ar   76  TRP76       0.0946
     98  CD2        9.0390    3.5150  -28.8210 C.ar   76  TRP76       0.0152
     99  NE1        8.4110    4.0060  -26.6960 N.ar   76  TRP76      -0.2442
    100  CE2        8.1470    4.3260  -27.9930 C.ar   76  TRP76       0.0810
    101  CE3        8.9980    3.6620  -30.2050 C.ar   76  TRP76       0.0012
    102  CZ2        7.2540    5.2460  -28.5520 C.ar   76  TRP76       0.0191
    103  CZ3        8.1120    4.5800  -30.7600 C.ar   76  TRP76       0.0001
    104  CH2        7.2550    5.3520  -29.9570 C.ar   76  TRP76       0.0015
    105  N         14.7430   -3.8680  -24.2840 N.3   107  LYS107     -0.1231
    106  CA        14.0300   -4.1600  -23.0480 C.3   107  LYS107      0.1693
    107  C         12.6130   -3.5780  -23.0130 C.2   107  LYS107      0.2592
    108  O         12.1010   -3.2480  -21.9380 O.2   107  LYS107     -0.2718
    109  CB        14.8470   -3.6840  -21.8330 C.3   107  LYS107      0.0285
    110  CG        16.1390   -4.4690  -21.6400 C.3   107  LYS107      0.0035
    111  CD        16.9960   -3.9130  -20.5130 C.3   107  LYS107      0.0206
    112  CE        18.0590   -2.9450  -21.0160 C.3   107  LYS107      0.1093
    113  NZ        19.1120   -2.6870  -19.9880 N.3   107  LYS107     -0.1314
    114  N         11.9900   -3.4590  -24.1880 N.am  108  PHE108     -0.1976
    115  CA        10.6110   -2.9470  -24.3030 C.3   108  PHE108      0.1639
    116  C          9.6190   -4.1040  -24.3710 C.2   108  PHE108      0.2290
    117  O          8.6960   -4.2310  -23.5330 O.2   108  PHE108     -0.2864
    118  CB        10.5210   -2.0860  -25.5600 C.3   108  PHE108      0.0560
    119  CG         9.1780   -1.4250  -25.7810 C.ar  108  PHE108     -0.0200
    120  CD1        8.8630   -0.2360  -25.1410 C.ar  108  PHE108     -0.0042
    121  CD2        8.2810   -1.9400  -26.7000 C.ar  108  PHE108     -0.0042
    122  CE1        7.6690    0.4000  -25.3790 C.ar  108  PHE108     -0.0003
    123  CE2        7.0640   -1.3080  -26.9430 C.ar  108  PHE108     -0.0003
    124  CZ         6.7450   -0.1490  -26.2630 C.ar  108  PHE108     -0.0000
    125  N          8.4530   -7.9470  -23.9560 N.3   110  ILE110     -0.1245
    126  CA         8.6790   -8.9290  -22.9030 C.3   110  ILE110      0.1561
    127  C          8.5240  -10.3290  -23.4900 C.2   110  ILE110      0.2260
    128  O          7.5390  -10.6250  -24.1940 O.2   110  ILE110     -0.2867
    129  CB         7.6850   -8.7470  -21.7360 C.3   110  ILE110      0.0252
    130  CG1        7.9000   -7.4010  -21.0510 C.3   110  ILE110      0.0019
    131  CG2        7.8210   -9.8780  -20.7150 C.3   110  ILE110      0.0019
    132  CD1        6.7120   -7.0080  -20.2070 C.3   110  ILE110      0.0001
    133  N          1.6850   -9.6990  -26.1280 N.3   115  TRP115     -0.1241
    134  CA         1.3370   -8.4140  -26.7720 C.3   115  TRP115      0.1605
    135  C          2.4630   -7.8630  -27.6120 C.2   115  TRP115      0.2264
    136  O          3.6690   -8.1850  -27.3950 O.2   115  TRP115     -0.2867
    137  CB         0.7780   -7.3830  -25.7610 C.3   115  TRP115      0.0550
    138  CG         1.6810   -7.0470  -24.5920 C.ar  115  TRP115      0.0003
    139  CD1        1.5760   -7.5260  -23.2700 C.ar  115  TRP115      0.0946
    140  CD2        2.7900   -6.1000  -24.5670 C.ar  115  TRP115      0.0152
    141  NE1        2.5450   -6.9690  -22.4730 N.ar  115  TRP115     -0.2442
    142  CE2        3.3220   -6.1200  -23.1900 C.ar  115  TRP115      0.0810
    143  CE3        3.3770   -5.2640  -25.5050 C.ar  115  TRP115      0.0012
    144  CZ2        4.3670   -5.3000  -22.8050 C.ar  115  TRP115      0.0191
    145  CZ3        4.4850   -4.4790  -25.1150 C.ar  115  TRP115      0.0001
    146  CH2        4.9520   -4.4970  -23.7840 C.ar  115  TRP115      0.0015
    147  N          1.5160   -1.0520  -27.6300 N.3   118  ILE118     -0.1245
    148  CA         0.9620   -0.3940  -26.4330 C.3   118  ILE118      0.1561
    149  C         -0.0400    0.6360  -26.8730 C.2   118  ILE118      0.2260
    150  O          0.1730    1.3750  -27.8300 O.2   118  ILE118     -0.2867
    151  CB         2.0560    0.3110  -25.6060 C.3   118  ILE118      0.0252
    152  CG1        3.0830   -0.6820  -25.0290 C.3   118  ILE118      0.0019
    153  CG2        1.4390    1.1950  -24.5140 C.3   118  ILE118      0.0019
    154  CD1        4.2210    0.0010  -24.2820 C.3   118  ILE118      0.0001
    155  N          1.9250   14.2570  -22.4920 N.3   126  ILE126     -0.1245
    156  CA         3.0250   13.3360  -22.3790 C.3   126  ILE126      0.1561
    157  C          3.2180   12.4540  -23.6340 C.2   126  ILE126      0.2260
    158  O          3.9510   11.4770  -23.5880 O.2   126  ILE126     -0.2867
    159  CB         2.9500   12.4800  -21.0840 C.3   126  ILE126      0.0252
    160  CG1        1.7530   11.5260  -21.1310 C.3   126  ILE126      0.0019
    161  CG2        2.8760   13.3690  -19.8390 C.3   126  ILE126      0.0019
    162  CD1        1.7170   10.5900  -19.9270 C.3   126  ILE126      0.0001
    163  N          4.8340   11.3050  -27.1840 N.3   128  ARG128     -0.1245
    164  CA         6.1800   11.4850  -27.7720 C.3   128  ARG128      0.1563
    165  C          6.0500   11.5240  -29.2960 C.2   128  ARG128      0.2260
    166  O          5.3040   10.7610  -29.8640 O.2   128  ARG128     -0.2867
    167  CB         7.1120   10.3590  -27.3520 C.3   128  ARG128      0.0307
    168  CG         7.2950   10.2550  -25.8330 C.3   128  ARG128      0.0489
    169  CD         7.9720   11.5190  -25.2840 C.3   128  ARG128      0.2205
    170  NE         8.3990   11.3130  -23.8970 N.pl3 128  ARG128     -0.0865
    171  CZ         9.6270   10.9340  -23.5380 C.cat 128  ARG128      0.5346
    172  NH1       10.5580   10.7280  -24.4610 N.pl3 128  ARG128      0.1354
    173  NH2        9.9210   10.7680  -22.2520 N.pl3 128  ARG128      0.1354
    174  N         -1.8320    4.0080  -13.1420 N.3   216  ASP216     -0.1225
    175  CA        -1.0720    3.5480  -14.3060 C.3   216  ASP216      0.1805
    176  C         -1.2130    2.0250  -14.5260 C.2   216  ASP216      0.2598
    177  O         -0.5300    1.2170  -13.8640 O.2   216  ASP216     -0.2718
    178  CB         0.4280    3.8810  -14.1440 C.3   216  ASP216      0.1424
    179  CG         1.2410    3.4630  -15.3540 C.2   216  ASP216      0.3668
    180  OD1        0.6630    2.9870  -16.3670 O.co2 216  ASP216     -0.2456
    181  OD2        2.4720    3.6430  -15.3130 O.co2 216  ASP216     -0.2456
    182  N         -2.0600    1.6140  -15.4660 N.am  217  SER217     -0.1938
    183  CA        -2.2690    0.2110  -15.7240 C.3   217  SER217      0.2055
    184  C         -1.0540   -0.4510  -16.3720 C.2   217  SER217      0.2644
    185  O         -0.9530   -1.6790  -16.4000 O.2   217  SER217     -0.2714
    186  CB        -3.5300    0.0400  -16.5770 C.3   217  SER217      0.2130
    187  OG        -3.3340    0.6620  -17.8560 O.3   217  SER217     -0.2179
    188  N         -0.0910    0.3720  -16.8100 N.am  218  GLY218     -0.1939
    189  CA         1.1150   -0.1280  -17.4390 C.3   218  GLY218      0.2014
    190  C          2.3370   -0.2020  -16.5380 C.2   218  GLY218      0.2640
    191  O          3.4550   -0.3460  -17.0370 O.2   218  GLY218     -0.2714
    192  N          2.1260   -0.0470  -15.2370 N.am  219  THR219     -0.1936
    193  CA         3.1120   -0.4080  -14.2070 C.3   219  THR219      0.2028
    194  C          2.5000   -1.5300  -13.3580 C.2   219  THR219      0.2642
    195  O          1.3400   -1.4450  -12.9410 O.2   219  THR219     -0.2714
    196  CB         3.3650    0.8230  -13.2970 C.3   219  THR219      0.1808
    197  OG1        4.0710    1.8190  -14.0490 O.3   219  THR219     -0.2208
    198  CG2        4.1130    0.4740  -11.9920 C.3   219  THR219      0.0379
    199  N          3.2950   -2.5460  -13.0280 N.am  220  THR220     -0.1950
    200  CA         2.7700   -3.6370  -12.2320 C.3   220  THR220      0.1897
    201  C          2.5260   -3.2090  -10.7780 C.2   220  THR220      0.2313
    202  O          1.4290   -3.4370  -10.2230 O.2   220  THR220     -0.2863
    203  CB         3.7460   -4.8510  -12.2540 C.3   220  THR220      0.1794
    204  OG1        3.8610   -5.3130  -13.6220 O.3   220  THR220     -0.2208
    205  CG2        3.2760   -5.9610  -11.3090 C.3   220  THR220      0.0378
    206  N          4.0500    1.7990   -6.5220 N.3   223  ARG223     -0.1245
    207  CA         5.3440    2.4570   -6.4010 C.3   223  ARG223      0.1563
    208  C          5.1580    3.6690   -5.4990 C.2   223  ARG223      0.2260
    209  O          4.2040    4.4570   -5.6570 O.2   223  ARG223     -0.2867
    210  CB         5.8970    2.8340   -7.7770 C.3   223  ARG223      0.0307
    211  CG         6.0160    1.6030   -8.6850 C.3   223  ARG223      0.0489
    212  CD         6.7190    1.9530   -9.9930 C.3   223  ARG223      0.2205
    213  NE         8.1590    2.1170   -9.7860 N.pl3 223  ARG223     -0.0865
    214  CZ         8.8430    3.2320  -10.0160 C.cat 223  ARG223      0.5346
    215  NH1        8.2510    4.3520  -10.4490 N.pl3 223  ARG223      0.1354
    216  NH2       10.1580    3.2420   -9.7780 N.pl3 223  ARG223      0.1354
@<TRIPOS>BOND
     1   103   101   ar
     2   103   104   ar
     3    60    59    1
     4    60    61    2
     5    59    58    1
     6    59    62    1
     7   101    98   ar
     8   104   102   ar
     9   166   165    2
    10    57    55   am
    11    93    94    2
    12    93    92    1
    13   165   164    1
    14    98   100   ar
    15    98    96   ar
    16   102   100   ar
    17    92    95    1
    18    92    91    1
    19    95    96    1
    20    55    54    1
    21    55    56    2
    22    52    51    1
    23    52    53    2
    24    54    51    1
    25   100    99   ar
    26    63    64    1
    27    96    97   ar
    28   150   149    2
    29   164   167    1
    30   164   163    1
    31    51    50    1
    32   147   148    1
    33   135   136    2
    34   135   134    1
    35   167   168    1
    36    69    67    1
    37   123   121   ar
    38   123   124   ar
    39   149   148    1
    40    47    46    2
    41   134   133    1
    42   134   137    1
    43   121   119   ar
    44    99    97   ar
    45    64    67    1
    46    64    65    1
    47   148   151    1
    48    67    68    1
    49    50    46   am
    50   124   122   ar
    51    46    45    1
    52   168   169    1
    53   119   118    1
    54   119   120   ar
    55   137   138    1
    56    65    66    2
    57   151   152    1
    58   151   153    1
    59   118   115    1
    60   143   145   ar
    61   143   140   ar
    62   122   120   ar
    63   169   170    1
    64    18    19    1
    65   145   146   ar
    66   152   154    1
    67   138   140   ar
    68   138   139   ar
    69   140   142   ar
    70    45    48    1
    71    45    44    1
    72   172   171    1
    73   116   115    1
    74   116   117    2
    75   115   114    1
    76   105   106    1
    77    48    49    1
    78   128   127    2
    79    21    20    2
    80   114   107   am
    81   125   126    1
    82   170   171    2
    83    19    20    1
    84    19    22    1
    85   146   144   ar
    86    44    40   am
    87   157   158    2
    88   157   156    1
    89   171   173    1
    90   127   126    1
    91    22    23    1
    92   139   141   ar
    93   142   144   ar
    94   142   141   ar
    95   106   107    1
    96   106   109    1
    97   107   108    2
    98   126   129    1
    99    78    76   ar
   100    78    80   ar
   101    43    42    1
   102    40    41    2
   103    40    39    1
   104   155   156    1
   105    76    75   ar
   106   156   159    1
   107    81    80    1
   108    42    39    1
   109    70    71    1
   110    80    79   ar
   111   109   110    1
   112    23    25    1
   113    23    24    1
   114   129   130    1
   115   129   131    1
   116   110   111    1
   117    26    27    1
   118    39    38    1
   119    30    27    1
   120    30    31    1
   121    33    31   ar
   122    29    28    2
   123   160   159    1
   124   160   162    1
   125    75    74    1
   126    75    77   ar
   127   159   161    1
   128   130   132    1
   129   112   111    1
   130   112   113    1
   131    74    71    1
   132    27    28    1
   133    31    32   ar
   134    71    72    1
   135    79    77   ar
   136    38    36   am
   137    73    72    2
   138     8     7    2
   139    12    11    2
   140    85    84    2
   141    84    83    1
   142    36    37    2
   143    36    35    1
   144    16    17    2
   145    16    15    1
   146    11    13   am
   147    11    10    1
   148     9    10    1
   149     9     6    1
   150     7     6    1
   151     7    14   am
   152    15    14    1
   153    34    35    1
   154    83    82    1
   155    83    86    1
   156   187   186    1
   157     6     5    1
   158   189   188    1
   159   189   190    1
   160    86    87    1
   161   191   190    2
   162   188   184   am
   163   186   183    1
   164   190   192   am
   165     5     3   am
   166   185   184    2
   167   184   183    1
   168   180   179   ar
   169    87    88    1
   170   183   182    1
   171     4     3    2
   172     3     2    1
   173   182   176   am
   174   179   181   ar
   175   179   178    1
   176    90    88   am
   177   192   193    1
   178    88    89    2
   179   176   175    1
   180   176   177    2
   181   175   178    1
   182   175   174    1
   183   193   194    1
   184   193   196    1
   185     2     1    1
   186   197   196    1
   187   204   203    1
   188   194   199   am
   189   194   195    2
   190   196   198    1
   191   199   200    1
   192   203   200    1
   193   203   205    1
   194   200   201    1
   195   201   202    2
   196   215   214    1
   197   214   213    2
   198   214   216    1
   199   212   213    1
   200   212   211    1
   201   211   210    1
   202   210   207    1
   203   206   207    1
   204   207   208    1
   205   209   208    2
