@<TRIPOS>MOLECULE
tmp/4b79A00.pdb
 210 203 0 0 0
SMALL
GASTEIGER

@<TRIPOS>ATOM
      1  N         -3.2350  -62.3290   18.0300 N.3    17  GLY17      -0.1225
      2  CA        -1.9530  -61.9010   18.5750 C.3    17  GLY17       0.1811
      3  C         -2.1360  -61.2170   19.9200 C.2    17  GLY17       0.2280
      4  O         -1.4050  -60.2800   20.2720 O.2    17  GLY17      -0.2866
      5  N         -1.5300  -62.3900   22.8030 N.3    19  SER19      -0.1202
      6  CA        -0.7570  -63.0580   23.8600 C.3    19  SER19       0.2020
      7  C          0.5430  -62.3490   24.2050 C.2    19  SER19       0.2619
      8  O          1.2600  -62.7840   25.1080 O.2    19  SER19      -0.2717
      9  CB        -0.4660  -64.5240   23.4850 C.3    19  SER19       0.2103
     10  OG         0.2870  -64.6150   22.2840 O.3    19  SER19      -0.2182
     11  N          0.8660  -61.2790   23.4850 N.am   20  SER20      -0.1937
     12  CA         1.9780  -60.4220   23.8770 C.3    20  SER20       0.2055
     13  C          1.8990  -59.0610   23.2220 C.2    20  SER20       0.2644
     14  O          1.0120  -58.8050   22.4110 O.2    20  SER20      -0.2714
     15  CB         3.3350  -61.0820   23.5840 C.3    20  SER20       0.2130
     16  OG         3.6400  -61.0620   22.2130 O.3    20  SER20      -0.2179
     17  N          2.8220  -58.1860   23.6130 N.am   21  GLY21      -0.1939
     18  CA         3.0080  -56.8870   22.9750 C.3    21  GLY21       0.2014
     19  C          1.7630  -56.0460   22.7890 C.2    21  GLY21       0.2638
     20  O          0.9780  -55.8640   23.7140 O.2    21  GLY21      -0.2714
     21  N          1.5850  -55.5380   21.5720 N.am   22  ILE22      -0.1977
     22  CA         0.4970  -54.6080   21.2610 C.3    22  ILE22       0.1596
     23  C         -0.8630  -55.2710   21.4520 C.2    22  ILE22       0.2287
     24  O         -1.7850  -54.6830   22.0230 O.2    22  ILE22      -0.2864
     25  CB         0.6390  -54.0510   19.8160 C.3    22  ILE22       0.0276
     26  CG1        1.8450  -53.1160   19.7470 C.3    22  ILE22       0.0022
     27  CG2       -0.6390  -53.3440   19.3650 C.3    22  ILE22       0.0022
     28  CD1        2.2640  -52.7710   18.3300 C.3    22  ILE22       0.0001
     29  N         -3.6930  -66.3200   20.5120 N.3    41  GLY41      -0.1210
     30  CA        -2.2980  -66.2610   20.0720 C.3    41  GLY41       0.1956
     31  C         -1.5340  -67.5250   20.3940 C.2    41  GLY41       0.2611
     32  O         -2.1140  -68.5120   20.8360 O.2    41  GLY41      -0.2717
     33  N         -0.2280  -67.4840   20.1620 N.am   42  LEU42      -0.1979
     34  CA         0.6610  -68.5750   20.5310 C.3    42  LEU42       0.1596
     35  C          1.1770  -68.2880   21.9270 C.2    42  LEU42       0.2287
     36  O          1.2840  -67.1240   22.3280 O.2    42  LEU42      -0.2864
     37  CB         1.8250  -68.6770   19.5420 C.3    42  LEU42       0.0297
     38  CG         1.4420  -68.8060   18.0640 C.3    42  LEU42       0.0022
     39  CD1        2.6990  -68.8490   17.1980 C.3    42  LEU42       0.0001
     40  CD2        0.5580  -70.0250   17.8520 C.3    42  LEU42       0.0001
     41  N         -4.0850  -70.6170   19.9610 N.3    60  LEU60      -0.1231
     42  CA        -4.5820  -70.9130   18.6280 C.3    60  LEU60       0.1693
     43  C         -3.6810  -70.3250   17.5650 C.2    60  LEU60       0.2592
     44  O         -3.4420  -69.1160   17.5340 O.2    60  LEU60      -0.2718
     45  CB        -6.0070  -70.3750   18.4390 C.3    60  LEU60       0.0284
     46  CG        -6.7500  -70.8670   17.1900 C.3    60  LEU60       0.0019
     47  CD1       -6.5810  -72.3620   17.0150 C.3    60  LEU60       0.0001
     48  CD2       -8.2320  -70.5190   17.2530 C.3    60  LEU60       0.0001
     49  N         -3.1780  -71.1980   16.6990 N.am   61  ASP61      -0.1960
     50  CA        -2.4760  -70.7930   15.4930 C.3    61  ASP61       0.1840
     51  C         -3.5500  -70.4390   14.4730 C.2    61  ASP61       0.2622
     52  O         -4.2650  -71.3220   13.9890 O.2    61  ASP61      -0.2715
     53  CB        -1.6140  -71.9670   15.0080 C.3    61  ASP61       0.1450
     54  CG        -0.8310  -71.6500   13.7640 C.2    61  ASP61       0.3671
     55  OD1       -1.1360  -70.6610   13.0770 O.co2  61  ASP61      -0.2456
     56  OD2        0.1030  -72.4120   13.4640 O.co2  61  ASP61      -0.2456
     57  N         -3.6670  -69.1520   14.1440 N.am   62  ILE62      -0.1963
     58  CA        -4.7670  -68.6680   13.3000 C.3    62  ILE62       0.1727
     59  C         -4.6090  -69.0140   11.8120 C.2    62  ILE62       0.2616
     60  O         -5.5130  -68.7410   11.0180 O.2    62  ILE62      -0.2715
     61  CB        -5.0590  -67.1460   13.4900 C.3    62  ILE62       0.0290
     62  CG1       -3.8690  -66.2740   13.0710 C.3    62  ILE62       0.0022
     63  CG2       -5.4320  -66.8590   14.9340 C.3    62  ILE62       0.0023
     64  CD1       -4.1810  -64.7870   13.0420 C.3    62  ILE62       0.0001
     65  N         -3.4760  -69.6140   11.4420 N.am   63  THR63      -0.1951
     66  CA        -3.3090  -70.1660   10.0980 C.3    63  THR63       0.1897
     67  C         -4.0160  -71.5290    9.9910 C.2    63  THR63       0.2313
     68  O         -4.2130  -72.0370    8.8900 O.2    63  THR63      -0.2863
     69  CB        -1.8230  -70.2880    9.6670 C.3    63  THR63       0.1794
     70  OG1       -1.1600  -71.2570   10.4760 O.3    63  THR63      -0.2208
     71  CG2       -1.0820  -68.9350    9.7770 C.3    63  THR63       0.0378
     72  N         -4.4050  -58.2420   14.8720 N.3    84  ASN84      -0.1225
     73  CA        -3.1140  -57.7150   15.3220 C.3    84  ASN84       0.1785
     74  C         -1.9660  -58.6890   15.0850 C.2    84  ASN84       0.2597
     75  O         -0.8130  -58.2730   14.9840 O.2    84  ASN84      -0.2718
     76  CB        -3.2110  -57.3070   16.7980 C.3    84  ASN84       0.1169
     77  CG        -1.8680  -57.1770   17.4650 C.2    84  ASN84       0.2627
     78  OD1       -1.2240  -56.1160   17.4210 O.2    84  ASN84      -0.2716
     79  ND2       -1.4300  -58.2530   18.1120 N.am   84  ASN84      -0.0877
     80  N         -2.2680  -59.9840   15.0010 N.am   85  ALA85      -0.1966
     81  CA        -1.2200  -60.9780   14.8000 C.3    85  ALA85       0.1728
     82  C         -0.4090  -60.5920   13.5710 C.2    85  ALA85       0.2617
     83  O         -0.9590  -60.2800   12.5100 O.2    85  ALA85      -0.2715
     84  CB        -1.8060  -62.3850   14.6460 C.3    85  ALA85       0.0334
     85  N          0.9050  -60.5760   13.7460 N.am   86  GLY86      -0.1940
     86  CA         1.8270  -60.2970   12.6620 C.3    86  GLY86       0.2014
     87  C          3.1830  -60.8480   13.0360 C.2    86  GLY86       0.2638
     88  O          3.5200  -60.8930   14.2190 O.2    86  GLY86      -0.2714
     89  N          3.9400  -61.2900   12.0350 N.am   87  ILE87      -0.1977
     90  CA         5.3170  -61.7420   12.2440 C.3    87  ILE87       0.1596
     91  C          6.2330  -61.1810   11.1550 C.2    87  ILE87       0.2287
     92  O          5.7760  -60.7030   10.1210 O.2    87  ILE87      -0.2864
     93  CB         5.4470  -63.2860   12.2050 C.3    87  ILE87       0.0276
     94  CG1        4.9380  -63.8310   10.8460 C.3    87  ILE87       0.0022
     95  CG2        4.7660  -63.9140   13.4270 C.3    87  ILE87       0.0022
     96  CD1        5.1940  -65.3230   10.6220 C.3    87  ILE87       0.0001
     97  N         10.3040  -62.4510    9.5410 N.3    89  ARG89      -0.1245
     98  CA        11.4690  -63.3210    9.6260 C.3    89  ARG89       0.1563
     99  C         12.6780  -62.6390    9.0050 C.2    89  ARG89       0.2260
    100  O         13.6270  -63.2940    8.5990 O.2    89  ARG89      -0.2867
    101  CB        11.1700  -64.6610    8.9630 C.3    89  ARG89       0.0307
    102  CG        10.0170  -65.4180    9.6210 C.3    89  ARG89       0.0489
    103  CD        10.4290  -66.0000   10.9680 C.3    89  ARG89       0.2205
    104  NE         9.2930  -66.6590   11.6270 N.pl3  89  ARG89      -0.0865
    105  CZ         8.5860  -66.1750   12.6560 C.cat  89  ARG89       0.5346
    106  NH1        8.8770  -64.9990   13.2190 N.pl3  89  ARG89       0.1354
    107  NH2        7.5750  -66.8900   13.1430 N.pl3  89  ARG89       0.1354
    108  N          0.1530  -65.4240    7.4760 N.3   105  LEU105     -0.1245
    109  CA        -0.2550  -64.9580    8.7940 C.3   105  LEU105      0.1561
    110  C         -0.6670  -63.4910    8.7650 C.2   105  LEU105      0.2260
    111  O         -1.7240  -63.1280    9.2720 O.2   105  LEU105     -0.2867
    112  CB         0.8390  -65.1570    9.8320 C.3   105  LEU105      0.0270
    113  CG         0.4370  -64.5840   11.1960 C.3   105  LEU105      0.0019
    114  CD1       -0.7830  -65.3420   11.7140 C.3   105  LEU105      0.0001
    115  CD2        1.5780  -64.6740   12.1770 C.3   105  LEU105      0.0001
    116  N         -3.7340  -53.9070   12.1400 N.3   131  ILE131     -0.1231
    117  CA        -2.5070  -53.2510   12.5090 C.3   131  ILE131      0.1692
    118  C         -1.5530  -53.2130   11.3240 C.2   131  ILE131      0.2592
    119  O         -1.1040  -54.2600   10.8450 O.2   131  ILE131     -0.2718
    120  CB        -1.8340  -53.9390   13.7110 C.3   131  ILE131      0.0266
    121  CG1       -2.8180  -53.9910   14.8850 C.3   131  ILE131      0.0019
    122  CG2       -0.5600  -53.1790   14.0830 C.3   131  ILE131      0.0020
    123  CD1       -3.2080  -52.6150   15.4130 C.3   131  ILE131      0.0001
    124  N         -1.2500  -52.0010   10.8700 N.am  132  ALA132     -0.1966
    125  CA        -0.3580  -51.7740    9.7490 C.3   132  ALA132      0.1728
    126  C          1.0620  -51.5910   10.2770 C.2   132  ALA132      0.2617
    127  O          1.4580  -52.2400   11.2460 O.2   132  ALA132     -0.2715
    128  CB        -0.7960  -50.5430    8.9530 C.3   132  ALA132      0.0334
    129  N          1.8140  -50.6930    9.6640 N.am  133  SER133     -0.1936
    130  CA         3.2370  -50.5460    9.9660 C.3   133  SER133      0.2055
    131  C          3.7820  -49.3120    9.2660 C.2   133  SER133      0.2642
    132  O          3.2480  -48.8580    8.2430 O.2   133  SER133     -0.2714
    133  CB         3.9680  -51.7910    9.4510 C.3   133  SER133      0.2130
    134  OG         5.3900  -51.6480    9.5080 O.3   133  SER133     -0.2179
    135  N          4.8940  -48.7930    9.7720 N.am  134  MET134     -0.1976
    136  CA         5.6610  -47.8010    9.0300 C.3   134  MET134      0.1605
    137  C          5.9940  -48.3580    7.6340 C.2   134  MET134      0.2287
    138  O          6.1280  -47.5970    6.6650 O.2   134  MET134     -0.2864
    139  CB         6.9500  -47.4690    9.7770 C.3   134  MET134      0.0413
    140  CG         6.7600  -46.8110   11.1360 C.3   134  MET134      0.0598
    141  SD         6.1200  -45.1380   11.0330 S.3   134  MET134     -0.1393
    142  CE         4.3470  -45.4410   10.9860 C.3   134  MET134      0.0692
    143  N          7.3550  -58.7510    5.0550 N.3   146  TYR146     -0.1241
    144  CA         6.6660  -57.9310    6.0680 C.3   146  TYR146      0.1605
    145  C          6.1060  -56.6580    5.4470 C.2   146  TYR146      0.2264
    146  O          4.9390  -56.3400    5.6280 O.2   146  TYR146     -0.2867
    147  CB         7.6180  -57.5700    7.2030 C.3   146  TYR146      0.0534
    148  CG         6.9860  -56.8110    8.3500 C.ar  146  TYR146     -0.0201
    149  CD1        6.1450  -57.4400    9.2480 C.ar  146  TYR146     -0.0009
    150  CD2        7.2760  -55.4670    8.5660 C.ar  146  TYR146     -0.0009
    151  CE1        5.5810  -56.7470   10.3200 C.ar  146  TYR146      0.0417
    152  CE2        6.7250  -54.7660    9.6350 C.ar  146  TYR146      0.0417
    153  CZ         5.8830  -55.4040   10.5100 C.ar  146  TYR146      0.1957
    154  OH         5.3470  -54.6870   11.5710 O.3   146  TYR146     -0.2866
    155  N          2.1530  -55.5970    4.8510 N.3   150  LYS150     -0.1245
    156  CA         1.5860  -54.4280    5.5210 C.3   150  LYS150      0.1561
    157  C          1.0210  -53.4320    4.5260 C.2   150  LYS150      0.2260
    158  O          0.0130  -52.7640    4.8190 O.2   150  LYS150     -0.2867
    159  CB         2.6120  -53.8080    6.4650 C.3   150  LYS150      0.0271
    160  CG         2.9820  -54.7290    7.6360 C.3   150  LYS150      0.0035
    161  CD         1.7830  -55.0210    8.5150 C.3   150  LYS150      0.0206
    162  CE         2.1800  -55.7760    9.7740 C.3   150  LYS150      0.1093
    163  NZ         0.9990  -56.0470   10.6290 N.3   150  LYS150     -0.1314
    164  N          1.4340  -48.3180   13.6430 N.3   176  PRO176     -0.2102
    165  CA         2.2870  -47.9460   14.7550 C.3   176  PRO176      0.1504
    166  C          3.6830  -47.6520   14.2560 C.2   176  PRO176      0.2576
    167  O          4.1070  -48.2020   13.2260 O.2   176  PRO176     -0.2718
    168  CB         2.3100  -49.2040   15.6560 C.3   176  PRO176      0.0282
    169  CG         1.3830  -50.1900   15.0230 C.3   176  PRO176      0.0208
    170  CD         1.2170  -49.7700   13.5890 C.3   176  PRO176      0.0893
    171  N          4.3660  -46.7660   14.9710 N.am  177  GLY177     -0.1943
    172  CA         5.7910  -46.5360   14.7700 C.3   177  GLY177      0.2014
    173  C          6.5540  -47.5950   15.5430 C.2   177  GLY177      0.2639
    174  O          6.1290  -48.7430   15.6030 O.2   177  GLY177     -0.2714
    175  N          7.6760  -47.2190   16.1410 N.am  178  TRP178     -0.1959
    176  CA         8.5260  -48.1720   16.7930 C.3   178  TRP178      0.1771
    177  C          8.0860  -48.3200   18.2230 C.2   178  TRP178      0.2619
    178  O          8.2630  -47.4090   19.0160 O.2   178  TRP178     -0.2715
    179  CB         9.9750  -47.7090   16.6730 C.3   178  TRP178      0.0590
    180  CG        10.3680  -47.6240   15.2300 C.ar  178  TRP178      0.0006
    181  CD1       10.2470  -46.5400   14.3740 C.ar  178  TRP178      0.0946
    182  CD2       10.8750  -48.7120   14.4040 C.ar  178  TRP178      0.0152
    183  NE1       10.6630  -46.8660   13.1110 N.ar  178  TRP178     -0.2442
    184  CE2       11.0740  -48.1560   13.0670 C.ar  178  TRP178      0.0810
    185  CE3       11.2240  -50.0350   14.6480 C.ar  178  TRP178      0.0012
    186  CZ2       11.5840  -48.9140   12.0240 C.ar  178  TRP178      0.0191
    187  CZ3       11.7240  -50.7950   13.5860 C.ar  178  TRP178      0.0001
    188  CH2       11.9070  -50.2480   12.3070 C.ar  178  TRP178      0.0015
    189  N          7.4700  -49.4590   18.5330 N.am  179  ILE179     -0.1977
    190  CA         6.8560  -49.6850   19.8230 C.3   179  ILE179      0.1596
    191  C          7.7160  -50.6860   20.5890 C.2   179  ILE179      0.2287
    192  O          8.0800  -51.7560   20.0730 O.2   179  ILE179     -0.2864
    193  CB         5.4230  -50.2390   19.6910 C.3   179  ILE179      0.0276
    194  CG1        4.5980  -49.3940   18.7070 C.3   179  ILE179      0.0022
    195  CG2        4.7430  -50.3380   21.0570 C.3   179  ILE179      0.0022
    196  CD1        4.4710  -47.9180   19.0710 C.3   179  ILE179      0.0001
    197  N          8.1050  -53.4790   22.3370 N.3   181  THR181     -0.1204
    198  CA         7.5040  -54.7560   22.7060 C.3   181  THR181      0.1979
    199  C          8.6040  -55.8120   22.8120 C.2   181  THR181      0.2459
    200  O          9.3690  -56.0000   21.8590 O.2   181  THR181     -0.2732
    201  CB         6.4460  -55.1960   21.6700 C.3   181  THR181      0.1783
    202  OG1        7.0360  -55.2950   20.3710 O.3   181  THR181     -0.2211
    203  CG2        5.3180  -54.1810   21.5950 C.3   181  THR181      0.0376
    204  N          8.7370  -56.4560   23.9940 N.am  182  PRO182     -0.2728
    205  CA         9.5910  -57.6480   24.1030 C.3   182  PRO182      0.1401
    206  C          8.8540  -58.9160   23.6510 C.2   182  PRO182      0.2269
    207  O          8.7480  -59.1730   22.4490 O.2   182  PRO182     -0.2865
    208  CB         9.9170  -57.7100   25.6010 C.3   182  PRO182      0.0296
    209  CG         8.7290  -57.0840   26.2600 C.3   182  PRO182      0.0237
    210  CD         8.2620  -56.0020   25.3180 C.3   182  PRO182      0.0939
@<TRIPOS>BOND
     1   157   158    2
     2   157   156    1
     3   155   156    1
     4   143   144    1
     5   145   146    2
     6   145   144    1
     7   156   159    1
     8   144   147    1
     9   159   160    1
    10   138   137    2
    11   147   148    1
    12   108   109    1
    13   137   136    1
    14   160   161    1
    15   132   131    2
    16   148   150   ar
    17   148   149   ar
    18   161   162    1
    19   150   152   ar
    20   100    99    2
    21   110   109    1
    22   110   111    2
    23   109   112    1
    24    68    67    2
    25   128   125    1
    26   101   102    1
    27   101    98    1
    28    99    98    1
    29   136   135    1
    30   136   139    1
    31   149   151   ar
    32   131   135   am
    33   131   130    1
    34   133   134    1
    35   133   130    1
    36    97    98    1
    37   102   103    1
    38   152   153   ar
    39   129   130    1
    40   129   126   am
    41    69    71    1
    42    69    66    1
    43    69    70    1
    44   125   126    1
    45   125   124    1
    46   162   163    1
    47   139   140    1
    48   112   113    1
    49    67    66    1
    50    66    65    1
    51    92    91    2
    52   126   127    2
    53   151   153   ar
    54   153   154    1
    55    96    94    1
    56   119   118    2
    57    94    93    1
    58   124   118   am
    59   103   104    1
    60   142   141    1
    61    60    59    2
    62   141   140    1
    63    91    90    1
    64   113   114    1
    65   113   115    1
    66   118   117    1
    67    65    59   am
    68   104   105    2
    69    59    58    1
    70   186   188   ar
    71   186   184   ar
    72    89    90    1
    73    89    87   am
    74   116   117    1
    75    93    90    1
    76    93    95    1
    77   188   187   ar
    78   117   120    1
    79    83    82    2
    80   105   107    1
    81   105   106    1
    82    86    87    1
    83    86    85    1
    84    87    88    2
    85    64    62    1
    86   184   183   ar
    87   184   182   ar
    88    62    61    1
    89    55    54   ar
    90   183   181   ar
    91   167   166    2
    92    58    61    1
    93    58    57    1
    94    56    54   ar
    95    61    63    1
    96    82    85   am
    97    82    81    1
    98   187   185   ar
    99   170   164    1
   100   170   169    1
   101   164   165    1
   102   120   122    1
   103   120   121    1
   104    54    53    1
   105    52    51    2
   106    57    51   am
   107   166   165    1
   108   166   171   am
   109   181   180   ar
   110   182   185   ar
   111   182   180   ar
   112    51    50    1
   113    84    81    1
   114   165   168    1
   115   172   171    1
   116   172   173    1
   117    81    80    1
   118    72    73    1
   119   121   123    1
   120    75    74    2
   121    80    74   am
   122    53    50    1
   123   169   168    1
   124    74    73    1
   125   180   179    1
   126    73    76    1
   127    50    49    1
   128   173   174    2
   129   173   175   am
   130   175   176    1
   131   179   176    1
   132    49    43   am
   133   176   177    1
   134    76    77    1
   135    47    46    1
   136    46    48    1
   137    46    45    1
   138    39    38    1
   139    78    77    2
   140    77    79   am
   141    44    43    2
   142    43    42    1
   143    40    38    1
   144     1     2    1
   145    38    37    1
   146   177   189   am
   147   177   178    2
   148    28    26    1
   149    45    42    1
   150   189   190    1
   151     2     3    1
   152    42    41    1
   153   194   196    1
   154   194   193    1
   155    27    25    1
   156    37    34    1
   157   193   190    1
   158   193   195    1
   159    26    25    1
   160    25    22    1
   161   190   191    1
   162     3     4    2
   163    30    31    1
   164    30    29    1
   165   192   191    2
   166    33    31   am
   167    33    34    1
   168   202   201    1
   169    31    32    2
   170    34    35    1
   171    22    23    1
   172    22    21    1
   173    23    24    2
   174    21    19   am
   175   203   201    1
   176   201   198    1
   177   200   199    2
   178    35    36    2
   179    16    15    1
   180    10     9    1
   181   197   198    1
   182    14    13    2
   183   207   206    2
   184   198   199    1
   185    19    18    1
   186    19    20    2
   187     5     6    1
   188   199   204   am
   189    18    17    1
   190    13    17   am
   191    13    12    1
   192    11    12    1
   193    11     7   am
   194     9     6    1
   195    15    12    1
   196   206   205    1
   197     6     7    1
   198   204   205    1
   199   204   210    1
   200   205   208    1
   201     7     8    2
   202   210   209    1
   203   208   209    1
