@<TRIPOS>MOLECULE
tmp/4b7cD00.pdb
 126 115 0 0 0
SMALL
GASTEIGER

@<TRIPOS>ATOM
      1  N         91.5360  -10.8110    4.4390 N.3    44  SER44      -0.1217
      2  CA        90.5150   -9.8500    4.8080 C.3    44  SER44       0.1889
      3  C         90.4840   -8.6890    3.8330 C.2    44  SER44       0.2288
      4  O         91.4920   -8.0200    3.6390 O.2    44  SER44      -0.2866
      5  CB        90.7770   -9.3290    6.2180 C.3    44  SER44       0.2089
      6  OG        89.8650   -8.3020    6.5310 O.3    44  SER44      -0.2183
      7  N         88.8570   -5.1190    3.4340 N.3    46  ASP46      -0.1239
      8  CA        88.2270   -4.1080    4.2870 C.3    46  ASP46       0.1674
      9  C         88.3120   -2.6820    3.7060 C.2    46  ASP46       0.2266
     10  O         89.3140   -2.3340    3.0910 O.2    46  ASP46      -0.2867
     11  CB        88.7740   -4.2580    5.7020 C.3    46  ASP46       0.1410
     12  CG        88.0180   -3.3870    6.7010 C.2    46  ASP46       0.3668
     13  OD1       88.2300   -2.1600    6.7160 O.co2  46  ASP46      -0.2456
     14  OD2       87.1780   -3.9170    7.4430 O.co2  46  ASP46      -0.2456
     15  N         89.0510   -0.0450    5.1010 N.3    48  ALA48      -0.1245
     16  CA        90.3000    0.5590    5.6120 C.3    48  ALA48       0.1562
     17  C         91.4730    0.4490    4.6240 C.2    48  ALA48       0.2260
     18  O         92.4470    1.2110    4.7060 O.2    48  ALA48      -0.2867
     19  CB        90.6940   -0.0440    6.9290 C.3    48  ALA48       0.0290
     20  N         94.9640    2.7600    3.5930 N.3    52  TRP52      -0.1241
     21  CA        96.3300    2.2080    3.4830 C.3    52  TRP52       0.1605
     22  C         96.9700    2.5120    2.1540 C.2    52  TRP52       0.2264
     23  O         98.1950    2.5110    2.0290 O.2    52  TRP52      -0.2867
     24  CB        96.3290    0.6980    3.6850 C.3    52  TRP52       0.0550
     25  CG        95.6890    0.2270    4.9580 C.ar   52  TRP52       0.0003
     26  CD1       95.4480    0.9610    6.1180 C.ar   52  TRP52       0.0946
     27  CD2       95.1710   -1.1130    5.2400 C.ar   52  TRP52       0.0152
     28  NE1       94.8280    0.1880    7.0660 N.ar   52  TRP52      -0.2442
     29  CE2       94.6220   -1.0620    6.5990 C.ar   52  TRP52       0.0810
     30  CE3       95.0900   -2.2990    4.5230 C.ar   52  TRP52       0.0012
     31  CZ2       94.0500   -2.1700    7.1980 C.ar   52  TRP52       0.0191
     32  CZ3       94.4980   -3.4070    5.1330 C.ar   52  TRP52       0.0001
     33  CH2       93.9970   -3.3460    6.4360 C.ar   52  TRP52       0.0015
     34  N         98.3830    5.7880   11.7080 N.3    59  TYR59      -0.1241
     35  CA        99.0800    4.9190   12.6610 C.3    59  TYR59       0.1605
     36  C         99.6980    3.7130   11.9580 C.2    59  TYR59       0.2264
     37  O        100.6110    3.0910   12.4890 O.2    59  TYR59      -0.2867
     38  CB        98.1650    4.4710   13.8080 C.3    59  TYR59       0.0534
     39  CG        96.9110    3.7250   13.4150 C.ar   59  TYR59      -0.0201
     40  CD1       95.7340    4.4090   13.1350 C.ar   59  TYR59      -0.0009
     41  CD2       96.8870    2.3270   13.3650 C.ar   59  TYR59      -0.0009
     42  CE1       94.5770    3.7340   12.7960 C.ar   59  TYR59       0.0417
     43  CE2       95.7290    1.6400   13.0290 C.ar   59  TYR59       0.0417
     44  CZ        94.5750    2.3460   12.7560 C.ar   59  TYR59       0.1957
     45  OH        93.4100    1.6790   12.4160 O.3    59  TYR59      -0.2866
     46  N         98.8230   -4.4780    1.3700 N.3    70  ARG70      -0.1245
     47  CA        98.6050   -4.8710    2.7650 C.3    70  ARG70       0.1563
     48  C         97.2560   -5.5620    2.9220 C.2    70  ARG70       0.2260
     49  O         96.2480   -5.1350    2.3700 O.2    70  ARG70      -0.2867
     50  CB        98.6730   -3.6630    3.7040 C.3    70  ARG70       0.0307
     51  CG        98.4490   -3.9910    5.1700 C.3    70  ARG70       0.0489
     52  CD        98.7220   -2.7780    6.0690 C.3    70  ARG70       0.2205
     53  NE        98.9360   -3.1900    7.4610 N.pl3  70  ARG70      -0.0865
     54  CZ        97.9820   -3.5050    8.3450 C.cat  70  ARG70       0.5346
     55  NH1       96.6990   -3.4350    8.0260 N.pl3  70  ARG70       0.1354
     56  NH2       98.3240   -3.8810    9.5720 N.pl3  70  ARG70       0.1354
     57  N         95.2940   -8.1850    6.1030 N.3    72  LEU72      -0.1245
     58  CA        95.2470   -9.1320    7.1990 C.3    72  LEU72       0.1561
     59  C         94.7590  -10.4420    6.6020 C.2    72  LEU72       0.2260
     60  O         93.9480  -10.4620    5.6620 O.2    72  LEU72      -0.2867
     61  CB        94.3270   -8.6650    8.3320 C.3    72  LEU72       0.0270
     62  CG        94.8950   -7.6740    9.3660 C.3    72  LEU72       0.0019
     63  CD1       95.7150   -8.4420   10.3960 C.3    72  LEU72       0.0001
     64  CD2       95.7490   -6.5690    8.7510 C.3    72  LEU72       0.0001
     65  N         89.0740  -13.8150   10.7290 N.3   122  LEU122     -0.1245
     66  CA        89.1990  -12.5280   10.0360 C.3   122  LEU122      0.1561
     67  C         88.0270  -11.5880   10.3160 C.2   122  LEU122      0.2260
     68  O         88.0090  -10.4560    9.8640 O.2   122  LEU122     -0.2867
     69  CB        89.2950  -12.7490    8.5280 C.3   122  LEU122      0.0270
     70  CG        90.5370  -13.5000    8.0630 C.3   122  LEU122      0.0019
     71  CD1       90.3990  -13.6900    6.5560 C.3   122  LEU122      0.0001
     72  CD2       91.7900  -12.7320    8.4310 C.3   122  LEU122      0.0001
     73  N         90.4800   -8.9950   13.4840 N.3   127  MET127     -0.1230
     74  CA        90.7720   -7.6200   13.8710 C.3   127  MET127      0.1702
     75  C         89.5190   -6.7400   13.9310 C.2   127  MET127      0.2593
     76  O         89.4400   -5.8820   14.7910 O.2   127  MET127     -0.2718
     77  CB        91.8200   -6.9870   12.9700 C.3   127  MET127      0.0401
     78  CG        93.2420   -7.4950   13.2090 C.3   127  MET127      0.0596
     79  SD        93.8570   -7.4710   14.9040 S.3   127  MET127     -0.1393
     80  CE        93.0840   -8.9020   15.6590 C.3   127  MET127      0.0692
     81  N         88.5250   -7.0150   13.0820 N.am  128  THR128     -0.1953
     82  CA        87.2720   -6.2660   13.1490 C.3   128  THR128      0.1897
     83  C         86.5120   -6.5600   14.4470 C.2   128  THR128      0.2313
     84  O         86.0950   -5.6570   15.1760 O.2   128  THR128     -0.2863
     85  CB        86.3630   -6.5300   11.9440 C.3   128  THR128      0.1794
     86  OG1       86.1180   -7.9450   11.8070 O.3   128  THR128     -0.2208
     87  CG2       86.9780   -5.9760   10.6760 C.3   128  THR128      0.0378
     88  N         88.4860   -5.2900   17.4750 N.3   131  THR131     -0.1218
     89  CA        88.3230   -3.8400   17.5150 C.3   131  THR131      0.1862
     90  C         87.0330   -3.5050   18.2650 C.2   131  THR131      0.2287
     91  O         87.0430   -2.7220   19.2260 O.2   131  THR131     -0.2866
     92  CB        88.2760   -3.2040   16.1340 C.3   131  THR131      0.1770
     93  OG1       89.5530   -3.3750   15.4930 O.3   131  THR131     -0.2211
     94  CG2       87.8930   -1.6880   16.2640 C.3   131  THR131      0.0375
     95  N         82.8750   -4.1830   12.0720 N.3   157  VAL157     -0.1245
     96  CA        83.1980   -3.7320   13.4440 C.3   157  VAL157      0.1561
     97  C         81.9180   -3.4040   14.2090 C.2   157  VAL157      0.2260
     98  O         81.6500   -3.9370   15.2960 O.2   157  VAL157     -0.2867
     99  CB        84.1280   -2.5040   13.4470 C.3   157  VAL157      0.0252
    100  CG1       84.3960   -2.0210   14.8810 C.3   157  VAL157      0.0019
    101  CG2       85.4430   -2.7950   12.7310 C.3   157  VAL157      0.0019
    102  N         82.6290    4.6240   13.7780 N.3   220  ASN220     -0.1240
    103  CA        83.4000    4.0500   12.6630 C.3   220  ASN220      0.1653
    104  C         83.4350    4.9490   11.4280 C.2   220  ASN220      0.2266
    105  O         84.1650    4.6650   10.4940 O.2   220  ASN220     -0.2867
    106  CB        82.8150    2.6950   12.2460 C.3   220  ASN220      0.1155
    107  CG        82.9090    1.6610   13.3390 C.2   220  ASN220      0.2627
    108  OD1       84.0020    1.3290   13.7930 O.2   220  ASN220     -0.2716
    109  ND2       81.7630    1.1550   13.7820 N.am  220  ASN220     -0.0877
    110  N         87.1300    4.7240   16.2830 N.3   242  CYS242     -0.1221
    111  CA        87.8030    3.5570   15.6860 C.3   242  CYS242      0.1808
    112  C         88.1970    3.7780   14.2460 C.2   242  CYS242      0.2601
    113  O         89.0500    3.0740   13.7250 O.2   242  CYS242     -0.2717
    114  CB        86.8950    2.3350   15.7440 C.3   242  CYS242      0.0970
    115  SG        86.7350    1.7170   17.4100 S.3   242  CYS242     -0.0800
    116  N         87.5220    4.7130   13.5930 N.am  243  GLY243     -0.1957
    117  CA        87.8070    5.0250   12.2110 C.3   243  GLY243      0.1869
    118  C         86.9360    6.1600   11.7150 C.2   243  GLY243      0.2309
    119  O         86.1200    6.7090   12.4660 O.2   243  GLY243     -0.2863
    120  N         93.3260   -1.4840   17.6280 N.3   269  VAL269     -0.1245
    121  CA        93.2190   -2.8370   18.2050 C.3   269  VAL269      0.1561
    122  C         94.5710   -3.4710   18.5380 C.2   269  VAL269      0.2260
    123  O         94.6710   -4.2140   19.5010 O.2   269  VAL269     -0.2867
    124  CB        92.3680   -3.7890   17.3280 C.3   269  VAL269      0.0252
    125  CG1       93.1040   -4.1470   16.0370 C.3   269  VAL269      0.0019
    126  CG2       92.0120   -5.0300   18.1220 C.3   269  VAL269      0.0019
@<TRIPOS>BOND
     1    46    47    1
     2    23    22    2
     3    22    21    1
     4    49    48    2
     5    47    48    1
     6    47    50    1
     7    10     9    2
     8     7     8    1
     9    21    20    1
    10    21    24    1
    11     4     3    2
    12    24    25    1
    13    50    51    1
    14     9     8    1
    15     3     2    1
    16     8    11    1
    17     1     2    1
    18    30    32   ar
    19    30    27   ar
    20    17    18    2
    21    17    16    1
    22     2     5    1
    23    25    27   ar
    24    25    26   ar
    25    15    16    1
    26    32    33   ar
    27    51    52    1
    28    27    29   ar
    29    16    19    1
    30    60    59    2
    31    11    12    1
    32    52    53    1
    33    57    58    1
    34    26    28   ar
    35     5     6    1
    36    33    31   ar
    37    71    70    1
    38    29    28   ar
    39    29    31   ar
    40    59    58    1
    41    12    13   ar
    42    12    14   ar
    43    58    61    1
    44    53    54    2
    45    55    54    1
    46    70    72    1
    47    70    69    1
    48    61    62    1
    49    54    56    1
    50    69    66    1
    51    64    62    1
    52    62    63    1
    53    68    67    2
    54    66    67    1
    55    66    65    1
    56   105   104    2
    57    87    85    1
    58   104   103    1
    59    34    35    1
    60   118   117    1
    61   118   119    2
    62    86    85    1
    63    85    82    1
    64    36    37    2
    65    36    35    1
    66    95    96    1
    67   117   116    1
    68   106   103    1
    69   106   107    1
    70    45    44    1
    71    35    38    1
    72   103   102    1
    73   101    99    1
    74    44    42   ar
    75    44    43   ar
    76    42    40   ar
    77    77    78    1
    78    77    74    1
    79    43    41   ar
    80    81    82    1
    81    81    75   am
    82    40    39   ar
    83    82    83    1
    84    78    79    1
    85   107   109   am
    86   107   108    2
    87    41    39   ar
    88    39    38    1
    89    96    99    1
    90    96    97    1
    91    99   100    1
    92    73    74    1
    93   116   112   am
    94   113   112    2
    95    74    75    1
    96    75    76    2
    97    97    98    2
    98   112   111    1
    99    83    84    2
   100    79    80    1
   101    93    92    1
   102   111   114    1
   103   111   110    1
   104   114   115    1
   105   125   124    1
   106    92    94    1
   107    92    89    1
   108   124   126    1
   109   124   121    1
   110    88    89    1
   111    89    90    1
   112   120   121    1
   113   121   122    1
   114    90    91    2
   115   122   123    2
