@<TRIPOS>MOLECULE
tmp/4b7dA01.pdb
 193 182 0 0 0
SMALL
GASTEIGER

@<TRIPOS>ATOM
      1  N         -3.6330   -4.7960   18.9930 N.3    61  TRP61      -0.1241
      2  CA        -4.9430   -4.3180   19.3080 C.3    61  TRP61       0.1605
      3  C         -5.2730   -4.3580   20.8050 C.2    61  TRP61       0.2264
      4  O         -6.2690   -3.7530   21.2200 O.2    61  TRP61      -0.2867
      5  CB        -5.9960   -5.1580   18.5880 C.3    61  TRP61       0.0550
      6  CG        -6.1550   -4.6090   17.1380 C.ar   61  TRP61       0.0003
      7  CD1       -5.4300   -4.9930   16.0370 C.ar   61  TRP61       0.0946
      8  CD2       -7.0350   -3.5770   16.7000 C.ar   61  TRP61       0.0152
      9  NE1       -5.8460   -4.2810   14.9220 N.ar   61  TRP61      -0.2442
     10  CE2       -6.7870   -3.3710   15.3060 C.ar   61  TRP61       0.0810
     11  CE3       -7.9990   -2.7930   17.3360 C.ar   61  TRP61       0.0012
     12  CZ2       -7.4900   -2.4380   14.5530 C.ar   61  TRP61       0.0191
     13  CZ3       -8.7060   -1.8710   16.5870 C.ar   61  TRP61       0.0001
     14  CH2       -8.4500   -1.7070   15.1970 C.ar   61  TRP61       0.0015
     15  N        -11.8380   -5.0040   18.8120 N.3    68  LEU68      -0.1245
     16  CA       -12.0620   -5.7820   17.5810 C.3    68  LEU68       0.1561
     17  C        -13.5080   -6.2920   17.4890 C.2    68  LEU68       0.2260
     18  O        -14.1520   -6.5090   18.5120 O.2    68  LEU68      -0.2867
     19  CB       -11.0870   -6.9530   17.5420 C.3    68  LEU68       0.0270
     20  CG        -9.6400   -6.5360   17.3050 C.3    68  LEU68       0.0019
     21  CD1       -8.6780   -7.6800   17.4810 C.3    68  LEU68       0.0001
     22  CD2       -9.4800   -5.8630   15.9330 C.3    68  LEU68       0.0001
     23  N        -12.8170   -9.5750   12.8420 N.3    72  GLU72      -0.1245
     24  CA       -11.4740   -8.9930   12.9100 C.3    72  GLU72       0.1567
     25  C        -10.5510   -9.7080   13.8360 C.2    72  GLU72       0.2260
     26  O         -9.3470   -9.8410   13.5710 O.2    72  GLU72      -0.2867
     27  CB       -11.5750   -7.5290   13.3050 C.3    72  GLU72       0.0388
     28  CG       -12.2220   -6.6610   12.2650 C.3    72  GLU72       0.1160
     29  CD       -12.8020   -5.4010   12.8940 C.2    72  GLU72       0.3649
     30  OE1      -12.6450   -5.2210   14.1300 O.co2  72  GLU72      -0.2457
     31  OE2      -13.4570   -4.6060   12.1830 O.co2  72  GLU72      -0.2457
     32  N         -8.5470  -12.3830   12.6960 N.3    75  LEU75      -0.1231
     33  CA        -7.5210  -12.0390   11.7130 C.3    75  LEU75       0.1693
     34  C         -6.2910  -11.2210   12.2490 C.2    75  LEU75       0.2592
     35  O         -5.2570  -11.0630   11.5410 O.2    75  LEU75      -0.2718
     36  CB        -8.1900  -11.3310   10.5190 C.3    75  LEU75       0.0284
     37  CG        -9.1080  -12.0870    9.5280 C.3    75  LEU75       0.0019
     38  CD1       -9.2980  -11.2550    8.2740 C.3    75  LEU75       0.0001
     39  CD2       -8.4710  -13.3580    9.1380 C.3    75  LEU75       0.0001
     40  N         -6.3790  -10.7260   13.4850 N.am   76  ASN76      -0.1974
     41  CA        -5.2800   -9.8970   14.0020 C.3    76  ASN76       0.1688
     42  C         -3.9640  -10.5250   14.4330 C.2    76  ASN76       0.2292
     43  O         -3.0520   -9.7570   14.8390 O.2    76  ASN76      -0.2864
     44  CB        -5.7350   -8.9950   15.1070 C.3    76  ASN76       0.1181
     45  CG        -6.0120   -9.7320   16.3780 C.2    76  ASN76       0.2629
     46  OD1       -6.8710  -10.6550   16.4100 O.2    76  ASN76      -0.2716
     47  ND2       -5.3200   -9.3290   17.4600 N.am   76  ASN76      -0.0877
     48  N          1.7610   -7.3940   11.1950 N.3    80  LEU80      -0.1231
     49  CA         1.6520   -5.9500   11.0780 C.3    80  LEU80       0.1693
     50  C          0.8150   -5.4810   12.2390 C.2    80  LEU80       0.2591
     51  O          0.8680   -4.3260   12.5800 O.2    80  LEU80      -0.2718
     52  CB         1.0100   -5.5190    9.7510 C.3    80  LEU80       0.0284
     53  CG         1.0050   -4.0000    9.4730 C.3    80  LEU80       0.0019
     54  CD1        2.2330   -3.2530    9.9720 C.3    80  LEU80       0.0001
     55  CD2        0.8090   -3.8710    7.9210 C.3    80  LEU80       0.0001
     56  N          0.0140   -6.3780   12.8360 N.am   81  GLU81      -0.1979
     57  CA        -0.7770   -6.0010   13.9990 C.3    81  GLU81       0.1602
     58  C         -0.3010   -6.6820   15.3050 C.2    81  GLU81       0.2287
     59  O         -1.1070   -7.1490   16.0910 O.2    81  GLU81      -0.2864
     60  CB        -2.2510   -6.2540   13.7250 C.3    81  GLU81       0.0415
     61  CG        -2.7660   -5.4980   12.4400 C.3    81  GLU81       0.1163
     62  CD        -4.2180   -5.7400   12.2660 C.2    81  GLU81       0.3649
     63  OE1       -4.5350   -6.8940   11.9610 O.co2  81  GLU81      -0.2457
     64  OE2       -5.0970   -4.8250   12.4740 O.co2  81  GLU81      -0.2457
     65  N        -13.9200   -4.9390    2.1180 N.3   165  PHE165     -0.1227
     66  CA       -13.4700   -4.5220    3.4510 C.3   165  PHE165      0.1736
     67  C        -12.4490   -3.4230    3.3700 C.2   165  PHE165      0.2595
     68  O        -12.1280   -2.7840    4.3790 O.2   165  PHE165     -0.2718
     69  CB       -13.0330   -5.6790    4.3690 C.3   165  PHE165      0.0547
     70  CG       -11.9390   -6.5490    3.8260 C.ar  165  PHE165     -0.0202
     71  CD1      -10.6640   -6.0430    3.5560 C.ar  165  PHE165     -0.0042
     72  CD2      -12.1570   -7.9120    3.6670 C.ar  165  PHE165     -0.0042
     73  CE1       -9.6270   -6.8750    3.0760 C.ar  165  PHE165     -0.0003
     74  CE2      -11.1420   -8.7510    3.2010 C.ar  165  PHE165     -0.0003
     75  CZ        -9.8600   -8.2270    2.9120 C.ar  165  PHE165     -0.0000
     76  N        -12.0030   -3.1390    2.1580 N.am  166  VAL166     -0.1980
     77  CA       -11.1490   -2.0030    1.9780 C.3   166  VAL166      0.1595
     78  C        -11.9900   -0.7350    1.6660 C.2   166  VAL166      0.2287
     79  O        -11.6760    0.3480    2.1690 O.2   166  VAL166     -0.2864
     80  CB        -9.9200   -2.3620    1.0240 C.3   166  VAL166      0.0276
     81  CG1       -9.1330   -1.1480    0.5680 C.3   166  VAL166      0.0022
     82  CG2       -8.9640   -3.3870    1.7260 C.3   166  VAL166      0.0022
     83  N        -15.1730   -9.8960    5.4380 N.3   178  MET178     -0.1245
     84  CA       -14.0060  -10.4120    6.1300 C.3   178  MET178      0.1570
     85  C        -14.2890  -11.8070    6.6490 C.2   178  MET178      0.2261
     86  O        -13.4360  -12.6920    6.5290 O.2   178  MET178     -0.2867
     87  CB       -13.6610   -9.5040    7.3020 C.3   178  MET178      0.0387
     88  CG       -12.4310   -8.6570    7.1300 C.3   178  MET178      0.0595
     89  SD       -12.0310   -7.7710    8.6640 S.3   178  MET178     -0.1393
     90  CE       -13.3690   -6.5540    8.7640 C.3   178  MET178      0.0692
     91  N         -3.7880  -13.8130    5.3750 N.3   225  HIS225     -0.1226
     92  CA        -4.5540  -12.6310    5.1020 C.3   225  HIS225      0.1752
     93  C         -3.6320  -11.4900    4.6900 C.2   225  HIS225      0.2596
     94  O         -3.7610  -10.8760    3.6150 O.2   225  HIS225     -0.2718
     95  CB        -5.3670  -12.2950    6.3340 C.3   225  HIS225      0.0759
     96  CG        -6.0830  -10.9990    6.2560 C.ar  225  HIS225      0.0818
     97  ND1       -7.2290  -10.8290    5.5200 N.ar  225  HIS225     -0.2268
     98  CD2       -5.8480   -9.8100    6.8550 C.ar  225  HIS225      0.1154
     99  CE1       -7.6680   -9.5970    5.6570 C.ar  225  HIS225      0.1986
    100  NE2       -6.8410   -8.9540    6.4500 N.ar  225  HIS225     -0.2212
    101  N         -2.6400  -11.2510    5.5400 N.am  226  ILE226     -0.1966
    102  CA        -1.8270  -10.0850    5.4060 C.3   226  ILE226      0.1727
    103  C         -1.0870  -10.0950    4.0710 C.2   226  ILE226      0.2616
    104  O         -1.0550   -9.1090    3.3420 O.2   226  ILE226     -0.2715
    105  CB        -0.8840   -9.8920    6.6870 C.3   226  ILE226      0.0290
    106  CG1       -0.5500   -8.4420    6.8710 C.3   226  ILE226      0.0022
    107  CG2        0.3350  -10.8070    6.7010 C.3   226  ILE226      0.0023
    108  CD1       -1.7690   -7.7880    7.3190 C.3   226  ILE226      0.0001
    109  N         -0.5120  -11.2400    3.7330 N.am  227  LEU227     -0.1977
    110  CA         0.2890  -11.3290    2.5240 C.3   227  LEU227      0.1596
    111  C         -0.5640  -11.0850    1.2910 C.2   227  LEU227      0.2287
    112  O         -0.0950  -10.5400    0.2890 O.2   227  LEU227     -0.2864
    113  CB         0.9720  -12.6660    2.4710 C.3   227  LEU227      0.0297
    114  CG         1.9760  -12.8580    3.5760 C.3   227  LEU227      0.0022
    115  CD1        2.7240  -14.1990    3.4150 C.3   227  LEU227      0.0001
    116  CD2        2.9440  -11.6130    3.6050 C.3   227  LEU227      0.0001
    117  N         -3.6340   -9.1770    1.2200 N.3   229  VAL229     -0.1231
    118  CA        -4.0020   -7.7760    1.1400 C.3   229  VAL229      0.1692
    119  C         -2.8900   -6.8350    0.5770 C.2   229  VAL229      0.2591
    120  O         -3.1780   -5.9880   -0.2730 O.2   229  VAL229     -0.2718
    121  CB        -4.6830   -7.3080    2.4370 C.3   229  VAL229      0.0266
    122  CG1       -5.4260   -6.0140    2.2050 C.3   229  VAL229      0.0020
    123  CG2       -5.6920   -8.3560    2.8940 C.3   229  VAL229      0.0020
    124  N         -1.6210   -6.9710    0.9760 N.am  230  ALA230     -0.1980
    125  CA        -0.5940   -6.1030    0.3510 C.3   230  ALA230      0.1597
    126  C         -0.2100   -6.5260   -1.0740 C.2   230  ALA230      0.2287
    127  O         -0.0740   -5.6930   -1.9960 O.2   230  ALA230     -0.2864
    128  CB         0.5900   -6.0390    1.1880 C.3   230  ALA230      0.0319
    129  N         -3.8330   -5.4100   -3.3540 N.3   233  GLU233     -0.1231
    130  CA        -4.3320   -4.0220   -3.2300 C.3   233  GLU233      0.1699
    131  C         -3.3690   -2.8510   -3.2970 C.2   233  GLU233      0.2592
    132  O         -3.5600   -1.9630   -4.1540 O.2   233  GLU233     -0.2718
    133  CB        -5.2280   -3.8430   -2.0090 C.3   233  GLU233      0.0402
    134  CG        -6.1630   -2.5750   -2.0820 C.3   233  GLU233      0.1161
    135  CD        -7.3970   -2.6680   -3.0610 C.2   233  GLU233      0.3649
    136  OE1       -8.1590   -3.6680   -3.0580 O.co2 233  GLU233     -0.2457
    137  OE2       -7.6470   -1.6820   -3.8040 O.co2 233  GLU233     -0.2457
    138  N         -2.3720   -2.7670   -2.3900 N.am  234  THR234     -0.1953
    139  CA        -1.4330   -1.6180   -2.4480 C.3   234  THR234      0.1897
    140  C         -0.6730   -1.6220   -3.7690 C.2   234  THR234      0.2313
    141  O         -0.3890   -0.5630   -4.3130 O.2   234  THR234     -0.2863
    142  CB        -0.2920   -1.7110   -1.4080 C.3   234  THR234      0.1794
    143  OG1       -0.1530   -3.0830   -1.0940 O.3   234  THR234     -0.2208
    144  CG2       -0.6200   -0.9770   -0.1860 C.3   234  THR234      0.0378
    145  N         -0.2890    4.0450   -0.2120 N.3   277  VAL277     -0.1245
    146  CA        -0.5320    4.1200    1.2730 C.3   277  VAL277      0.1561
    147  C         -0.5070    5.6070    1.6940 C.2   277  VAL277      0.2260
    148  O          0.5660    6.1970    1.9200 O.2   277  VAL277     -0.2867
    149  CB         0.4230    3.2310    2.0810 C.3   277  VAL277      0.0252
    150  CG1        0.1560    3.4150    3.6020 C.3   277  VAL277      0.0019
    151  CG2        0.3110    1.7050    1.6390 C.3   277  VAL277      0.0019
    152  N         -0.4740    5.1810    6.9770 N.3   280  ALA280     -0.1231
    153  CA        -0.0020    3.9180    7.5210 C.3   280  ALA280      0.1694
    154  C         -1.0930    3.2530    8.3870 C.2   280  ALA280      0.2592
    155  O         -2.0490    3.9180    8.7620 O.2   280  ALA280     -0.2718
    156  CB         1.2200    4.1820    8.4150 C.3   280  ALA280      0.0304
    157  N         -0.9100    1.9730    8.7380 N.am  281  THR281     -0.1953
    158  CA        -1.8930    1.1970    9.5210 C.3   281  THR281      0.1897
    159  C         -1.9990    1.6960   11.0110 C.2   281  THR281      0.2313
    160  O         -1.1640    2.4820   11.5210 O.2   281  THR281     -0.2863
    161  CB        -1.6470   -0.2790    9.4360 C.3   281  THR281      0.1794
    162  OG1       -0.3260   -0.5980    9.9300 O.3   281  THR281     -0.2208
    163  CG2       -1.7660   -0.7280    7.9060 C.3   281  THR281      0.0378
    164  N          8.0300   -2.4350    4.9760 N.3   341  CYS341     -0.1235
    165  CA         7.4920   -3.3860    4.0170 C.3   341  CYS341      0.1677
    166  C          8.3880   -4.5840    3.7280 C.2   341  CYS341      0.2270
    167  O          9.4780   -4.3980    3.1860 O.2   341  CYS341     -0.2867
    168  CB         7.2000   -2.6530    2.7400 C.3   341  CYS341      0.0956
    169  SG         6.2400   -3.7470    1.6700 S.3   341  CYS341     -0.0801
    170  N        -11.5920    6.1630    1.6020 N.3   379  ASN379     -0.1240
    171  CA       -10.6940    5.6240    2.6780 C.3   379  ASN379      0.1653
    172  C         -9.3440    6.3890    2.9470 C.2   379  ASN379      0.2266
    173  O         -8.3790    6.2710    2.1440 O.2   379  ASN379     -0.2867
    174  CB       -10.4050    4.1560    2.3840 C.3   379  ASN379      0.1155
    175  CG        -9.8740    3.3950    3.6140 C.2   379  ASN379      0.2627
    176  OD1       -9.1130    3.9230    4.4440 O.2   379  ASN379     -0.2716
    177  ND2      -10.2650    2.1420    3.7210 N.am  379  ASN379     -0.0877
    178  N         -6.8990    5.8450    4.5330 N.3   381  MET381     -0.1230
    179  CA        -5.6460    5.0250    4.4440 C.3   381  MET381      0.1702
    180  C         -5.1650    4.6670    3.0400 C.2   381  MET381      0.2592
    181  O         -3.9610    4.4880    2.8430 O.2   381  MET381     -0.2718
    182  CB        -5.6590    3.7830    5.3650 C.3   381  MET381      0.0401
    183  CG        -5.4100    4.1300    6.8590 C.3   381  MET381      0.0596
    184  SD        -5.7890    2.6530    7.8370 S.3   381  MET381     -0.1393
    185  CE        -4.7940    1.4940    7.0360 C.3   381  MET381      0.0692
    186  N         -6.0740    4.5740    2.0570 N.am  382  ILE382     -0.1980
    187  CA        -5.6510    4.0940    0.7100 C.3   382  ILE382      0.1595
    188  C         -5.8530    5.2080   -0.3130 C.2   382  ILE382      0.2287
    189  O         -6.9610    5.7470   -0.3990 O.2   382  ILE382     -0.2864
    190  CB        -6.4570    2.8380    0.2630 C.3   382  ILE382      0.0276
    191  CG1       -6.0710    1.6050    1.1050 C.3   382  ILE382      0.0022
    192  CG2       -6.2110    2.4970   -1.2080 C.3   382  ILE382      0.0022
    193  CD1       -6.7000    1.5710    2.4750 C.3   382  ILE382      0.0001
@<TRIPOS>BOND
     1   141   140    2
     2   132   131    2
     3   137   135   ar
     4   140   139    1
     5   129   130    1
     6   131   130    1
     7   131   138   am
     8   130   133    1
     9   135   136   ar
    10   135   134    1
    11   139   138    1
    12   139   142    1
    13   134   133    1
    14   127   126    2
    15   142   143    1
    16   142   144    1
    17   192   190    1
    18   126   125    1
    19   189   188    2
    20   188   187    1
    21   120   119    2
    22   145   146    1
    23   190   187    1
    24   190   191    1
    25   112   111    2
    26   125   124    1
    27   125   128    1
    28    81    80    1
    29   119   124   am
    30   119   118    1
    31   187   186    1
    32    80    82    1
    33    80    77    1
    34   191   193    1
    35   118   117    1
    36   118   121    1
    37   146   147    1
    38   146   149    1
    39   111   110    1
    40   170   171    1
    41   151   149    1
    42    78    77    1
    43    78    79    2
    44   169   168    1
    45   147   148    2
    46    77    76    1
    47   186   180   am
    48   149   150    1
    49    65    66    1
    50   173   172    2
    51    76    67   am
    52   122   121    1
    53   174   171    1
    54   174   175    1
    55   121   123    1
    56   113   110    1
    57   113   114    1
    58   110   109    1
    59   171   172    1
    60   168   165    1
    61   181   180    2
    62    75    73   ar
    63    75    74   ar
    64   180   179    1
    65    73    71   ar
    66   167   166    2
    67    74    72   ar
    68   104   103    2
    69    67    66    1
    70    67    68    2
    71   115   114    1
    72    66    69    1
    73    71    70   ar
    74   114   116    1
    75   175   177   am
    76   175   176    2
    77    94    93    2
    78    72    70   ar
    79   166   165    1
    80   109   103   am
    81    70    69    1
    82   165   164    1
    83   103   102    1
    84   179   178    1
    85   179   182    1
    86    93    92    1
    87    93   101   am
    88    92    91    1
    89    92    95    1
    90   182   183    1
    91   102   101    1
    92   102   105    1
    93    83    84    1
    94    97    99   ar
    95    97    96   ar
    96    99   100   ar
    97    84    85    1
    98    84    87    1
    99    96    95    1
   100    96    98   ar
   101   100    98   ar
   102    86    85    2
   103   105   107    1
   104   105   106    1
   105   183   184    1
   106   106   108    1
   107   152   153    1
   108   185   184    1
   109    88    87    1
   110    88    89    1
   111   153   154    1
   112   153   156    1
   113   163   161    1
   114    55    53    1
   115    38    37    1
   116   154   157   am
   117   154   155    2
   118    89    90    1
   119   157   158    1
   120    39    37    1
   121   161   158    1
   122   161   162    1
   123    53    52    1
   124    53    54    1
   125   158   159    1
   126    37    36    1
   127    52    49    1
   128    36    33    1
   129   159   160    2
   130    49    48    1
   131    49    50    1
   132    35    34    2
   133    33    34    1
   134    33    32    1
   135    63    62   ar
   136    31    29   ar
   137    50    51    2
   138    50    56   am
   139    34    40   am
   140    28    29    1
   141    28    27    1
   142    62    61    1
   143    62    64   ar
   144    61    60    1
   145    56    57    1
   146    23    24    1
   147    29    30   ar
   148    24    27    1
   149    24    25    1
   150    40    41    1
   151    26    25    2
   152    60    57    1
   153    57    58    1
   154    41    42    1
   155    41    44    1
   156    42    43    2
   157    12    14   ar
   158    12    10   ar
   159     9    10   ar
   160     9     7   ar
   161    44    45    1
   162    14    13   ar
   163    58    59    2
   164    10     8   ar
   165    22    20    1
   166     7     6   ar
   167    45    46    2
   168    45    47   am
   169    13    11   ar
   170     8     6   ar
   171     8    11   ar
   172     6     5    1
   173    20    21    1
   174    20    19    1
   175    17    16    1
   176    17    18    2
   177    19    16    1
   178    16    15    1
   179     5     2    1
   180     1     2    1
   181     2     3    1
   182     3     4    2
