@<TRIPOS>MOLECULE
tmp/4b7hA01.pdb
 222 217 0 0 0
SMALL
GASTEIGER

@<TRIPOS>ATOM
      1  N        -58.1150   11.5840   34.6350 N.3   145  PRO145     -0.2116
      2  CA       -57.1860   12.6570   35.0010 C.3   145  PRO145      0.1372
      3  C        -55.7230   12.2130   34.9230 C.2   145  PRO145      0.2244
      4  O        -54.8250   13.0340   35.1180 O.2   145  PRO145     -0.2868
      5  CB       -57.5640   12.9470   36.4600 C.3   145  PRO145      0.0268
      6  CG       -57.9810   11.5940   36.9680 C.3   145  PRO145      0.0207
      7  CD       -58.7980   11.0380   35.8220 C.3   145  PRO145      0.0892
      8  N        -51.8570    3.2870   38.5890 N.3   188  HIS188     -0.1241
      9  CA       -52.8770    4.3030   38.8280 C.3   188  HIS188      0.1621
     10  C        -53.9870    4.2240   37.7900 C.2   188  HIS188      0.2264
     11  O        -55.1700    4.0960   38.1350 O.2   188  HIS188     -0.2867
     12  CB       -52.2780    5.7130   38.8620 C.3   188  HIS188      0.0745
     13  CG       -53.1930    6.7310   39.4670 C.ar  188  HIS188      0.0817
     14  ND1      -52.8350    8.0500   39.6350 N.ar  188  HIS188     -0.2268
     15  CD2      -54.4550    6.6210   39.9460 C.ar  188  HIS188      0.1154
     16  CE1      -53.8370    8.7090   40.1930 C.ar  188  HIS188      0.1986
     17  NE2      -54.8300    7.8620   40.3990 N.ar  188  HIS188     -0.2212
     18  N        -58.1340    2.9100   37.7680 N.3   192  TYR192     -0.1241
     19  CA       -59.2240    3.7350   37.2490 C.3   192  TYR192      0.1605
     20  C        -59.9940    3.0020   36.1410 C.2   192  TYR192      0.2264
     21  O        -61.2300    2.9850   36.1250 O.2   192  TYR192     -0.2867
     22  CB       -58.6320    5.0480   36.7390 C.3   192  TYR192      0.0534
     23  CG       -59.5860    6.1680   36.3910 C.ar  192  TYR192     -0.0201
     24  CD1      -60.2270    6.2060   35.1560 C.ar  192  TYR192     -0.0009
     25  CD2      -59.7860    7.2320   37.2690 C.ar  192  TYR192     -0.0009
     26  CE1      -61.0770    7.2540   34.8200 C.ar  192  TYR192      0.0417
     27  CE2      -60.6330    8.2890   36.9380 C.ar  192  TYR192      0.0417
     28  CZ       -61.2730    8.2890   35.7130 C.ar  192  TYR192      0.1957
     29  OH       -62.1010    9.3440   35.3910 O.3   192  TYR192     -0.2866
     30  N        -62.2840    0.0240   37.2180 N.3   195  GLY195     -0.1210
     31  CA       -63.4400    0.3860   38.0220 C.3   195  GLY195      0.1956
     32  C        -64.6400    0.7150   37.1500 C.2   195  GLY195      0.2612
     33  O        -64.6480    0.4210   35.9440 O.2   195  GLY195     -0.2717
     34  N        -65.6580    1.3250   37.7490 N.am  196  ASP196     -0.1959
     35  CA       -66.8890    1.6180   37.0290 C.3   196  ASP196      0.1840
     36  C        -66.6250    2.4860   35.8030 C.2   196  ASP196      0.2621
     37  O        -67.2920    2.3370   34.7770 O.2   196  ASP196     -0.2715
     38  CB       -67.8950    2.3440   37.9260 C.3   196  ASP196      0.1450
     39  CG       -68.4220    1.4860   39.0620 C.2   196  ASP196      0.3671
     40  OD1      -68.2250    0.2540   39.0680 O.co2 196  ASP196     -0.2456
     41  OD2      -69.0740    2.0600   39.9500 O.co2 196  ASP196     -0.2456
     42  N        -65.6570    3.3960   35.9140 N.am  197  ARG197     -0.1977
     43  CA       -65.4120    4.3750   34.8490 C.3   197  ARG197      0.1597
     44  C        -64.7840    3.7960   33.5840 C.2   197  ARG197      0.2287
     45  O        -64.6950    4.4790   32.5620 O.2   197  ARG197     -0.2864
     46  CB       -64.5930    5.5610   35.3640 C.3   197  ARG197      0.0334
     47  CG       -65.3190    6.3510   36.4260 C.3   197  ARG197      0.0492
     48  CD       -64.5940    7.6180   36.7730 C.3   197  ARG197      0.2205
     49  NE       -65.3230    8.3450   37.7990 N.pl3 197  ARG197     -0.0865
     50  CZ       -65.0050    9.5680   38.1980 C.cat 197  ARG197      0.5346
     51  NH1      -63.9720   10.1990   37.6510 N.pl3 197  ARG197      0.1354
     52  NH2      -65.7230   10.1550   39.1380 N.pl3 197  ARG197      0.1354
     53  N        -60.7380   15.3910   30.8190 N.3   209  PHE209     -0.1241
     54  CA       -59.5840   15.9760   31.5030 C.3   209  PHE209      0.1605
     55  C        -58.4830   16.2320   30.4960 C.2   209  PHE209      0.2264
     56  O        -58.3380   15.4630   29.5460 O.2   209  PHE209     -0.2867
     57  CB       -59.0140   15.0130   32.5460 C.3   209  PHE209      0.0534
     58  CG       -60.0170   14.5310   33.5570 C.ar  209  PHE209     -0.0203
     59  CD1      -60.8030   13.4220   33.2860 C.ar  209  PHE209     -0.0042
     60  CD2      -60.1570   15.1620   34.7900 C.ar  209  PHE209     -0.0042
     61  CE1      -61.7260   12.9480   34.2100 C.ar  209  PHE209     -0.0003
     62  CE2      -61.0750   14.6950   35.7270 C.ar  209  PHE209     -0.0003
     63  CZ       -61.8670   13.5900   35.4350 C.ar  209  PHE209     -0.0000
     64  N        -54.1870   22.2940   35.3590 N.3   227  LYS227     -0.1245
     65  CA       -54.8120   21.0800   34.8400 C.3   227  LYS227      0.1561
     66  C        -56.2710   21.3700   34.5080 C.2   227  LYS227      0.2260
     67  O        -56.9850   22.0120   35.2840 O.2   227  LYS227     -0.2867
     68  CB       -54.7270   19.9150   35.8320 C.3   227  LYS227      0.0271
     69  CG       -53.3300   19.3200   35.9820 C.3   227  LYS227      0.0035
     70  CD       -53.3550   18.0740   36.8610 C.3   227  LYS227      0.0206
     71  CE       -51.9560   17.4890   37.0680 C.3   227  LYS227      0.1093
     72  NZ       -51.3650   16.8650   35.8360 N.3   227  LYS227     -0.1314
     73  N        -60.1830   20.3320   33.7920 N.3   229  HIS229     -0.1241
     74  CA       -61.2450   19.4190   34.1560 C.3   229  HIS229      0.1621
     75  C        -62.5340   19.8340   33.4950 C.2   229  HIS229      0.2264
     76  O        -62.9410   20.9580   33.6020 O.2   229  HIS229     -0.2867
     77  CB       -61.4290   19.4030   35.7170 C.3   229  HIS229      0.0745
     78  CG       -60.2470   18.8780   36.4880 C.ar  229  HIS229      0.0817
     79  ND1      -60.2830   17.7620   37.1800 N.ar  229  HIS229     -0.2268
     80  CD2      -59.0210   19.4180   36.6750 C.ar  229  HIS229      0.1154
     81  CE1      -59.1270   17.5850   37.7430 C.ar  229  HIS229      0.1986
     82  NE2      -58.3590   18.6120   37.4470 N.ar  229  HIS229     -0.2212
     83  N        -66.3140   18.9900   33.6040 N.3   231  LYS231     -0.1245
     84  CA       -67.1980   18.2740   34.5190 C.3   231  LYS231      0.1561
     85  C        -68.5890   18.1240   33.9080 C.2   231  LYS231      0.2260
     86  O        -69.2820   19.1160   33.6520 O.2   231  LYS231     -0.2867
     87  CB       -67.2580   18.9730   35.8860 C.3   231  LYS231      0.0271
     88  CG       -65.8840   19.2170   36.5300 C.3   231  LYS231      0.0035
     89  CD       -65.1340   17.9270   36.8340 C.3   231  LYS231      0.0206
     90  CE       -65.8190   17.1190   37.9300 C.3   231  LYS231      0.1093
     91  NZ       -64.9980   15.9250   38.3220 N.3   231  LYS231     -0.1314
     92  N        -71.6370   11.3580   35.6440 N.3   236  TRP236     -0.1241
     93  CA       -71.0890   10.0310   35.3670 C.3   236  TRP236      0.1605
     94  C        -72.2170    9.0090   35.4500 C.2   236  TRP236      0.2264
     95  O        -73.0150    9.0200   36.3920 O.2   236  TRP236     -0.2867
     96  CB       -69.9980    9.6540   36.3730 C.3   236  TRP236      0.0550
     97  CG       -68.6200   10.1790   36.0470 C.ar  236  TRP236      0.0003
     98  CD1      -68.0100   11.2670   36.5960 C.ar  236  TRP236      0.0946
     99  CD2      -67.6720    9.6120   35.1200 C.ar  236  TRP236      0.0152
    100  NE1      -66.7520   11.4240   36.0570 N.ar  236  TRP236     -0.2442
    101  CE2      -66.5190   10.4210   35.1530 C.ar  236  TRP236      0.0810
    102  CE3      -67.6910    8.5000   34.2710 C.ar  236  TRP236      0.0012
    103  CZ2      -65.3900   10.1540   34.3720 C.ar  236  TRP236      0.0191
    104  CZ3      -66.5630    8.2320   33.4960 C.ar  236  TRP236      0.0001
    105  CH2      -65.4360    9.0640   33.5440 C.ar  236  TRP236      0.0015
    106  N        -57.4350   23.3560   37.8200 N.3   276  GLN276     -0.1245
    107  CA       -56.6060   23.4550   39.0110 C.3   276  GLN276      0.1566
    108  C        -55.4630   24.3840   38.6540 C.2   276  GLN276      0.2260
    109  O        -54.9230   24.3130   37.5480 O.2   276  GLN276     -0.2867
    110  CB       -56.0440   22.0920   39.4110 C.3   276  GLN276      0.0367
    111  CG       -57.0850   21.0780   39.8430 C.3   276  GLN276      0.0905
    112  CD       -56.4850   19.7220   40.1070 C.2   276  GLN276      0.2608
    113  OE1      -56.0960   19.0150   39.1760 O.2   276  GLN276     -0.2717
    114  NE2      -56.3980   19.3460   41.3830 N.am  276  GLN276     -0.0878
    115  N        -46.1250   15.2500   45.4890 N.3   288  TRP288     -0.1241
    116  CA       -45.9270   14.4440   44.2830 C.3   288  TRP288      0.1605
    117  C        -45.2520   15.2690   43.1980 C.2   288  TRP288      0.2264
    118  O        -45.3860   16.4970   43.1670 O.2   288  TRP288     -0.2867
    119  CB       -47.2650   13.9000   43.7660 C.3   288  TRP288      0.0550
    120  CG       -47.8030   12.8040   44.6180 C.ar  288  TRP288      0.0003
    121  CD1      -47.2160   11.5950   44.8610 C.ar  288  TRP288      0.0946
    122  CD2      -49.0320   12.8130   45.3660 C.ar  288  TRP288      0.0152
    123  NE1      -48.0070   10.8500   45.7060 N.ar  288  TRP288     -0.2442
    124  CE2      -49.1280   11.5700   46.0250 C.ar  288  TRP288      0.0810
    125  CE3      -50.0620   13.7410   45.5250 C.ar  288  TRP288      0.0012
    126  CZ2      -50.2160   11.2370   46.8430 C.ar  288  TRP288      0.0191
    127  CZ3      -51.1420   13.4080   46.3330 C.ar  288  TRP288      0.0001
    128  CH2      -51.2080   12.1690   46.9840 C.ar  288  TRP288      0.0015
    129  N        -51.9640   12.5070   39.8850 N.3   296  THR296     -0.1203
    130  CA       -52.9370   13.5930   39.9170 C.3   296  THR296      0.1994
    131  C        -52.5690   14.6010   41.0040 C.2   296  THR296      0.2618
    132  O        -51.8590   14.2640   41.9650 O.2   296  THR296     -0.2717
    133  CB       -54.3620   13.0690   40.1620 C.3   296  THR296      0.1784
    134  OG1      -54.3700   12.1850   41.2920 O.3   296  THR296     -0.2211
    135  CG2      -54.8670   12.3210   38.9440 C.3   296  THR296      0.0376
    136  N        -53.0300   15.8400   40.8470 N.am  297  TRP297     -0.1961
    137  CA       -52.9320   16.8300   41.9170 C.3   297  TRP297      0.1771
    138  C        -54.1730   16.6810   42.7740 C.2   297  TRP297      0.2620
    139  O        -55.2960   16.7510   42.2640 O.2   297  TRP297     -0.2715
    140  CB       -52.9400   18.2510   41.3650 C.3   297  TRP297      0.0590
    141  CG       -51.7880   18.6680   40.4940 C.ar  297  TRP297      0.0006
    142  CD1      -50.6230   17.9910   40.2520 C.ar  297  TRP297      0.0946
    143  CD2      -51.7090   19.8870   39.7420 C.ar  297  TRP297      0.0152
    144  NE1      -49.8250   18.7210   39.3860 N.ar  297  TRP297     -0.2442
    145  CE2      -50.4710   19.8890   39.0680 C.ar  297  TRP297      0.0810
    146  CE3      -52.5750   20.9780   39.5740 C.ar  297  TRP297      0.0012
    147  CZ2      -50.0780   20.9400   38.2350 C.ar  297  TRP297      0.0191
    148  CZ3      -52.1820   22.0210   38.7420 C.ar  297  TRP297      0.0001
    149  CH2      -50.9460   21.9910   38.0830 C.ar  297  TRP297      0.0015
    150  N        -53.9950   16.4890   44.0760 N.am  298  SER298     -0.1936
    151  CA       -55.1540   16.3620   44.9480 C.3   298  SER298      0.2055
    152  C        -56.0370   17.6080   44.9000 C.2   298  SER298      0.2643
    153  O        -55.5390   18.7400   44.9530 O.2   298  SER298     -0.2714
    154  CB       -54.7260   16.0870   46.3840 C.3   298  SER298      0.2130
    155  OG       -55.8630   16.0990   47.2310 O.3   298  SER298     -0.2179
    156  N        -57.3460   17.3930   44.7930 N.am  299  GLN299     -0.1963
    157  CA       -58.3070   18.4890   44.7720 C.3   299  GLN299      0.1733
    158  C        -58.4820   19.1080   46.1540 C.2   299  GLN299      0.2616
    159  O        -59.1060   20.1610   46.2980 O.2   299  GLN299     -0.2715
    160  CB       -59.6380   18.0210   44.1790 C.3   299  GLN299      0.0408
    161  CG       -59.4850   17.6640   42.6990 C.3   299  GLN299      0.0908
    162  CD       -60.5680   16.7520   42.1730 C.2   299  GLN299      0.2608
    163  OE1      -60.6250   15.5630   42.5060 O.2   299  GLN299     -0.2717
    164  NE2      -61.4180   17.2950   41.3220 N.am  299  GLN299     -0.0878
    165  N        -57.9130   18.4610   47.1680 N.am  300  LYS300     -0.1977
    166  CA       -57.8610   19.0550   48.5000 C.3   300  LYS300      0.1596
    167  C        -56.7520   20.1000   48.5620 C.2   300  LYS300      0.2287
    168  O        -56.8360   21.0580   49.3250 O.2   300  LYS300     -0.2864
    169  CB       -57.6350   17.9840   49.5650 C.3   300  LYS300      0.0298
    170  CG       -58.6000   16.8200   49.4690 C.3   300  LYS300      0.0038
    171  CD       -58.4950   15.9140   50.6820 C.3   300  LYS300      0.0206
    172  CE       -58.9890   14.5090   50.3720 C.3   300  LYS300      0.1093
    173  NZ       -59.1740   13.7000   51.6140 N.3   300  LYS300     -0.1314
    174  N        -51.1690    6.4140   44.8590 N.3   455  GLN455     -0.1245
    175  CA       -52.3840    7.0810   44.4020 C.3   455  GLN455      0.1566
    176  C        -53.5700    6.1430   44.1100 C.2   455  GLN455      0.2260
    177  O        -54.6820    6.4330   44.5340 O.2   455  GLN455     -0.2867
    178  CB       -52.0970    8.0570   43.2530 C.3   455  GLN455      0.0367
    179  CG       -51.3130    9.2980   43.7130 C.3   455  GLN455      0.0905
    180  CD       -51.4500   10.4550   42.7560 C.2   455  GLN455      0.2608
    181  OE1      -51.7670   10.2660   41.5880 O.2   455  GLN455     -0.2717
    182  NE2      -51.2190   11.6620   43.2440 N.am  455  GLN455     -0.0878
    183  N        -54.8170    5.1280   47.4970 N.3   458  ILE458     -0.1231
    184  CA       -55.6480    6.1910   48.0600 C.3   458  ILE458      0.1692
    185  C        -57.0610    6.1800   47.4620 C.2   458  ILE458      0.2591
    186  O        -58.0590    6.3160   48.1820 O.2   458  ILE458     -0.2718
    187  CB       -54.9830    7.5780   47.8680 C.3   458  ILE458      0.0266
    188  CG1      -53.7580    7.7090   48.7790 C.3   458  ILE458      0.0019
    189  CG2      -55.9620    8.6960   48.1730 C.3   458  ILE458      0.0020
    190  CD1      -52.9190    8.9540   48.5230 C.3   458  ILE458      0.0001
    191  N        -57.1500    6.0210   46.1450 N.am  459  LEU459     -0.1980
    192  CA       -58.4490    5.8990   45.4890 C.3   459  LEU459      0.1596
    193  C        -59.2460    4.7520   46.1180 C.2   459  LEU459      0.2287
    194  O        -60.4040    4.9260   46.4990 O.2   459  LEU459     -0.2864
    195  CB       -58.2790    5.6850   43.9800 C.3   459  LEU459      0.0297
    196  CG       -59.5120    5.3800   43.1120 C.3   459  LEU459      0.0022
    197  CD1      -60.5440    6.5020   43.1730 C.3   459  LEU459      0.0001
    198  CD2      -59.0950    5.1220   41.6620 C.3   459  LEU459      0.0001
    199  N        -61.5110    6.8960   48.6760 N.3   463  VAL463     -0.1231
    200  CA       -62.4900    7.4820   47.7600 C.3   463  VAL463      0.1692
    201  C        -63.6340    6.5320   47.3980 C.2   463  VAL463      0.2591
    202  O        -64.8110    6.8820   47.5340 O.2   463  VAL463     -0.2718
    203  CB       -61.8280    7.9660   46.4560 C.3   463  VAL463      0.0266
    204  CG1      -62.8860    8.4560   45.4660 C.3   463  VAL463      0.0020
    205  CG2      -60.8030    9.0570   46.7440 C.3   463  VAL463      0.0020
    206  N        -63.2950    5.3450   46.9050 N.am  464  LEU464     -0.1980
    207  CA       -64.3190    4.4130   46.4320 C.3   464  LEU464      0.1596
    208  C        -65.2640    3.9720   47.5450 C.2   464  LEU464      0.2287
    209  O        -64.8390    3.7600   48.6870 O.2   464  LEU464     -0.2864
    210  CB       -63.6740    3.1730   45.8150 C.3   464  LEU464      0.0297
    211  CG       -62.7700    3.4010   44.6090 C.3   464  LEU464      0.0022
    212  CD1      -62.3110    2.0590   44.0570 C.3   464  LEU464      0.0001
    213  CD2      -63.4720    4.2180   43.5290 C.3   464  LEU464      0.0001
    214  N        -68.1860    0.0800   44.7540 N.3   468  GLU468     -0.1245
    215  CA       -67.1300    0.3430   43.7870 C.3   468  GLU468      0.1567
    216  C        -65.9110   -0.5340   44.0410 C.2   468  GLU468      0.2260
    217  O        -65.3050   -1.0480   43.1010 O.2   468  GLU468     -0.2867
    218  CB       -66.7480    1.8280   43.8010 C.3   468  GLU468      0.0388
    219  CG       -67.8400    2.7430   43.2550 C.3   468  GLU468      0.1160
    220  CD       -67.5320    4.2140   43.4530 C.2   468  GLU468      0.3649
    221  OE1      -67.0560    4.5860   44.5490 O.co2 468  GLU468     -0.2457
    222  OE2      -67.7610    5.0160   42.5140 O.co2 468  GLU468     -0.2457
@<TRIPOS>BOND
     1    56    55    2
     2    55    54    1
     3    53    54    1
     4    54    57    1
     5    57    58    1
     6    45    44    2
     7    59    58   ar
     8    59    61   ar
     9    75    76    2
    10    75    74    1
    11   104   105   ar
    12   104   102   ar
    13   105   103   ar
    14    58    60   ar
    15    44    43    1
    16    83    84    1
    17    86    85    2
    18    73    74    1
    19    85    84    1
    20    74    77    1
    21    61    63   ar
    22   102    99   ar
    23   103   101   ar
    24    66    65    1
    25    66    67    2
    26    84    87    1
    27     1     2    1
    28     1     7    1
    29    37    36    2
    30    60    62   ar
    31    26    24   ar
    32    26    28   ar
    33    65    64    1
    34    65    68    1
    35    43    46    1
    36    43    42    1
    37     3     2    1
    38     3     4    2
    39     2     5    1
    40    99   101   ar
    41    99    97   ar
    42   101   100   ar
    43    24    23   ar
    44    46    47    1
    45    93    94    1
    46    93    92    1
    47    93    96    1
    48    29    28    1
    49    63    62   ar
    50    94    95    2
    51    28    27   ar
    52    77    78    1
    53    36    42   am
    54    36    35    1
    55     7     6    1
    56    68    69    1
    57    72    71    1
    58    87    88    1
    59    33    32    2
    60    69    70    1
    61    97    96    1
    62    97    98   ar
    63   100    98   ar
    64    21    20    2
    65    20    19    1
    66    23    22    1
    67    23    25   ar
    68    47    48    1
    69     5     6    1
    70    78    80   ar
    71    78    79   ar
    72    88    89    1
    73    80    82   ar
    74    22    19    1
    75    48    49    1
    76    89    90    1
    77    70    71    1
    78    27    25   ar
    79    35    34    1
    80    35    38    1
    81    32    34   am
    82    32    31    1
    83    79    81   ar
    84    30    31    1
    85    19    18    1
    86    82    81   ar
    87   109   108    2
    88    51    50    1
    89    10    11    2
    90    10     9    1
    91    49    50    2
    92   106   107    1
    93    38    39    1
    94    90    91    1
    95   149   147   ar
    96   149   148   ar
    97    50    52    1
    98   147   145   ar
    99     8     9    1
   100   108   107    1
   101   148   146   ar
   102     9    12    1
   103    12    13    1
   104   135   133    1
   105   107   110    1
   106    39    40   ar
   107    39    41   ar
   108   145   144   ar
   109   145   143   ar
   110   113   112    2
   111   144   142   ar
   112   110   111    1
   113    13    14   ar
   114    13    15   ar
   115   146   143   ar
   116    14    16   ar
   117   143   141   ar
   118   111   112    1
   119   129   130    1
   120   130   133    1
   121   130   131    1
   122    15    17   ar
   123   112   114   am
   124   133   134    1
   125    16    17   ar
   126   142   141   ar
   127   141   140    1
   128   136   131   am
   129   136   137    1
   130   131   132    2
   131   164   162   am
   132   140   137    1
   133   181   180    2
   134   198   196    1
   135   137   138    1
   136   162   163    2
   137   162   161    1
   138   139   138    2
   139   222   220   ar
   140   161   160    1
   141   180   182   am
   142   180   179    1
   143   138   150   am
   144   217   216    2
   145   196   197    1
   146   196   195    1
   147   118   117    2
   148   117   116    1
   149   178   179    1
   150   178   175    1
   151   219   220    1
   152   219   218    1
   153   220   221   ar
   154   213   211    1
   155   119   116    1
   156   119   120    1
   157   215   218    1
   158   215   216    1
   159   215   214    1
   160   195   192    1
   161   212   211    1
   162   150   151    1
   163   176   175    1
   164   176   177    2
   165   160   157    1
   166   116   115    1
   167   175   174    1
   168   211   210    1
   169   120   121   ar
   170   120   122   ar
   171   157   156    1
   172   157   158    1
   173   156   152   am
   174   121   123   ar
   175   152   151    1
   176   152   153    2
   177   151   154    1
   178   122   125   ar
   179   122   124   ar
   180   204   203    1
   181   192   193    1
   182   192   191    1
   183   125   127   ar
   184   123   124   ar
   185   210   207    1
   186   124   126   ar
   187   193   194    2
   188   191   185   am
   189   158   159    2
   190   158   165   am
   191   127   128   ar
   192   154   155    1
   193   207   206    1
   194   207   208    1
   195   203   205    1
   196   203   200    1
   197   126   128   ar
   198   206   201   am
   199   165   166    1
   200   201   202    2
   201   201   200    1
   202   185   184    1
   203   185   186    2
   204   183   184    1
   205   208   209    2
   206   200   199    1
   207   187   184    1
   208   187   189    1
   209   187   188    1
   210   166   167    1
   211   166   169    1
   212   190   188    1
   213   167   168    2
   214   170   169    1
   215   170   171    1
   216   172   171    1
   217   172   173    1
