@<TRIPOS>MOLECULE
tmp/4b7iA00.pdb
 122 116 0 0 0
SMALL
GASTEIGER

@<TRIPOS>ATOM
      1  N         -9.9700   -7.7200   -0.4090 N.3     3  SER3       -0.1217
      2  CA       -10.0810   -6.6280   -1.3780 C.3     3  SER3        0.1889
      3  C        -10.7650   -7.1080   -2.6580 C.2     3  SER3        0.2288
      4  O        -10.5660   -8.2520   -3.0550 O.2     3  SER3       -0.2866
      5  CB        -8.6870   -6.1300   -1.7090 C.3     3  SER3        0.2089
      6  OG        -8.6330   -4.7270   -1.6650 O.3     3  SER3       -0.2183
      7  N        -11.7540   -6.4970   -6.9050 N.3     5  PHE5       -0.1241
      8  CA       -11.4470   -5.8860   -8.2040 C.3     5  PHE5        0.1605
      9  C        -12.4330   -6.3660   -9.2370 C.2     5  PHE5        0.2264
     10  O        -12.7080   -7.5600   -9.3180 O.2     5  PHE5       -0.2867
     11  CB       -10.0230   -6.2340   -8.6080 C.3     5  PHE5        0.0534
     12  CG        -9.0210   -5.7290   -7.6170 C.ar    5  PHE5       -0.0203
     13  CD1       -8.7800   -4.3690   -7.4990 C.ar    5  PHE5       -0.0042
     14  CD2       -8.4020   -6.5970   -6.7280 C.ar    5  PHE5       -0.0042
     15  CE1       -7.8990   -3.8820   -6.5420 C.ar    5  PHE5       -0.0003
     16  CE2       -7.5230   -6.1220   -5.7750 C.ar    5  PHE5       -0.0003
     17  CZ        -7.2700   -4.7610   -5.6800 C.ar    5  PHE5       -0.0000
     18  N        -13.4850   -6.3640  -13.2580 N.3     7  PHE7       -0.1228
     19  CA       -12.9340   -6.1680  -14.5940 C.3     7  PHE7        0.1721
     20  C        -14.0120   -6.1810  -15.6840 C.2     7  PHE7        0.2437
     21  O        -14.8980   -7.0240  -15.6670 O.2     7  PHE7       -0.2733
     22  CB       -11.8870   -7.2440  -14.8750 C.3     7  PHE7        0.0547
     23  CG       -10.7420   -7.2070  -13.9200 C.ar    7  PHE7       -0.0202
     24  CD1       -9.7870   -6.2180  -14.0280 C.ar    7  PHE7       -0.0042
     25  CD2      -10.6430   -8.1170  -12.8830 C.ar    7  PHE7       -0.0042
     26  CE1       -8.7370   -6.1480  -13.1420 C.ar    7  PHE7       -0.0003
     27  CE2       -9.5880   -8.0510  -11.9810 C.ar    7  PHE7       -0.0003
     28  CZ        -8.6320   -7.0700  -12.1190 C.ar    7  PHE7       -0.0000
     29  N        -13.9250   -5.2430  -16.6420 N.am    8  PRO8       -0.2729
     30  CA       -14.9030   -5.1810  -17.7190 C.3     8  PRO8        0.1401
     31  C        -14.6300   -6.2400  -18.7850 C.2     8  PRO8        0.2269
     32  O        -13.5420   -6.8130  -18.8130 O.2     8  PRO8       -0.2865
     33  CB       -14.6890   -3.7720  -18.2950 C.3     8  PRO8        0.0296
     34  CG       -13.2380   -3.5050  -18.0700 C.3     8  PRO8        0.0237
     35  CD       -12.8390   -4.2600  -16.8330 C.3     8  PRO8        0.0939
     36  N        -13.7230   -7.6910  -22.5980 N.3    10  LYS10      -0.1245
     37  CA       -12.8680   -7.2180  -23.6900 C.3    10  LYS10       0.1561
     38  C        -13.7630   -6.5060  -24.7020 C.2    10  LYS10       0.2260
     39  O        -14.8410   -7.0140  -25.0220 O.2    10  LYS10      -0.2867
     40  CB       -12.1140   -8.3740  -24.3670 C.3    10  LYS10       0.0271
     41  CG       -11.3280   -9.2980  -23.4290 C.3    10  LYS10       0.0035
     42  CD       -10.4860   -8.5320  -22.4180 C.3    10  LYS10       0.0206
     43  CE        -9.4810   -9.4360  -21.6980 C.3    10  LYS10       0.1093
     44  NZ       -10.1450  -10.5030  -20.9030 N.3    10  LYS10      -0.1314
     45  N        -13.1170  -10.2290   -8.8210 N.3    26  VAL26      -0.1245
     46  CA       -12.0790  -10.9780   -8.1320 C.3    26  VAL26       0.1561
     47  C        -11.9540  -10.4910   -6.6930 C.2    26  VAL26       0.2260
     48  O        -12.0000   -9.2950   -6.4250 O.2    26  VAL26      -0.2867
     49  CB       -10.7200  -10.8370   -8.8360 C.3    26  VAL26       0.0252
     50  CG1       -9.7030  -11.8040   -8.2390 C.3    26  VAL26       0.0019
     51  CG2      -10.8680  -11.0640  -10.3390 C.3    26  VAL26       0.0019
     52  N         -9.4930  -10.9140   -3.2220 N.3    28  VAL28      -0.1231
     53  CA        -8.1830  -11.3250   -2.7050 C.3    28  VAL28       0.1692
     54  C         -8.0770  -11.0400   -1.2110 C.2    28  VAL28       0.2592
     55  O         -8.8570  -10.2630   -0.6600 O.2    28  VAL28      -0.2718
     56  CB        -7.0260  -10.5890   -3.4230 C.3    28  VAL28       0.0266
     57  CG1       -6.9510  -11.0060   -4.8860 C.3    28  VAL28       0.0020
     58  CG2       -7.1780   -9.0750   -3.3100 C.3    28  VAL28       0.0020
     59  N         -7.0880  -11.6610   -0.5720 N.am   29  ASP29      -0.1974
     60  CA        -6.8690  -11.5220    0.8660 C.3    29  ASP29       0.1709
     61  C         -8.0640  -12.0500    1.6630 C.2    29  ASP29       0.2293
     62  O         -8.5160  -11.4310    2.6280 O.2    29  ASP29      -0.2864
     63  CB        -6.5550  -10.0700    1.2360 C.3    29  ASP29       0.1436
     64  CG        -5.2430   -9.6010    0.6630 C.2    29  ASP29       0.3671
     65  OD1       -4.3850  -10.4400    0.3540 O.co2  29  ASP29      -0.2456
     66  OD2       -5.0570   -8.3840    0.5310 O.co2  29  ASP29      -0.2456
     67  N         -3.4150  -18.9420   -2.3740 N.3    59  GLN59      -0.1231
     68  CA        -2.2450  -18.2860   -2.9380 C.3    59  GLN59       0.1698
     69  C         -1.0030  -18.5830   -2.1040 C.2    59  GLN59       0.2592
     70  O         -1.1070  -19.0570   -0.9730 O.2    59  GLN59      -0.2718
     71  CB        -2.5010  -16.7720   -2.9800 C.3    59  GLN59       0.0381
     72  CG        -3.7340  -16.4020   -3.7840 C.3    59  GLN59       0.0905
     73  CD        -3.6350  -16.9050   -5.2090 C.2    59  GLN59       0.2608
     74  OE1       -2.6740  -16.6030   -5.9060 O.2    59  GLN59      -0.2717
     75  NE2       -4.6050  -17.7040   -5.6350 N.am   59  GLN59      -0.0878
     76  N          0.1720  -18.2720   -2.6440 N.am   60  TYR60      -0.1962
     77  CA         1.4320  -18.5480   -1.9300 C.3    60  TYR60       0.1771
     78  C          1.6560  -17.7080   -0.6750 C.2    60  TYR60       0.2619
     79  O          2.5420  -18.0230    0.1250 O.2    60  TYR60      -0.2715
     80  CB         2.6450  -18.4440   -2.8670 C.3    60  TYR60       0.0574
     81  CG         3.0060  -19.7770   -3.4720 C.ar   60  TYR60      -0.0198
     82  CD1        2.2780  -20.2990   -4.5300 C.ar   60  TYR60      -0.0009
     83  CD2        4.0490  -20.5370   -2.9490 C.ar   60  TYR60      -0.0009
     84  CE1        2.5960  -21.5330   -5.0690 C.ar   60  TYR60       0.0417
     85  CE2        4.3750  -21.7680   -3.4780 C.ar   60  TYR60       0.0417
     86  CZ         3.6470  -22.2600   -4.5380 C.ar   60  TYR60       0.1957
     87  OH         3.9730  -23.4760   -5.0640 O.3    60  TYR60      -0.2866
     88  N          0.8490  -16.6710   -0.4730 N.am   61  ASN61      -0.1972
     89  CA         0.8910  -15.9180    0.7860 C.3    61  ASN61       0.1688
     90  C         -0.1940  -16.3430    1.7800 C.2    61  ASN61       0.2292
     91  O         -0.6770  -15.5260    2.5640 O.2    61  ASN61      -0.2864
     92  CB         0.8220  -14.4120    0.5100 C.3    61  ASN61       0.1181
     93  CG        -0.3750  -14.0150   -0.3300 C.2    61  ASN61       0.2629
     94  OD1       -1.2720  -14.8230   -0.5940 O.2    61  ASN61      -0.2716
     95  ND2       -0.3880  -12.7480   -0.7600 N.am   61  ASN61      -0.0877
     96  N         -3.3230  -16.7680    1.6540 N.3    63  THR63      -0.1218
     97  CA        -4.6430  -16.1450    1.5350 C.3    63  THR63       0.1862
     98  C         -5.3570  -16.7550    0.3580 C.2    63  THR63       0.2287
     99  O         -4.7040  -17.2540   -0.5650 O.2    63  THR63      -0.2866
    100  CB        -4.5500  -14.6360    1.2560 C.3    63  THR63       0.1770
    101  OG1       -3.7330  -14.3970    0.1010 O.3    63  THR63      -0.2211
    102  CG2       -3.9760  -13.9280    2.4600 C.3    63  THR63       0.0375
    103  N         -7.9640  -16.5980   -3.0610 N.3    65  ARG65      -0.1245
    104  CA        -8.4710  -15.8010   -4.1690 C.3    65  ARG65       0.1563
    105  C         -9.7480  -16.4690   -4.6730 C.2    65  ARG65       0.2260
    106  O         -9.7740  -17.6940   -4.8780 O.2    65  ARG65      -0.2867
    107  CB        -7.4300  -15.7510   -5.2840 C.3    65  ARG65       0.0307
    108  CG        -7.7710  -14.8500   -6.4610 C.3    65  ARG65       0.0489
    109  CD        -6.5390  -14.6160   -7.3140 C.3    65  ARG65       0.2205
    110  NE        -6.7960  -13.7620   -8.4710 N.pl3  65  ARG65      -0.0865
    111  CZ        -7.2230  -14.1820   -9.6660 C.cat  65  ARG65       0.5346
    112  NH1       -7.4870  -15.4650   -9.8940 N.pl3  65  ARG65       0.1354
    113  NH2       -7.3980  -13.3000  -10.6480 N.pl3  65  ARG65       0.1354
    114  N        -18.7360   -3.0870   -5.8610 N.3    98  LYS98      -0.1245
    115  CA       -18.0170   -2.4280   -6.9570 C.3    98  LYS98       0.1561
    116  C        -18.9150   -2.3510   -8.1740 C.2    98  LYS98       0.2260
    117  O        -19.5940   -3.3140   -8.5090 O.2    98  LYS98      -0.2867
    118  CB       -16.7550   -3.1960   -7.3240 C.3    98  LYS98       0.0271
    119  CG       -15.6420   -3.0800   -6.2980 C.3    98  LYS98       0.0035
    120  CD       -14.7160   -1.9150   -6.5940 C.3    98  LYS98       0.0206
    121  CE       -13.6810   -1.7590   -5.4950 C.3    98  LYS98       0.1093
    122  NZ       -12.3360   -1.4790   -6.0620 N.3    98  LYS98      -0.1314
@<TRIPOS>BOND
     1    39    38    2
     2    38    37    1
     3    40    37    1
     4    40    41    1
     5    37    36    1
     6    41    42    1
     7    42    43    1
     8    43    44    1
     9    32    31    2
    10    31    30    1
    11    33    34    1
    12    33    30    1
    13    34    35    1
    14    30    29    1
    15    35    29    1
    16    29    20   am
    17    20    21    2
    18    20    19    1
    19    22    19    1
    20    22    23    1
    21    19    18    1
    22    24    23   ar
    23    24    26   ar
    24    23    25   ar
    25    26    28   ar
    26    25    27   ar
    27    28    27   ar
    28   113   111    1
    29    51    49    1
    30   112   111    1
    31   111   110    2
    32    10     9    2
    33     9     8    1
    34    49    50    1
    35    49    46    1
    36    45    46    1
    37    11     8    1
    38    11    12    1
    39   117   116    2
    40   110   109    1
    41     8     7    1
    42   116   115    1
    43    46    47    1
    44    12    13   ar
    45    12    14   ar
    46    13    15   ar
    47   118   115    1
    48   118   119    1
    49   109   108    1
    50   115   114    1
    51    14    16   ar
    52    47    48    2
    53   120   119    1
    54   120   121    1
    55    15    17   ar
    56   108   107    1
    57   122   121    1
    58    74    73    2
    59    16    17   ar
    60    75    73   am
    61   107   104    1
    62    73    72    1
    63    84    86   ar
    64    84    82   ar
    65    87    86    1
    66    57    56    1
    67   106   105    2
    68   105   104    1
    69    86    85   ar
    70    82    81   ar
    71   104   103    1
    72    72    71    1
    73    85    83   ar
    74    81    83   ar
    75    81    80    1
    76    56    58    1
    77    56    53    1
    78    52    53    1
    79     4     3    2
    80    71    68    1
    81    68    67    1
    82    68    69    1
    83    80    77    1
    84    53    54    1
    85     3     2    1
    86    76    69   am
    87    76    77    1
    88    69    70    2
    89    77    78    1
    90     5     6    1
    91     5     2    1
    92     2     1    1
    93    54    55    2
    94    54    59   am
    95    95    93   am
    96    78    88   am
    97    78    79    2
    98    94    93    2
    99    59    60    1
   100    99    98    2
   101    88    89    1
   102    93    92    1
   103   101   100    1
   104    65    64   ar
   105    98    97    1
   106    92    89    1
   107    66    64   ar
   108    64    63    1
   109    89    90    1
   110    60    63    1
   111    60    61    1
   112   100    97    1
   113   100   102    1
   114    97    96    1
   115    61    62    2
   116    90    91    2
