@<TRIPOS>MOLECULE
tmp/4b7pA00.pdb
 177 165 0 0 0
SMALL
GASTEIGER

@<TRIPOS>ATOM
      1  N         12.7820    1.8070    5.9720 N.3    37  LEU37      -0.1245
      2  CA        12.4800    2.4250    7.2920 C.3    37  LEU37       0.1561
      3  C         12.2430    3.9370    7.1660 C.2    37  LEU37       0.2260
      4  O         11.3250    4.4490    7.7690 O.2    37  LEU37      -0.2867
      5  CB        13.6250    2.1730    8.2890 C.3    37  LEU37       0.0270
      6  CG        13.6870    0.7330    8.7510 C.3    37  LEU37       0.0019
      7  CD1       15.1410    0.3270    9.0170 C.3    37  LEU37       0.0001
      8  CD2       12.7820    0.5820    9.9830 C.3    37  LEU37       0.0001
      9  N          8.9080    4.6840    5.5950 N.3    40  ASN40      -0.1225
     10  CA         7.7770    4.4830    6.4990 C.3    40  ASN40       0.1785
     11  C          7.7130    5.6040    7.5340 C.2    40  ASN40       0.2597
     12  O          6.6410    6.0620    7.9090 O.2    40  ASN40      -0.2718
     13  CB         7.9100    3.1000    7.1370 C.3    40  ASN40       0.1169
     14  CG         7.5020    1.9980    6.1680 C.2    40  ASN40       0.2627
     15  OD1        6.7100    2.2350    5.2570 O.2    40  ASN40      -0.2716
     16  ND2        7.9870    0.8010    6.3830 N.am   40  ASN40      -0.0877
     17  N          8.8750    6.0490    7.9840 N.am   41  SER41      -0.1952
     18  CA         8.9050    7.1810    8.9320 C.3    41  SER41       0.1924
     19  C          8.3310    8.4410    8.2740 C.2    41  SER41       0.2314
     20  O          7.5160    9.1410    8.8900 O.2    41  SER41      -0.2863
     21  CB        10.3290    7.5140    9.3840 C.3    41  SER41       0.2116
     22  OG        10.7870    6.4750   10.2350 O.3    41  SER41      -0.2180
     23  N          6.2540    8.6290    5.8590 N.3    43  ASP43      -0.1225
     24  CA         4.7860    8.5070    5.7550 C.3    43  ASP43       0.1805
     25  C          4.0880    8.8050    7.0800 C.2    43  ASP43       0.2597
     26  O          3.0220    9.4660    7.1100 O.2    43  ASP43      -0.2718
     27  CB         4.4180    7.1080    5.3020 C.3    43  ASP43       0.1424
     28  CG         4.7630    6.8390    3.8460 C.2    43  ASP43       0.3668
     29  OD1        5.0980    7.7610    3.1250 O.co2  43  ASP43      -0.2456
     30  OD2        4.6780    5.6730    3.4110 O.co2  43  ASP43      -0.2456
     31  N          4.6580    8.3100    8.1870 N.am   44  ALA44      -0.1979
     32  CA         4.0830    8.6120    9.4960 C.3    44  ALA44       0.1597
     33  C          4.1640   10.0680    9.8680 C.2    44  ALA44       0.2287
     34  O          3.2810   10.5800   10.5690 O.2    44  ALA44      -0.2864
     35  CB         4.6550    7.7560   10.5950 C.3    44  ALA44       0.0319
     36  N          1.4430   11.9120    8.1590 N.3    47  LYS47      -0.1245
     37  CA         0.1660   11.7310    8.8380 C.3    47  LYS47       0.1561
     38  C         -0.0480   12.7170    9.9700 C.2    47  LYS47       0.2260
     39  O         -1.1030   13.3070   10.0700 O.2    47  LYS47      -0.2867
     40  CB        -0.0260   10.3100    9.3300 C.3    47  LYS47       0.0271
     41  CG        -0.3200    9.3630    8.1610 C.3    47  LYS47       0.0035
     42  CD        -0.5800    7.9510    8.6560 C.3    47  LYS47       0.0206
     43  CE        -0.9210    7.0860    7.4500 C.3    47  LYS47       0.1093
     44  NZ        -1.3560    5.7630    7.9700 N.3    47  LYS47      -0.1314
     45  N         11.2410    8.2400   14.7050 N.3    82  ASP82      -0.1239
     46  CA        10.5580    9.3710   14.0230 C.3    82  ASP82       0.1674
     47  C          9.5530    9.9380   14.9580 C.2    82  ASP82       0.2266
     48  O          9.1890    9.2800   15.9140 O.2    82  ASP82      -0.2867
     49  CB         9.9170    8.9320   12.6720 C.3    82  ASP82       0.1410
     50  CG         8.8130    7.9540   12.8390 C.2    82  ASP82       0.3668
     51  OD1        7.8170    8.2550   13.5030 O.co2  82  ASP82      -0.2456
     52  OD2        8.9520    6.8200   12.3230 O.co2  82  ASP82      -0.2456
     53  N          3.0190   10.0070   13.4890 N.3    85  ILE85      -0.1231
     54  CA         1.7640    9.8980   14.1900 C.3    85  ILE85       0.1692
     55  C          1.7380    8.7600   15.2310 C.2    85  ILE85       0.2593
     56  O          0.9870    8.8120   16.2000 O.2    85  ILE85      -0.2718
     57  CB         0.6420    9.7540   13.1380 C.3    85  ILE85       0.0266
     58  CG1       -0.7390    9.8850   13.7980 C.3    85  ILE85       0.0019
     59  CG2        0.7870    8.4020   12.4330 C.3    85  ILE85       0.0020
     60  CD1       -1.7670   10.4480   12.8180 C.3    85  ILE85       0.0001
     61  N          2.6010    7.7610   15.0520 N.am   86  GLY86      -0.1942
     62  CA         2.6220    6.6420   16.0010 C.3    86  GLY86       0.2014
     63  C          1.5090    5.6380   15.7460 C.2    86  GLY86       0.2639
     64  O          0.6200    5.8760   14.9270 O.2    86  GLY86      -0.2714
     65  N          1.5660    4.5070   16.4430 N.am   87  MET87      -0.1963
     66  CA         0.6070    3.4250   16.2660 C.3    87  MET87       0.1736
     67  C         -0.0430    3.1260   17.6070 C.2    87  MET87       0.2617
     68  O          0.6130    3.1290   18.6520 O.2    87  MET87      -0.2715
     69  CB         1.2720    2.1340   15.7310 C.3    87  MET87       0.0427
     70  CG         1.5730    2.2670   14.2350 C.3    87  MET87       0.0599
     71  SD         2.4570    0.8170   13.6230 S.3    87  MET87      -0.1393
     72  CE         4.1370    1.2750   14.0110 C.3    87  MET87       0.0692
     73  N         -1.3320    2.8370   17.5780 N.am   88  THR88      -0.1951
     74  CA        -2.0080    2.2960   18.7680 C.3    88  THR88       0.1897
     75  C         -1.6780    0.8130   18.9240 C.2    88  THR88       0.2313
     76  O         -1.0670    0.1840   18.0360 O.2    88  THR88      -0.2863
     77  CB        -3.5380    2.4030   18.6070 C.3    88  THR88       0.1794
     78  OG1       -3.9600    1.5610   17.5480 O.3    88  THR88      -0.2208
     79  CG2       -3.9770    3.8190   18.2680 C.3    88  THR88       0.0378
     80  N         -3.1620   -1.0210   16.1340 N.3    91  ASP91      -0.1239
     81  CA        -2.3910   -0.8210   14.8890 C.3    91  ASP91       0.1674
     82  C         -1.2100   -1.7610   14.8280 C.2    91  ASP91       0.2266
     83  O         -0.8720   -2.2830   13.7580 O.2    91  ASP91      -0.2867
     84  CB        -1.8440    0.6070   14.7760 C.3    91  ASP91       0.1410
     85  CG        -2.9280    1.6300   14.5550 C.2    91  ASP91       0.3668
     86  OD1       -4.0340    1.2690   14.0250 O.co2  91  ASP91      -0.2456
     87  OD2       -2.7030    2.8130   14.9200 O.co2  91  ASP91      -0.2456
     88  N         -1.2560   -4.1660   11.8710 N.3    95  ASN95      -0.1225
     89  CA        -0.4100   -3.6810   10.7660 C.3    95  ASN95       0.1785
     90  C          0.9410   -4.3110   10.7210 C.2    95  ASN95       0.2597
     91  O          1.6020   -4.2990    9.6630 O.2    95  ASN95      -0.2718
     92  CB        -0.2720   -2.1700   10.8440 C.3    95  ASN95       0.1169
     93  CG        -1.5860   -1.4310   10.6800 C.2    95  ASN95       0.2627
     94  OD1       -2.6220   -2.0210   10.4010 O.2    95  ASN95      -0.2716
     95  ND2       -1.5520   -0.1140   10.8950 N.am   95  ASN95      -0.0877
     96  N          1.3350   -4.9120   11.8530 N.am   96  LEU96      -0.1980
     97  CA         2.6070   -5.5930   11.9380 C.3    96  LEU96       0.1596
     98  C          2.4700   -7.0730   12.1870 C.2    96  LEU96       0.2287
     99  O          3.2180   -7.6660   13.0100 O.2    96  LEU96      -0.2864
    100  CB         3.5300   -4.8830   12.9290 C.3    96  LEU96       0.0297
    101  CG         4.1560   -3.5850   12.4030 C.3    96  LEU96       0.0022
    102  CD1        5.0210   -2.9930   13.5000 C.3    96  LEU96       0.0001
    103  CD2        4.9990   -3.8180   11.1350 C.3    96  LEU96       0.0001
    104  N         -1.4650   -9.1450    3.8750 N.3   101  LYS101     -0.1245
    105  CA        -1.1390   -8.0370    2.9750 C.3   101  LYS101      0.1561
    106  C         -1.2580   -8.5360    1.5570 C.2   101  LYS101      0.2260
    107  O         -0.7920   -9.6280    1.2470 O.2   101  LYS101     -0.2867
    108  CB         0.2550   -7.5420    3.2880 C.3   101  LYS101      0.0271
    109  CG         0.1920   -6.9610    4.7310 C.3   101  LYS101      0.0035
    110  CD         1.3870   -6.2020    5.1750 C.3   101  LYS101      0.0206
    111  CE         1.6150   -5.0320    4.2620 C.3   101  LYS101      0.1093
    112  NZ         1.0430   -3.7380    4.7110 N.3   101  LYS101     -0.1314
    113  N          4.3040   -3.3050   -0.6550 N.3   124  GLY124     -0.1210
    114  CA         3.6830   -2.9560    0.6000 C.3   124  GLY124      0.1956
    115  C          4.2060   -3.7390    1.7920 C.2   124  GLY124      0.2611
    116  O          3.6480   -3.6510    2.8500 O.2   124  GLY124     -0.2717
    117  N          5.2530   -4.5190    1.6090 N.am  125  VAL125     -0.1979
    118  CA         5.7800   -5.3680    2.6820 C.3   125  VAL125      0.1595
    119  C          7.2070   -4.9410    3.0530 C.2   125  VAL125      0.2287
    120  O          7.9850   -5.7080    3.6270 O.2   125  VAL125     -0.2864
    121  CB         5.6960   -6.8780    2.3210 C.3   125  VAL125      0.0276
    122  CG1        4.2020   -7.2950    2.4090 C.3   125  VAL125      0.0022
    123  CG2        6.3040   -7.2080    0.9380 C.3   125  VAL125      0.0022
    124  N          8.3550   -3.1380    5.3460 N.3   127  PHE127     -0.1227
    125  CA         8.7750   -3.2090    6.7510 C.3   127  PHE127      0.1736
    126  C          9.6360   -4.4810    6.9830 C.2   127  PHE127      0.2595
    127  O         10.5850   -4.4610    7.7400 O.2   127  PHE127     -0.2718
    128  CB         7.5480   -3.2560    7.6740 C.3   127  PHE127      0.0547
    129  CG         7.9020   -3.6290    9.0820 C.ar  127  PHE127     -0.0202
    130  CD1        8.4490   -2.6740    9.9370 C.ar  127  PHE127     -0.0042
    131  CD2        7.7980   -4.9810    9.5190 C.ar  127  PHE127     -0.0042
    132  CE1        8.8440   -3.0200   11.2330 C.ar  127  PHE127     -0.0003
    133  CE2        8.2210   -5.3430   10.7970 C.ar  127  PHE127     -0.0003
    134  CZ         8.7140   -4.3550   11.6540 C.ar  127  PHE127     -0.0000
    135  N          9.2650   -5.5900    6.3350 N.am  128  TYR128     -0.1976
    136  CA         9.9230   -6.8610    6.6180 C.3   128  TYR128      0.1639
    137  C         11.3350   -6.9630    6.0730 C.2   128  TYR128      0.2290
    138  O         12.0540   -7.8890    6.4960 O.2   128  TYR128     -0.2864
    139  CB         9.0190   -8.0590    6.1740 C.3   128  TYR128      0.0560
    140  CG         7.7590   -8.0280    6.9640 C.ar  128  TYR128     -0.0198
    141  CD1        7.7110   -8.5520    8.2710 C.ar  128  TYR128     -0.0009
    142  CD2        6.5840   -7.4980    6.4100 C.ar  128  TYR128     -0.0009
    143  CE1        6.5400   -8.4790    9.0460 C.ar  128  TYR128      0.0417
    144  CE2        5.4190   -7.4620    7.1760 C.ar  128  TYR128      0.0417
    145  CZ         5.4240   -7.9410    8.4830 C.ar  128  TYR128      0.1957
    146  OH         4.2830   -7.9190    9.2590 O.3   128  TYR128     -0.2866
    147  N          9.7300   -2.5870   17.8000 N.3   139  VAL139     -0.1245
    148  CA         9.0810   -1.3490   17.3320 C.3   139  VAL139      0.1561
    149  C          8.4300   -0.8090   18.5740 C.2   139  VAL139      0.2260
    150  O          7.5260   -1.4510   19.1240 O.2   139  VAL139     -0.2867
    151  CB         8.0440   -1.6650   16.2470 C.3   139  VAL139      0.0252
    152  CG1        7.2640   -0.3770   15.8660 C.3   139  VAL139      0.0019
    153  CG2        8.8090   -2.2500   15.0390 C.3   139  VAL139      0.0019
    154  N          1.1690    6.7590   20.0470 N.3   143  HIS143     -0.1241
    155  CA         0.1790    7.5500   19.3580 C.3   143  HIS143      0.1621
    156  C         -0.4970    8.4340   20.3800 C.2   143  HIS143      0.2264
    157  O         -0.6570    8.0290   21.5410 O.2   143  HIS143     -0.2867
    158  CB        -0.8280    6.5830   18.7810 C.3   143  HIS143      0.0745
    159  CG        -1.8100    7.2290   17.9000 C.ar  143  HIS143      0.0817
    160  ND1       -2.9210    7.8390   18.3960 N.ar  143  HIS143     -0.2268
    161  CD2       -1.8680    7.3310   16.5080 C.ar  143  HIS143      0.1154
    162  CE1       -3.6400    8.3570   17.3600 C.ar  143  HIS143      0.1986
    163  NE2       -2.9910    8.0490   16.1990 N.ar  143  HIS143     -0.2212
    164  N          7.5280    6.7050   16.5060 N.3   173  THR173     -0.1218
    165  CA         7.8530    5.2840   16.4410 C.3   173  THR173      0.1862
    166  C          9.3600    5.1680   16.4020 C.2   173  THR173      0.2287
    167  O         10.0360    5.9760   15.7410 O.2   173  THR173     -0.2866
    168  CB         7.2440    4.6490   15.1760 C.3   173  THR173      0.1770
    169  OG1        5.8260    4.7340   15.2960 O.3   173  THR173     -0.2211
    170  CG2        7.6700    3.1810   15.0330 C.3   173  THR173      0.0375
    171  N         12.2240    2.2210   15.7440 N.3   175  VAL175     -0.1245
    172  CA        12.4420    0.8580   15.3090 C.3   175  VAL175      0.1561
    173  C         13.8610    0.5030   15.7100 C.2   175  VAL175      0.2260
    174  O         14.7920    1.2160   15.3210 O.2   175  VAL175     -0.2867
    175  CB        12.2230    0.6840   13.7950 C.3   175  VAL175      0.0252
    176  CG1       12.5510   -0.7860   13.4050 C.3   175  VAL175      0.0019
    177  CG2       10.8220    1.1810   13.3580 C.3   175  VAL175      0.0019
@<TRIPOS>BOND
     1   113   114    1
     2   114   115    1
     3   123   121    1
     4   107   106    2
     5   106   105    1
     6   117   115   am
     7   117   118    1
     8   115   116    2
     9   121   122    1
    10   121   118    1
    11   118   119    1
    12   105   108    1
    13   105   104    1
    14   119   120    2
    15    29    28   ar
    16   108   109    1
    17    30    28   ar
    18    28    27    1
    19   111   112    1
    20   111   110    1
    21   109   110    1
    22    15    14    2
    23    27    24    1
    24   124   125    1
    25     9    10    1
    26    24    23    1
    27    24    25    1
    28     1     2    1
    29   137   138    2
    30   137   136    1
    31    14    16   am
    32    14    13    1
    33   139   136    1
    34   139   140    1
    35   135   136    1
    36   135   126   am
    37   142   140   ar
    38   142   144   ar
    39    10    13    1
    40    10    11    1
    41   125   126    1
    42   125   128    1
    43   140   141   ar
    44   126   127    2
    45    25    26    2
    46    25    31   am
    47     3     2    1
    48     3     4    2
    49   144   145   ar
    50     2     5    1
    51    43    44    1
    52    43    42    1
    53    11    12    2
    54    11    17   am
    55   128   129    1
    56    17    18    1
    57    36    37    1
    58    41    42    1
    59    41    40    1
    60    31    32    1
    61   141   143   ar
    62    19    20    2
    63    19    18    1
    64     5     6    1
    65   145   143   ar
    66   145   146    1
    67     6     7    1
    68     6     8    1
    69    37    40    1
    70    37    38    1
    71    18    21    1
    72   129   131   ar
    73   129   130   ar
    74    21    22    1
    75    32    33    1
    76    32    35    1
    77   131   133   ar
    78    91    90    2
    79    33    34    2
    80   130   132   ar
    81    38    39    2
    82    94    93    2
    83    93    92    1
    84    93    95   am
    85    90    89    1
    86    90    96   am
    87    89    92    1
    88    89    88    1
    89   133   134   ar
    90   103   101    1
    91   132   134   ar
    92    96    97    1
    93    97    98    1
    94    97   100    1
    95    98    99    2
    96    52    50   ar
    97   101   100    1
    98   101   102    1
    99    59    57    1
   100    49    50    1
   101    49    46    1
   102    60    58    1
   103    50    51   ar
   104    57    58    1
   105    57    54    1
   106   177   175    1
   107   176   175    1
   108    53    54    1
   109    71    72    1
   110    71    70    1
   111    83    82    2
   112   175   172    1
   113    46    45    1
   114    46    47    1
   115    86    85   ar
   116    54    55    1
   117    70    69    1
   118    85    84    1
   119    85    87   ar
   120    84    81    1
   121    82    81    1
   122    81    80    1
   123    64    63    2
   124    47    48    2
   125   170   168    1
   126   153   151    1
   127    61    55   am
   128    61    62    1
   129   168   169    1
   130   168   165    1
   131    55    56    2
   132   172   173    1
   133   172   171    1
   134   174   173    2
   135    69    66    1
   136   167   166    2
   137    63    62    1
   138    63    65   am
   139   152   151    1
   140   163   161   ar
   141   163   162   ar
   142   151   148    1
   143    66    65    1
   144    66    67    1
   145   166   165    1
   146   165   164    1
   147   161   159   ar
   148   148   147    1
   149   148   149    1
   150   162   160   ar
   151    78    77    1
   152    73    67   am
   153    73    74    1
   154    67    68    2
   155   159   160   ar
   156   159   158    1
   157    76    75    2
   158    79    77    1
   159   149   150    2
   160    77    74    1
   161    74    75    1
   162   158   155    1
   163   155   154    1
   164   155   156    1
   165   156   157    2
