@<TRIPOS>MOLECULE
tmp/4b7qC01.pdb
 164 154 0 0 0
SMALL
GASTEIGER

@<TRIPOS>ATOM
      1  N         12.1200  -24.5320  -21.5430 N.3    36  ARG36      -0.1231
      2  CA        11.1870  -25.6440  -21.6510 C.3    36  ARG36       0.1694
      3  C         10.2370  -25.5260  -20.4810 C.2    36  ARG36       0.2591
      4  O         10.3250  -24.5710  -19.7130 O.2    36  ARG36      -0.2718
      5  CB        11.8810  -27.0090  -21.6650 C.3    36  ARG36       0.0321
      6  CG        11.9000  -27.6640  -23.0470 C.3    36  ARG36       0.0489
      7  CD        11.9220  -29.1860  -22.9680 C.3    36  ARG36       0.2205
      8  NE        10.6710  -29.7030  -22.4360 N.pl3  36  ARG36      -0.0865
      9  CZ        10.5480  -30.8410  -21.7630 C.cat  36  ARG36       0.5346
     10  NH1       11.6090  -31.6140  -21.5460 N.pl3  36  ARG36       0.1354
     11  NH2        9.3550  -31.2030  -21.3050 N.pl3  36  ARG36       0.1354
     12  N          9.3410  -26.4960  -20.3540 N.am   37  GLU37      -0.1979
     13  CA         8.3340  -26.4920  -19.3020 C.3    37  GLU37       0.1602
     14  C          7.6120  -25.1630  -19.1720 C.2    37  GLU37       0.2287
     15  O          7.5920  -24.5950  -18.0850 O.2    37  GLU37      -0.2864
     16  CB         8.9650  -26.8400  -17.9520 C.3    37  GLU37       0.0415
     17  CG         9.5360  -28.2660  -17.8690 C.3    37  GLU37       0.1163
     18  CD        10.9950  -28.3640  -18.3120 C.2    37  GLU37       0.3649
     19  OE1       11.7540  -27.3910  -18.0770 O.co2  37  GLU37      -0.2457
     20  OE2       11.3730  -29.4180  -18.8820 O.co2  37  GLU37      -0.2457
     21  N         17.6370  -31.6580  -17.4190 N.3    69  ASP69      -0.1225
     22  CA        16.4490  -31.1620  -16.7440 C.3    69  ASP69       0.1805
     23  C         16.7270  -30.1320  -15.6710 C.2    69  ASP69       0.2597
     24  O         15.9830  -29.1580  -15.5360 O.2    69  ASP69      -0.2718
     25  CB        15.6610  -32.3230  -16.1480 C.3    69  ASP69       0.1424
     26  CG        14.8550  -33.0420  -17.1790 C.2    69  ASP69       0.3668
     27  OD1       14.2410  -32.3590  -18.0270 O.co2  69  ASP69      -0.2456
     28  OD2       14.8510  -34.2830  -17.1510 O.co2  69  ASP69      -0.2456
     29  N         17.7760  -30.3680  -14.8900 N.am   70  ARG70      -0.1979
     30  CA        18.0950  -29.4950  -13.7610 C.3    70  ARG70       0.1597
     31  C         19.5360  -28.9590  -13.8010 C.2    70  ARG70       0.2287
     32  O         20.4710  -29.6240  -14.2560 O.2    70  ARG70      -0.2864
     33  CB        17.7800  -30.2030  -12.4450 C.3    70  ARG70       0.0334
     34  CG        16.3460  -30.7620  -12.3910 C.3    70  ARG70       0.0492
     35  CD        16.1020  -31.7310  -11.2210 C.3    70  ARG70       0.2205
     36  NE        16.9290  -32.9350  -11.2830 N.pl3  70  ARG70      -0.0865
     37  CZ        16.6310  -34.0170  -12.0020 C.cat  70  ARG70       0.5346
     38  NH1       15.5270  -34.0500  -12.7330 N.pl3  70  ARG70       0.1354
     39  NH2       17.4350  -35.0690  -11.9960 N.pl3  70  ARG70       0.1354
     40  N         18.9120  -22.7020  -14.3990 N.3    74  ARG74      -0.1245
     41  CA        17.5070  -22.6390  -14.7690 C.3    74  ARG74       0.1563
     42  C         16.7580  -21.6330  -13.9140 C.2    74  ARG74       0.2260
     43  O         16.9270  -21.5890  -12.6940 O.2    74  ARG74      -0.2867
     44  CB        16.8550  -24.0140  -14.6810 C.3    74  ARG74       0.0307
     45  CG        17.4490  -25.0300  -15.6350 C.3    74  ARG74       0.0489
     46  CD        16.4410  -26.0920  -16.0000 C.3    74  ARG74       0.2205
     47  NE        15.4710  -25.5830  -16.9540 N.pl3  74  ARG74      -0.0865
     48  CZ        14.7780  -26.3490  -17.7830 C.cat  74  ARG74       0.5346
     49  NH1       14.9520  -27.6680  -17.7520 N.pl3  74  ARG74       0.1354
     50  NH2       13.9240  -25.7950  -18.6440 N.pl3  74  ARG74       0.1354
     51  N         14.1080  -25.1730  -11.2940 N.3    97  TRP97      -0.1227
     52  CA        14.0230  -26.1870  -12.3500 C.3    97  TRP97       0.1737
     53  C         12.6800  -26.9490  -12.3020 C.2    97  TRP97       0.2596
     54  O         12.4240  -27.8780  -13.0680 O.2    97  TRP97      -0.2718
     55  CB        15.2440  -27.1170  -12.3820 C.3    97  TRP97       0.0564
     56  CG        15.8450  -27.5300  -11.0440 C.ar   97  TRP97       0.0003
     57  CD1       17.0430  -27.1210  -10.5170 C.ar   97  TRP97       0.0946
     58  CD2       15.2970  -28.4620  -10.0980 C.ar   97  TRP97       0.0152
     59  NE1       17.2600  -27.7270   -9.2970 N.ar   97  TRP97      -0.2442
     60  CE2       16.2070  -28.5560   -9.0230 C.ar   97  TRP97       0.0810
     61  CE3       14.1180  -29.2050  -10.0470 C.ar   97  TRP97       0.0012
     62  CZ2       15.9740  -29.3690   -7.9230 C.ar   97  TRP97       0.0191
     63  CZ3       13.8980  -30.0170   -8.9540 C.ar   97  TRP97       0.0001
     64  CH2       14.8170  -30.0920   -7.9100 C.ar   97  TRP97       0.0015
     65  N         11.8190  -26.5010  -11.4020 N.am   98  SER98      -0.1952
     66  CA        10.4580  -26.9780  -11.2820 C.3    98  SER98       0.1924
     67  C          9.6880  -25.7840  -10.7380 C.2    98  SER98       0.2314
     68  O         10.2210  -25.0240   -9.9210 O.2    98  SER98      -0.2863
     69  CB        10.3830  -28.1590  -10.3140 C.3    98  SER98       0.2116
     70  OG         9.0350  -28.5480  -10.0800 O.3    98  SER98      -0.2180
     71  N         14.4400  -35.4580   -5.3610 N.3   141  ILE141     -0.1245
     72  CA        13.8860  -34.5450   -6.3780 C.3   141  ILE141      0.1561
     73  C         12.4640  -34.0750   -6.0730 C.2   141  ILE141      0.2260
     74  O         11.4810  -34.5720   -6.6290 O.2   141  ILE141     -0.2867
     75  CB        13.9960  -35.1140   -7.8190 C.3   141  ILE141      0.0252
     76  CG1       15.4450  -35.4800   -8.1450 C.3   141  ILE141      0.0019
     77  CG2       13.4850  -34.1150   -8.8600 C.3   141  ILE141      0.0019
     78  CD1       15.5830  -36.4360   -9.3280 C.3   141  ILE141      0.0001
     79  N          9.5230  -31.7000   -6.5820 N.3   143  ARG143     -0.1245
     80  CA         9.1040  -31.2240   -7.8940 C.3   143  ARG143      0.1563
     81  C          7.6010  -30.9270   -7.9130 C.2   143  ARG143      0.2260
     82  O          6.8350  -31.4590   -7.1050 O.2   143  ARG143     -0.2867
     83  CB         9.4600  -32.2610   -8.9500 C.3   143  ARG143      0.0307
     84  CG         8.8760  -33.6500   -8.6930 C.3   143  ARG143      0.0489
     85  CD         9.6260  -34.6900   -9.5130 C.3   143  ARG143      0.2205
     86  NE         9.0940  -36.0430   -9.3820 N.pl3 143  ARG143     -0.0865
     87  CZ         9.6100  -36.9710   -8.5830 C.cat 143  ARG143      0.5346
     88  NH1       10.6620  -36.6900   -7.8360 N.pl3 143  ARG143      0.1354
     89  NH2        9.0690  -38.1790   -8.5230 N.pl3 143  ARG143      0.1354
     90  N          4.6500  -27.5320  -12.9220 N.3   146  GLU146     -0.1245
     91  CA         5.0090  -26.9070  -14.1960 C.3   146  GLU146      0.1567
     92  C          3.7680  -26.3890  -14.9250 C.2   146  GLU146      0.2260
     93  O          3.7430  -26.3210  -16.1550 O.2   146  GLU146     -0.2867
     94  CB         5.8210  -27.8430  -15.1030 C.3   146  GLU146      0.0388
     95  CG         6.6010  -28.9450  -14.3970 C.3   146  GLU146      0.1160
     96  CD         7.8230  -28.4530  -13.6420 C.2   146  GLU146      0.3649
     97  OE1        7.9620  -27.2370  -13.3850 O.co2 146  GLU146     -0.2457
     98  OE2        8.6550  -29.3100  -13.2960 O.co2 146  GLU146     -0.2457
     99  N         10.7950  -41.7980   -9.6060 N.3   165  SER165     -0.1217
    100  CA         9.9800  -41.5750  -10.7960 C.3   165  SER165      0.1889
    101  C          9.5470  -42.9020  -11.4280 C.2   165  SER165      0.2288
    102  O          8.8560  -42.9230  -12.4480 O.2   165  SER165     -0.2866
    103  CB        10.7760  -40.7770  -11.8160 C.3   165  SER165      0.2089
    104  OG        12.0040  -41.4230  -12.1100 O.3   165  SER165     -0.2183
    105  N          2.5000  -36.7940  -10.7530 N.3   195  GLU195     -0.1231
    106  CA         3.5250  -35.8380  -11.1470 C.3   195  GLU195      0.1699
    107  C          2.9160  -34.7490  -11.9990 C.2   195  GLU195      0.2592
    108  O          1.8710  -34.9560  -12.6060 O.2   195  GLU195     -0.2718
    109  CB         4.6540  -36.5330  -11.9000 C.3   195  GLU195      0.0402
    110  CG         5.7840  -36.9570  -11.0000 C.3   195  GLU195      0.1161
    111  CD         6.7800  -37.8530  -11.6850 C.2   195  GLU195      0.3649
    112  OE1        6.5330  -38.2750  -12.8320 O.co2 195  GLU195     -0.2457
    113  OE2        7.8150  -38.1360  -11.0620 O.co2 195  GLU195     -0.2457
    114  N          3.5580  -33.5840  -12.0010 N.am  196  GLU196     -0.1979
    115  CA         3.2050  -32.4610  -12.8720 C.3   196  GLU196      0.1602
    116  C          1.6980  -32.2320  -13.0330 C.2   196  GLU196      0.2287
    117  O          1.1680  -32.1710  -14.1580 O.2   196  GLU196     -0.2864
    118  CB         3.8730  -32.6440  -14.2260 C.3   196  GLU196      0.0415
    119  CG         5.3740  -32.8430  -14.1120 C.3   196  GLU196      0.1163
    120  CD         6.0160  -33.1310  -15.4480 C.2   196  GLU196      0.3649
    121  OE1        5.2760  -33.5220  -16.3760 O.co2 196  GLU196     -0.2457
    122  OE2        7.2490  -32.9650  -15.5740 O.co2 196  GLU196     -0.2457
    123  N          0.4460  -36.9020  -14.0330 N.3   211  ARG211     -0.1245
    124  CA         1.3120  -37.7610  -14.8210 C.3   211  ARG211      0.1563
    125  C          1.7820  -38.9500  -13.9970 C.2   211  ARG211      0.2260
    126  O          2.4850  -38.7870  -13.0020 O.2   211  ARG211     -0.2867
    127  CB         2.5150  -36.9560  -15.3190 C.3   211  ARG211      0.0307
    128  CG         3.6320  -37.7800  -15.9650 C.3   211  ARG211      0.0489
    129  CD         4.7320  -36.8540  -16.4900 C.3   211  ARG211      0.2205
    130  NE         5.8960  -37.6100  -16.9330 N.pl3 211  ARG211     -0.0865
    131  CZ         6.9760  -37.0620  -17.4810 C.cat 211  ARG211      0.5346
    132  NH1        7.0540  -35.7480  -17.6530 N.pl3 211  ARG211      0.1354
    133  NH2        7.9830  -37.8290  -17.8560 N.pl3 211  ARG211      0.1354
    134  N          4.2820  -41.6270  -14.0320 N.3   213  ASN213     -0.1240
    135  CA         5.5470  -42.0640  -14.6400 C.3   213  ASN213      0.1653
    136  C          5.9300  -43.4940  -14.2520 C.2   213  ASN213      0.2266
    137  O          6.7230  -44.1460  -14.9220 O.2   213  ASN213     -0.2867
    138  CB         6.6860  -41.1130  -14.2820 C.3   213  ASN213      0.1155
    139  CG         7.6360  -40.8730  -15.4490 C.2   213  ASN213      0.2627
    140  OD1        7.3270  -40.1030  -16.3630 O.2   213  ASN213     -0.2716
    141  ND2        8.8070  -41.5130  -15.4120 N.am  213  ASN213     -0.0877
    142  N          6.3580  -37.8050  -28.4450 N.3   286  ARG286     -0.1245
    143  CA         5.7030  -36.5070  -28.3550 C.3   286  ARG286      0.1563
    144  C          5.4370  -35.8360  -29.7160 C.2   286  ARG286      0.2260
    145  O          5.9720  -34.7710  -30.0180 O.2   286  ARG286     -0.2867
    146  CB         6.4650  -35.5760  -27.4050 C.3   286  ARG286      0.0307
    147  CG         6.3650  -35.9990  -25.9480 C.3   286  ARG286      0.0489
    148  CD         7.6640  -35.7790  -25.1740 C.3   286  ARG286      0.2205
    149  NE         7.5160  -36.2310  -23.7980 N.pl3 286  ARG286     -0.0865
    150  CZ         8.2240  -35.7790  -22.7710 C.cat 286  ARG286      0.5346
    151  NH1        9.1500  -34.8530  -22.9670 N.pl3 286  ARG286      0.1354
    152  NH2        8.0000  -36.2570  -21.5530 N.pl3 286  ARG286      0.1354
    153  N          4.6730  -31.1490  -23.6120 N.3   320  TYR320     -0.1241
    154  CA         3.8220  -30.9150  -22.4520 C.3   320  TYR320      0.1605
    155  C          2.5470  -30.1790  -22.7890 C.2   320  TYR320      0.2264
    156  O          2.5050  -29.4100  -23.7350 O.2   320  TYR320     -0.2867
    157  CB         4.5790  -30.0430  -21.4730 C.3   320  TYR320      0.0534
    158  CG         5.4740  -30.7970  -20.5350 C.ar  320  TYR320     -0.0201
    159  CD1        5.8530  -32.1040  -20.7990 C.ar  320  TYR320     -0.0009
    160  CD2        5.9170  -30.2050  -19.3650 C.ar  320  TYR320     -0.0009
    161  CE1        6.6550  -32.7900  -19.9290 C.ar  320  TYR320      0.0417
    162  CE2        6.7110  -30.8780  -18.5030 C.ar  320  TYR320      0.0417
    163  CZ         7.0730  -32.1660  -18.7900 C.ar  320  TYR320      0.1957
    164  OH         7.8470  -32.8170  -17.8970 O.3   320  TYR320     -0.2866
@<TRIPOS>BOND
     1   145   144    2
     2   144   143    1
     3   142   143    1
     4   143   146    1
     5   146   147    1
     6   147   148    1
     7   148   149    1
     8   149   150    2
     9   156   155    2
    10   153   154    1
    11     6     7    1
    12     6     5    1
    13     7     8    1
    14   151   150    1
    15   155   154    1
    16   150   152    1
    17   154   157    1
    18     8     9    2
    19     9    10    1
    20     9    11    1
    21     5     2    1
    22     2     1    1
    23     2     3    1
    24   157   158    1
    25   159   158   ar
    26   159   161   ar
    27   158   160   ar
    28     3    12   am
    29     3     4    2
    30    12    13    1
    31   161   163   ar
    32   160   162   ar
    33    13    14    1
    34    13    16    1
    35    14    15    2
    36    20    18   ar
    37   163   162   ar
    38   163   164    1
    39    50    48    1
    40    18    19   ar
    41    18    17    1
    42    27    26   ar
    43    16    17    1
    44   133   131    1
    45    48    49    1
    46    48    47    2
    47   132   131    1
    48   131   130    2
    49    21    22    1
    50    26    28   ar
    51    26    25    1
    52    47    46    1
    53   130   129    1
    54    22    25    1
    55    22    23    1
    56   129   128    1
    57   121   120   ar
    58   140   139    2
    59    93    92    2
    60    46    45    1
    61   128   127    1
    62    23    24    2
    63    23    29   am
    64    45    44    1
    65   122   120   ar
    66   139   141   am
    67   139   138    1
    68   120   119    1
    69   127   124    1
    70    94    95    1
    71    94    91    1
    72    92    91    1
    73   137   136    2
    74    29    30    1
    75   124   123    1
    76   124   125    1
    77    41    44    1
    78    41    40    1
    79    41    42    1
    80   135   138    1
    81   135   136    1
    82   135   134    1
    83    95    96    1
    84    32    31    2
    85   118   119    1
    86   118   115    1
    87    91    90    1
    88   117   116    2
    89   125   126    2
    90    42    43    2
    91    31    30    1
    92    30    33    1
    93    96    97   ar
    94    96    98   ar
    95    54    53    2
    96   116   115    1
    97   115   114    1
    98   112   111   ar
    99    38    37    1
   100   108   107    2
   101   102   101    2
   102    33    34    1
   103    34    35    1
   104    55    52    1
   105    55    56    1
   106    52    53    1
   107    52    51    1
   108    53    65   am
   109   104   103    1
   110    37    39    1
   111    37    36    2
   112   114   107   am
   113   107   106    1
   114   109   106    1
   115   109   110    1
   116   103   100    1
   117   111   113   ar
   118   111   110    1
   119   101   100    1
   120    65    66    1
   121    36    35    1
   122    66    67    1
   123    66    69    1
   124   106   105    1
   125    56    57   ar
   126    56    58   ar
   127   100    99    1
   128    67    68    2
   129    57    59   ar
   130    69    70    1
   131    58    61   ar
   132    58    60   ar
   133    61    63   ar
   134    85    86    1
   135    85    84    1
   136    86    87    2
   137    78    76    1
   138    59    60   ar
   139    60    62   ar
   140    63    64   ar
   141    83    84    1
   142    83    80    1
   143    77    75    1
   144    87    89    1
   145    87    88    1
   146    76    75    1
   147    62    64   ar
   148    81    80    1
   149    81    82    2
   150    80    79    1
   151    75    72    1
   152    74    73    2
   153    72    73    1
   154    72    71    1
