@<TRIPOS>MOLECULE
tmp/4b7tA00.pdb
 167 157 0 0 0
SMALL
GASTEIGER

@<TRIPOS>ATOM
      1  N         -6.6450   50.0350   -1.9800 N.3    28  ILE28      -0.1231
      2  CA        -5.5900   49.2410   -2.5970 C.3    28  ILE28       0.1692
      3  C         -5.8000   49.1300   -4.1010 C.2    28  ILE28       0.2593
      4  O         -5.0890   48.3930   -4.7830 O.2    28  ILE28      -0.2718
      5  CB        -5.5120   47.8290   -1.9900 C.3    28  ILE28       0.0266
      6  CG1       -6.8120   47.0650   -2.2460 C.3    28  ILE28       0.0019
      7  CG2       -5.2110   47.9080   -0.5000 C.3    28  ILE28       0.0020
      8  CD1       -6.7900   45.6410   -1.7410 C.3    28  ILE28       0.0001
      9  N         -6.7770   49.8680   -4.6160 N.am   29  GLY29      -0.1942
     10  CA        -7.0740   49.8320   -6.0340 C.3    29  GLY29       0.2014
     11  C         -8.0650   50.8810   -6.4930 C.2    29  GLY29       0.2638
     12  O         -9.0980   51.1000   -5.8600 O.2    29  GLY29      -0.2714
     13  N         -7.7420   51.5310   -7.6070 N.am   30  ASN30      -0.1972
     14  CA        -8.6340   52.5100   -8.2130 C.3    30  ASN30       0.1688
     15  C         -8.7640   52.2810   -9.7140 C.2    30  ASN30       0.2292
     16  O         -7.7830   51.9630  -10.3880 O.2    30  ASN30      -0.2864
     17  CB        -8.1460   53.9330   -7.9350 C.3    30  ASN30       0.1181
     18  CG        -8.0510   54.2380   -6.4520 C.2    30  ASN30       0.2629
     19  OD1       -9.0570   54.5110   -5.7970 O.2    30  ASN30      -0.2716
     20  ND2       -6.8360   54.2000   -5.9160 N.am   30  ASN30      -0.0877
     21  N        -14.0210   51.3770  -13.0630 N.3    33  PHE33      -0.1241
     22  CA       -15.0840   50.5400  -12.5190 C.3    33  PHE33       0.1605
     23  C        -15.5260   51.0520  -11.1520 C.2    33  PHE33       0.2264
     24  O        -16.7100   51.0110  -10.8130 O.2    33  PHE33      -0.2867
     25  CB       -14.6190   49.0820  -12.4100 C.3    33  PHE33       0.0534
     26  CG       -13.4880   48.8730  -11.4380 C.ar   33  PHE33      -0.0203
     27  CD1      -12.1720   49.0340  -11.8400 C.ar   33  PHE33      -0.0042
     28  CD2      -13.7420   48.5110  -10.1240 C.ar   33  PHE33      -0.0042
     29  CE1      -11.1310   48.8430  -10.9480 C.ar   33  PHE33      -0.0003
     30  CE2      -12.7070   48.3220   -9.2290 C.ar   33  PHE33      -0.0003
     31  CZ       -11.4000   48.4870   -9.6420 C.ar   33  PHE33      -0.0000
     32  N        -11.3980   49.8810   -4.8470 N.3    36  VAL36      -0.1245
     33  CA       -11.1980   48.6400   -4.1040 C.3    36  VAL36       0.1561
     34  C        -10.4950   48.9070   -2.7750 C.2    36  VAL36       0.2260
     35  O         -9.3770   49.4230   -2.7470 O.2    36  VAL36      -0.2867
     36  CB       -10.3740   47.6180   -4.9090 C.3    36  VAL36       0.0252
     37  CG1      -10.1640   46.3500   -4.0950 C.3    36  VAL36       0.0019
     38  CG2      -11.0610   47.2990   -6.2260 C.3    36  VAL36       0.0019
     39  N        -11.1150   42.0820    0.7960 N.3    49  ALA49      -0.1245
     40  CA       -11.0960   43.1540   -0.1880 C.3    49  ALA49       0.1562
     41  C        -12.5270   43.5970   -0.4640 C.2    49  ALA49       0.2260
     42  O        -13.4230   42.7650   -0.6080 O.2    49  ALA49      -0.2867
     43  CB       -10.4220   42.6940   -1.4680 C.3    49  ALA49       0.0290
     44  N        -14.8340   45.5870   -3.0550 N.3    51  LYS51      -0.1245
     45  CA       -14.9710   46.1720   -4.3820 C.3    51  LYS51       0.1561
     46  C        -16.2250   47.0340   -4.4510 C.2    51  LYS51       0.2260
     47  O        -17.3390   46.5180   -4.5420 O.2    51  LYS51      -0.2867
     48  CB       -15.0290   45.0700   -5.4390 C.3    51  LYS51       0.0271
     49  CG       -15.0420   45.5750   -6.8670 C.3    51  LYS51       0.0035
     50  CD       -15.0170   44.4180   -7.8490 C.3    51  LYS51       0.0206
     51  CE       -14.9930   44.9170   -9.2820 C.3    51  LYS51       0.1093
     52  NZ       -14.9460   43.8010  -10.2660 N.3    51  LYS51      -0.1314
     53  N        -22.6130   41.0040  -12.4310 N.3    63  GLU63      -0.1245
     54  CA       -21.4350   40.4810  -11.7430 C.3    63  GLU63       0.1567
     55  C        -21.8080   39.8290  -10.4160 C.2    63  GLU63       0.2260
     56  O        -21.2970   38.7630  -10.0730 O.2    63  GLU63      -0.2867
     57  CB       -20.4090   41.5930  -11.5100 C.3    63  GLU63       0.0388
     58  CG       -19.1160   41.1210  -10.8630 C.3    63  GLU63       0.1160
     59  CD       -18.1550   42.2600  -10.5790 C.2    63  GLU63       0.3649
     60  OE1      -18.5690   43.4310  -10.7020 O.co2  63  GLU63      -0.2457
     61  OE2      -16.9860   41.9840  -10.2360 O.co2  63  GLU63      -0.2457
     62  N        -12.0370   33.4720   -6.4370 N.3    76  VAL76      -0.1245
     63  CA       -12.1540   34.3190   -5.2530 C.3    76  VAL76       0.1561
     64  C        -13.5900   34.2870   -4.7300 C.2    76  VAL76       0.2260
     65  O        -14.5470   34.4370   -5.4910 O.2    76  VAL76      -0.2867
     66  CB       -11.6820   35.7720   -5.5170 C.3    76  VAL76       0.0252
     67  CG1      -12.5210   36.4360   -6.5980 C.3    76  VAL76       0.0019
     68  CG2      -11.7200   36.5870   -4.2330 C.3    76  VAL76       0.0019
     69  N        -14.8430   40.4820   -0.6710 N.3    98  LEU98      -0.1231
     70  CA       -14.1850   39.3130   -1.2470 C.3    98  LEU98       0.1693
     71  C        -12.9900   38.8520   -0.4190 C.2    98  LEU98       0.2592
     72  O        -12.4830   39.5920    0.4230 O.2    98  LEU98      -0.2718
     73  CB       -13.7210   39.6250   -2.6710 C.3    98  LEU98       0.0284
     74  CG       -14.7740   40.1840   -3.6280 C.3    98  LEU98       0.0019
     75  CD1      -14.1140   40.7680   -4.8670 C.3    98  LEU98       0.0001
     76  CD2      -15.7730   39.1040   -4.0110 C.3    98  LEU98       0.0001
     77  N        -12.5490   37.6230   -0.6690 N.am   99  ASP99      -0.1960
     78  CA       -11.3230   37.1140   -0.0710 C.3    99  ASP99       0.1840
     79  C        -10.1470   37.9710   -0.5160 C.2    99  ASP99       0.2622
     80  O         -9.9740   38.2310   -1.7060 O.2    99  ASP99      -0.2715
     81  CB       -11.0790   35.6610   -0.4880 C.3    99  ASP99       0.1450
     82  CG       -11.8050   34.6670    0.3950 C.2    99  ASP99       0.3671
     83  OD1      -12.0280   34.9760    1.5830 O.co2  99  ASP99      -0.2456
     84  OD2      -12.1440   33.5700   -0.0970 O.co2  99  ASP99      -0.2456
     85  N         -9.3440   38.4170    0.4430 N.am  100  TYR100     -0.1960
     86  CA        -8.1530   39.1950    0.1270 C.3   100  TYR100      0.1771
     87  C         -7.0160   38.2710   -0.2990 C.2   100  TYR100      0.2619
     88  O         -6.6420   37.3570    0.4340 O.2   100  TYR100     -0.2715
     89  CB        -7.7320   40.0420    1.3300 C.3   100  TYR100      0.0574
     90  CG        -6.4440   40.8100    1.1280 C.ar  100  TYR100     -0.0198
     91  CD1       -6.4530   42.0960    0.6030 C.ar  100  TYR100     -0.0009
     92  CD2       -5.2200   40.2510    1.4720 C.ar  100  TYR100     -0.0009
     93  CE1       -5.2780   42.8000    0.4200 C.ar  100  TYR100      0.0417
     94  CE2       -4.0430   40.9440    1.2910 C.ar  100  TYR100      0.0417
     95  CZ        -4.0760   42.2170    0.7670 C.ar  100  TYR100      0.1957
     96  OH        -2.9000   42.9080    0.5890 O.3   100  TYR100     -0.2866
     97  N         -6.4750   38.5080   -1.4900 N.am  101  VAL101     -0.1964
     98  CA        -5.3380   37.7380   -1.9840 C.3   101  VAL101      0.1712
     99  C         -4.1950   38.6850   -2.3510 C.2   101  VAL101      0.2458
    100  O         -4.3600   39.5590   -3.2020 O.2   101  VAL101     -0.2730
    101  CB        -5.7170   36.8800   -3.2080 C.3   101  VAL101      0.0289
    102  CG1       -4.6330   35.8580   -3.4910 C.3   101  VAL101      0.0023
    103  CG2       -7.0500   36.1820   -2.9810 C.3   101  VAL101      0.0023
    104  N         -3.0300   38.5100   -1.7060 N.am  102  PRO102     -0.2727
    105  CA        -1.8900   39.4360   -1.7740 C.3   102  PRO102      0.1402
    106  C         -1.4030   39.7790   -3.1820 C.2   102  PRO102      0.2269
    107  O         -1.3780   40.9540   -3.5440 O.2   102  PRO102     -0.2865
    108  CB        -0.7900   38.6850   -1.0160 C.3   102  PRO102      0.0296
    109  CG        -1.5260   37.8140   -0.0670 C.3   102  PRO102      0.0237
    110  CD        -2.7590   37.3780   -0.8010 C.3   102  PRO102      0.0939
    111  N         -0.6560   38.9200   -7.6310 N.3   104  THR104     -0.1218
    112  CA        -1.2580   38.5090   -8.8930 C.3   104  THR104      0.1862
    113  C         -0.1960   37.7910   -9.7170 C.2   104  THR104      0.2287
    114  O          1.0000   37.9840   -9.4960 O.2   104  THR104     -0.2866
    115  CB        -1.7880   39.7100   -9.7000 C.3   104  THR104      0.1770
    116  OG1       -0.6910   40.5180  -10.1410 O.3   104  THR104     -0.2211
    117  CG2       -2.7320   40.5550   -8.8580 C.3   104  THR104      0.0375
    118  N          2.2110   40.4010  -11.5660 N.3   107  ARG107     -0.1245
    119  CA         3.2530   41.0300  -10.7590 C.3   107  ARG107      0.1563
    120  C          4.4000   40.0690  -10.4610 C.2   107  ARG107      0.2260
    121  O          5.5600   40.4760  -10.3960 O.2   107  ARG107     -0.2867
    122  CB         2.6710   41.5630   -9.4480 C.3   107  ARG107      0.0307
    123  CG         1.6140   42.6380   -9.6200 C.3   107  ARG107      0.0489
    124  CD         1.0040   43.0160   -8.2800 C.3   107  ARG107      0.2205
    125  NE        -0.2570   43.7330   -8.4340 N.pl3 107  ARG107     -0.0865
    126  CZ        -1.0760   44.0240   -7.4290 C.cat 107  ARG107      0.5346
    127  NH1       -0.7660   43.6570   -6.1930 N.pl3 107  ARG107      0.1354
    128  NH2       -2.2060   44.6800   -7.6610 N.pl3 107  ARG107      0.1354
    129  N         -3.3540   39.6570  -14.8950 N.3   151  GLN151     -0.1231
    130  CA        -3.7110   40.6310  -13.8710 C.3   151  GLN151      0.1698
    131  C         -4.8840   40.1420  -13.0220 C.2   151  GLN151      0.2592
    132  O         -4.9670   40.4430  -11.8320 O.2   151  GLN151     -0.2718
    133  CB        -4.0450   41.9870  -14.5020 C.3   151  GLN151      0.0381
    134  CG        -2.8720   42.6740  -15.1950 C.3   151  GLN151      0.0905
    135  CD        -2.5990   42.1270  -16.5850 C.2   151  GLN151      0.2608
    136  OE1       -3.2130   41.1490  -17.0150 O.2   151  GLN151     -0.2717
    137  NE2       -1.6760   42.7610  -17.2970 N.am  151  GLN151     -0.0878
    138  N         -5.7810   39.3790  -13.6390 N.am  152  ASN152     -0.1974
    139  CA        -6.9620   38.8740  -12.9450 C.3   152  ASN152      0.1688
    140  C         -6.7330   37.5290  -12.2640 C.2   152  ASN152      0.2292
    141  O         -7.6760   36.8920  -11.7970 O.2   152  ASN152     -0.2864
    142  CB        -8.1500   38.7780  -13.9060 C.3   152  ASN152      0.1181
    143  CG        -8.6390   40.1380  -14.3630 C.2   152  ASN152      0.2629
    144  OD1       -8.5190   41.1280  -13.6430 O.2   152  ASN152     -0.2716
    145  ND2       -9.1940   40.1920  -15.5680 N.am  152  ASN152     -0.0877
    146  N         -5.1030   36.0120   -9.1460 N.3   154  LEU154     -0.1245
    147  CA        -4.5520   36.3540   -7.8410 C.3   154  LEU154      0.1561
    148  C         -3.7630   35.1980   -7.2320 C.2   154  LEU154      0.2260
    149  O         -4.1440   34.0350   -7.3630 O.2   154  LEU154     -0.2867
    150  CB        -5.6720   36.7840   -6.8970 C.3   154  LEU154      0.0270
    151  CG        -6.6430   37.8230   -7.4570 C.3   154  LEU154      0.0019
    152  CD1       -7.7760   38.0520   -6.4800 C.3   154  LEU154      0.0001
    153  CD2       -5.9300   39.1300   -7.7680 C.3   154  LEU154      0.0001
    154  N        -10.3840   36.2300  -10.4610 N.3   165  CYS165     -0.1221
    155  CA       -11.1940   37.3500   -9.9940 C.3   165  CYS165      0.1808
    156  C        -11.7060   38.2080  -11.1450 C.2   165  CYS165      0.2601
    157  O        -11.5290   37.8650  -12.3160 O.2   165  CYS165     -0.2717
    158  CB       -10.3980   38.2180   -9.0170 C.3   165  CYS165      0.0970
    159  SG        -9.0900   39.1970   -9.7870 S.3   165  CYS165     -0.0800
    160  N        -12.3400   39.3230  -10.7920 N.am  166  ASP166     -0.1973
    161  CA       -12.8940   40.2710  -11.7580 C.3   166  ASP166      0.1709
    162  C        -13.8700   39.6260  -12.7390 C.2   166  ASP166      0.2293
    163  O        -13.5130   39.3160  -13.8760 O.2   166  ASP166     -0.2864
    164  CB       -11.7780   41.0030  -12.5120 C.3   166  ASP166      0.1436
    165  CG       -12.3030   42.1370  -13.3710 C.2   166  ASP166      0.3671
    166  OD1      -13.4460   42.5840  -13.1380 O.co2 166  ASP166     -0.2456
    167  OD2      -11.5670   42.5910  -14.2710 O.co2 166  ASP166     -0.2456
@<TRIPOS>BOND
     1   137   135   am
     2   136   135    2
     3   135   134    1
     4   145   143   am
     5   134   133    1
     6   129   130    1
     7   133   130    1
     8   143   142    1
     9   143   144    2
    10   167   165   ar
    11   142   139    1
    12   163   162    2
    13   130   131    1
    14   138   131   am
    15   138   139    1
    16   165   166   ar
    17   165   164    1
    18    21    22    1
    19   131   132    2
    20   139   140    1
    21   162   161    1
    22    22    25    1
    23    22    23    1
    24   164   161    1
    25    53    54    1
    26    25    26    1
    27   157   156    2
    28   140   141    2
    29    27    26   ar
    30    27    29   ar
    31   161   160    1
    32    54    57    1
    33    54    55    1
    34   118   119    1
    35    57    58    1
    36    26    28   ar
    37    23    24    2
    38   156   160   am
    39   156   155    1
    40    29    31   ar
    41    58    59    1
    42   119   120    1
    43   119   122    1
    44    60    59   ar
    45    59    61   ar
    46   154   155    1
    47   120   121    2
    48    55    56    2
    49    16    15    2
    50    52    51    1
    51   116   115    1
    52    28    30   ar
    53   155   158    1
    54   159   158    1
    55   113   114    2
    56   113   112    1
    57    15    14    1
    58   115   112    1
    59   115   117    1
    60    31    30   ar
    61   123   122    1
    62   123   124    1
    63    51    50    1
    64   146   147    1
    65   112   111    1
    66   125   124    1
    67   125   126    2
    68    14    17    1
    69    14    13    1
    70    17    18    1
    71    50    49    1
    72   147   148    1
    73   147   150    1
    74   153   151    1
    75   128   126    1
    76    13    11   am
    77   151   150    1
    78   151   152    1
    79   126   127    1
    80   149   148    2
    81    49    48    1
    82    67    66    1
    83    11    10    1
    84    11    12    2
    85    18    20   am
    86    18    19    2
    87    62    63    1
    88    38    36    1
    89    10     9    1
    90    66    63    1
    91    66    68    1
    92    65    64    2
    93    48    45    1
    94    63    64    1
    95    36    33    1
    96    36    37    1
    97    75    74    1
    98    32    33    1
    99     4     3    2
   100     9     3   am
   101    47    46    2
   102    46    45    1
   103    45    44    1
   104    33    34    1
   105     3     2    1
   106    76    74    1
   107    74    73    1
   108   107   106    2
   109   102   101    1
   110   101   103    1
   111   101    98    1
   112   100    99    2
   113   106   105    1
   114    34    35    2
   115    73    70    1
   116     2     5    1
   117     2     1    1
   118    99    98    1
   119    99   104   am
   120     6     5    1
   121     6     8    1
   122     5     7    1
   123    98    97    1
   124   105   104    1
   125   105   108    1
   126   104   110    1
   127    80    79    2
   128    97    87   am
   129    43    40    1
   130    70    69    1
   131    70    71    1
   132   108   109    1
   133   110   109    1
   134    77    71   am
   135    77    78    1
   136    42    41    2
   137    79    78    1
   138    79    85   am
   139    81    78    1
   140    81    82    1
   141    41    40    1
   142    71    72    2
   143    87    86    1
   144    87    88    2
   145    40    39    1
   146    84    82   ar
   147    86    85    1
   148    86    89    1
   149    82    83   ar
   150    93    91   ar
   151    93    95   ar
   152    96    95    1
   153    91    90   ar
   154    95    94   ar
   155    90    89    1
   156    90    92   ar
   157    94    92   ar
