@<TRIPOS>MOLECULE
tmp/4b7uB00.pdb
 110 100 0 0 0
SMALL
GASTEIGER

@<TRIPOS>ATOM
      1  N        -53.2500   27.2720  -38.6050 N.3    14  ILE14      -0.1245
      2  CA       -51.8800   26.7340  -38.6460 C.3    14  ILE14       0.1561
      3  C        -50.9160   27.7590  -39.2780 C.2    14  ILE14       0.2260
      4  O        -49.8140   27.9700  -38.7690 O.2    14  ILE14      -0.2867
      5  CB       -51.7790   25.3920  -39.3970 C.3    14  ILE14       0.0252
      6  CG1      -52.6330   24.3160  -38.7170 C.3    14  ILE14       0.0019
      7  CG2      -50.3230   24.9160  -39.4430 C.3    14  ILE14       0.0019
      8  CD1      -52.7230   22.9910  -39.5200 C.3    14  ILE14       0.0001
      9  N        -65.6170   12.2680  -45.7810 N.3    83  ARG83      -0.1245
     10  CA       -64.2520   12.6970  -46.0670 C.3    83  ARG83       0.1563
     11  C        -63.8100   12.3070  -47.4850 C.2    83  ARG83       0.2260
     12  O        -63.2760   13.1490  -48.2270 O.2    83  ARG83      -0.2867
     13  CB       -63.2870   12.1140  -45.0290 C.3    83  ARG83       0.0307
     14  CG       -63.3760   12.7740  -43.6620 C.3    83  ARG83       0.0489
     15  CD       -62.5270   12.4450  -42.6780 C.3    83  ARG83       0.2205
     16  NE       -61.2260   13.0080  -43.0260 N.pl3  83  ARG83      -0.0865
     17  CZ       -60.1110   12.7980  -42.3340 C.cat  83  ARG83       0.5346
     18  NH1      -60.1350   12.0350  -41.2510 N.pl3  83  ARG83       0.1354
     19  NH2      -58.9710   13.3510  -42.7260 N.pl3  83  ARG83       0.1354
     20  N        -49.3600   19.5920  -45.7970 N.3   113  VAL113     -0.1245
     21  CA       -50.1370   19.3300  -44.5790 C.3   113  VAL113      0.1561
     22  C        -51.5770   18.8890  -44.8820 C.2   113  VAL113      0.2260
     23  O        -52.2030   18.1840  -44.0790 O.2   113  VAL113     -0.2867
     24  CB       -50.1410   20.5700  -43.6640 C.3   113  VAL113      0.0252
     25  CG1      -50.7790   20.2390  -42.3100 C.3   113  VAL113      0.0019
     26  CG2      -48.7110   21.0960  -43.4910 C.3   113  VAL113      0.0019
     27  N        -54.8680   17.1910  -45.6020 N.3   115  ASN115     -0.1240
     28  CA       -55.2520   15.8240  -45.2500 C.3   115  ASN115      0.1653
     29  C        -56.0930   15.1790  -46.3640 C.2   115  ASN115      0.2266
     30  O        -56.8060   15.8880  -47.0840 O.2   115  ASN115     -0.2867
     31  CB       -56.0070   15.7930  -43.9090 C.3   115  ASN115      0.1155
     32  CG       -55.0840   16.0180  -42.6860 C.2   115  ASN115      0.2627
     33  OD1      -55.3730   15.5280  -41.5940 O.2   115  ASN115     -0.2716
     34  ND2      -53.9860   16.7560  -42.8660 N.am  115  ASN115     -0.0877
     35  N        -52.6720   13.4700  -45.6660 N.3   117  VAL117     -0.1245
     36  CA       -51.3660   13.9580  -46.0960 C.3   117  VAL117      0.1561
     37  C        -50.6130   13.0020  -47.0230 C.2   117  VAL117      0.2260
     38  O        -50.0440   13.4280  -48.0210 O.2   117  VAL117     -0.2867
     39  CB       -50.4830   14.3350  -44.8790 C.3   117  VAL117      0.0252
     40  CG1      -50.3440   13.1660  -43.9360 C.3   117  VAL117      0.0019
     41  CG2      -49.0980   14.7950  -45.3440 C.3   117  VAL117      0.0019
     42  N        -46.2730   16.3180  -43.5270 N.3   138  LEU138     -0.1245
     43  CA       -46.3730   16.2940  -42.0740 C.3   138  LEU138      0.1561
     44  C        -47.0610   15.0200  -41.5980 C.2   138  LEU138      0.2260
     45  O        -48.1190   14.6420  -42.1060 O.2   138  LEU138     -0.2867
     46  CB       -47.1750   17.5040  -41.5760 C.3   138  LEU138      0.0270
     47  CG       -47.4470   17.5710  -40.0720 C.3   138  LEU138      0.0019
     48  CD1      -46.1290   17.6970  -39.3200 C.3   138  LEU138      0.0001
     49  CD2      -48.3990   18.7130  -39.7300 C.3   138  LEU138      0.0001
     50  N        -45.6280   15.4260  -35.5910 N.3   142  LEU142     -0.1245
     51  CA       -46.8320   15.7970  -34.8470 C.3   142  LEU142      0.1561
     52  C        -47.3610   14.6330  -33.9980 C.2   142  LEU142      0.2260
     53  O        -47.5800   14.7690  -32.7940 O.2   142  LEU142     -0.2867
     54  CB       -47.9230   16.2770  -35.8110 C.3   142  LEU142      0.0270
     55  CG       -49.2900   16.5980  -35.1970 C.3   142  LEU142      0.0019
     56  CD1      -49.1680   17.6180  -34.0660 C.3   142  LEU142      0.0001
     57  CD2      -50.2400   17.0870  -36.2770 C.3   142  LEU142      0.0001
     58  N        -47.3740   13.9580  -29.4240 N.3   146  ARG146     -0.1245
     59  CA       -48.4180   13.5670  -28.4720 C.3   146  ARG146      0.1563
     60  C        -47.9730   12.3820  -27.6100 C.2   146  ARG146      0.2260
     61  O        -48.0780   12.4160  -26.3800 O.2   146  ARG146     -0.2867
     62  CB       -49.7220   13.1970  -29.1860 C.3   146  ARG146      0.0307
     63  CG       -50.5810   14.3680  -29.6020 C.3   146  ARG146      0.0489
     64  CD       -50.1860   14.9190  -30.9500 C.3   146  ARG146      0.2205
     65  NE       -51.0420   16.0190  -31.4170 N.pl3 146  ARG146     -0.0865
     66  CZ       -51.8620   15.9860  -32.4710 C.cat 146  ARG146      0.5346
     67  NH1      -52.0140   14.8920  -33.2120 N.pl3 146  ARG146      0.1354
     68  NH2      -52.5490   17.0790  -32.7960 N.pl3 146  ARG146      0.1354
     69  N        -50.2580    9.1640  -41.6430 N.3   170  HIS170     -0.1241
     70  CA       -50.7640   10.1330  -40.6810 C.3   170  HIS170      0.1621
     71  C        -52.2800   10.0750  -40.7250 C.2   170  HIS170      0.2264
     72  O        -52.9010   10.5540  -41.6820 O.2   170  HIS170     -0.2867
     73  CB       -50.2720   11.5360  -41.0460 C.3   170  HIS170      0.0745
     74  CG       -50.7700   12.6190  -40.1400 C.ar  170  HIS170      0.0817
     75  ND1      -50.6270   12.5730  -38.7710 N.ar  170  HIS170     -0.2268
     76  CD2      -51.3800   13.7970  -40.4160 C.ar  170  HIS170      0.1154
     77  CE1      -51.1480   13.6650  -38.2400 C.ar  170  HIS170      0.1986
     78  NE2      -51.6120   14.4240  -39.2150 N.ar  170  HIS170     -0.2212
     79  N        -56.5660   14.3010  -32.3810 N.3   213  ALA213     -0.1245
     80  CA       -57.1980   15.2900  -33.2420 C.3   213  ALA213      0.1562
     81  C        -58.7020   15.3220  -32.9950 C.2   213  ALA213      0.2260
     82  O        -59.3050   16.3940  -32.9230 O.2   213  ALA213     -0.2867
     83  CB       -56.8990   14.9990  -34.7140 C.3   213  ALA213      0.0290
     84  N        -60.7940   18.4380  -31.5010 N.3   217  VAL217     -0.1245
     85  CA       -61.9400   18.9230  -32.2820 C.3   217  VAL217      0.1561
     86  C        -63.2070   18.9500  -31.4170 C.2   217  VAL217      0.2260
     87  O        -63.9330   19.9340  -31.4170 O.2   217  VAL217     -0.2867
     88  CB       -62.2060   18.0690  -33.5410 C.3   217  VAL217      0.0252
     89  CG1      -63.5650   18.4250  -34.1520 C.3   217  VAL217      0.0019
     90  CG2      -61.1000   18.2640  -34.5710 C.3   217  VAL217      0.0019
     91  N        -60.0510   21.8900  -34.8070 N.3   222  SER222     -0.1203
     92  CA       -58.9540   21.1210  -35.3730 C.3   222  SER222      0.2005
     93  C        -57.6460   21.6880  -34.7980 C.2   222  SER222      0.2460
     94  O        -57.4510   22.9010  -34.8290 O.2   222  SER222     -0.2732
     95  CB       -58.9670   21.2260  -36.8990 C.3   222  SER222      0.2103
     96  OG       -58.1320   20.2420  -37.4750 O.3   222  SER222     -0.2182
     97  N        -56.7720   20.8280  -34.2380 N.am  223  PRO223     -0.2728
     98  CA       -55.5000   21.3050  -33.6680 C.3   223  PRO223      0.1401
     99  C        -54.7030   22.1580  -34.6390 C.2   223  PRO223      0.2269
    100  O        -54.6760   21.8650  -35.8460 O.2   223  PRO223     -0.2865
    101  CB       -54.7330   20.0120  -33.3870 C.3   223  PRO223      0.0296
    102  CG       -55.7600   18.9770  -33.2440 C.3   223  PRO223      0.0237
    103  CD       -56.9270   19.3700  -34.0850 C.3   223  PRO223      0.0939
    104  N        -49.4200   21.2440  -34.6770 N.3   227  PRO227     -0.2116
    105  CA       -49.1070   21.0740  -36.0980 C.3   227  PRO227      0.1372
    106  C        -48.1390   22.1380  -36.6170 C.2   227  PRO227      0.2244
    107  O        -47.1480   21.8010  -37.2760 O.2   227  PRO227     -0.2868
    108  CB       -50.4780   21.1610  -36.7620 C.3   227  PRO227      0.0268
    109  CG       -51.3880   20.5810  -35.7300 C.3   227  PRO227      0.0207
    110  CD       -50.8640   21.1070  -34.4230 C.3   227  PRO227      0.0892
@<TRIPOS>BOND
     1    12    11    2
     2    38    37    2
     3    11    10    1
     4    30    29    2
     5    37    36    1
     6    29    28    1
     7    36    35    1
     8    36    39    1
     9    10     9    1
    10    10    13    1
    11    20    21    1
    12    27    28    1
    13    41    39    1
    14    28    31    1
    15    13    14    1
    16    22    21    1
    17    22    23    2
    18    39    40    1
    19    21    24    1
    20    31    32    1
    21    24    26    1
    22    24    25    1
    23    14    15    1
    24    42    43    1
    25    16    15    1
    26    16    17    2
    27    34    32   am
    28    19    17    1
    29    32    33    2
    30    17    18    1
    31    45    44    2
    32    43    44    1
    33    43    46    1
    34    72    71    2
    35    69    70    1
    36    46    47    1
    37    73    70    1
    38    73    74    1
    39    71    70    1
    40    76    74   ar
    41    76    78   ar
    42    74    75   ar
    43    47    49    1
    44    47    48    1
    45     8     6    1
    46     7     5    1
    47     5     6    1
    48     5     2    1
    49     3     4    2
    50     3     2    1
    51    78    77   ar
    52    75    77   ar
    53     2     1    1
    54    96    95    1
    55   107   106    2
    56    95    92    1
    57   108   105    1
    58   108   109    1
    59   106   105    1
    60    57    55    1
    61   105   104    1
    62   100    99    2
    63    54    55    1
    64    54    51    1
    65   109   110    1
    66    50    51    1
    67    92    91    1
    68    92    93    1
    69    55    56    1
    70    51    52    1
    71    94    93    2
    72    93    97   am
    73    83    80    1
    74   104   110    1
    75    99    98    1
    76    90    88    1
    77    97   103    1
    78    97    98    1
    79    89    88    1
    80   103   102    1
    81    52    53    2
    82    98   101    1
    83    88    85    1
    84   101   102    1
    85    80    81    1
    86    80    79    1
    87    67    66    1
    88    81    82    2
    89    68    66    1
    90    66    65    2
    91    85    84    1
    92    85    86    1
    93    87    86    2
    94    65    64    1
    95    64    63    1
    96    63    62    1
    97    58    59    1
    98    62    59    1
    99    59    60    1
   100    60    61    2
