@<TRIPOS>MOLECULE
tmp/4b81A01.pdb
 184 184 0 0 0
SMALL
GASTEIGER

@<TRIPOS>ATOM
      1  N         38.3720   22.1650   17.5150 N.3    72  TYR72      -0.1241
      2  CA        38.2180   23.3410   16.6720 C.3    72  TYR72       0.1605
      3  C         36.9300   24.0820   17.0240 C.2    72  TYR72       0.2264
      4  O         35.9000   23.4580   17.2750 O.2    72  TYR72      -0.2867
      5  CB        38.1680   22.9000   15.2070 C.3    72  TYR72       0.0534
      6  CG        37.9240   24.0240   14.2360 C.ar   72  TYR72      -0.0201
      7  CD1       38.9780   24.7900   13.7640 C.ar   72  TYR72      -0.0009
      8  CD2       36.6420   24.3190   13.7880 C.ar   72  TYR72      -0.0009
      9  CE1       38.7650   25.8270   12.8730 C.ar   72  TYR72       0.0417
     10  CE2       36.4150   25.3560   12.8970 C.ar   72  TYR72       0.0417
     11  CZ        37.4810   26.1080   12.4400 C.ar   72  TYR72       0.1957
     12  OH        37.2680   27.1440   11.5500 O.3    72  TYR72      -0.2866
     13  N         33.9610   26.9540   15.9210 N.3    74  ASP74      -0.1239
     14  CA        33.3070   27.6060   14.7920 C.3    74  ASP74       0.1674
     15  C         33.4750   29.1260   14.8590 C.2    74  ASP74       0.2266
     16  O         33.1050   29.7580   15.8530 O.2    74  ASP74      -0.2867
     17  CB        31.8180   27.2530   14.7930 C.3    74  ASP74       0.1410
     18  CG        31.1510   27.5170   13.4630 C.2    74  ASP74       0.3668
     19  OD1       31.6110   26.9590   12.4440 O.co2  74  ASP74      -0.2456
     20  OD2       30.1640   28.2840   13.4400 O.co2  74  ASP74      -0.2456
     21  N         26.2900   24.4540   19.5470 N.3    86  TRP86      -0.1241
     22  CA        27.1300   23.2660   19.3990 C.3    86  TRP86       0.1605
     23  C         28.5490   23.5210   19.8920 C.2    86  TRP86       0.2264
     24  O         29.3270   22.5880   20.0850 O.2    86  TRP86      -0.2867
     25  CB        27.1650   22.8040   17.9360 C.3    86  TRP86       0.0550
     26  CG        25.8160   22.7410   17.2870 C.ar   86  TRP86       0.0003
     27  CD1       25.2820   23.6440   16.4140 C.ar   86  TRP86       0.0946
     28  CD2       24.8220   21.7230   17.4740 C.ar   86  TRP86       0.0152
     29  NE1       24.0210   23.2470   16.0420 N.ar   86  TRP86      -0.2442
     30  CE2       23.7130   22.0730   16.6780 C.ar   86  TRP86       0.0810
     31  CE3       24.7640   20.5510   18.2360 C.ar   86  TRP86       0.0012
     32  CZ2       22.5540   21.2870   16.6200 C.ar   86  TRP86       0.0191
     33  CZ3       23.6170   19.7710   18.1790 C.ar   86  TRP86       0.0001
     34  CH2       22.5260   20.1430   17.3760 C.ar   86  TRP86       0.0015
     35  N         27.9220   13.8170   18.5020 N.3   120  GLY120     -0.1210
     36  CA        28.4780   13.8770   17.1620 C.3   120  GLY120      0.1956
     37  C         29.4190   15.0540   17.0090 C.2   120  GLY120      0.2612
     38  O         30.0450   15.4790   17.9770 O.2   120  GLY120     -0.2717
     39  N         29.5170   15.5850   15.7950 N.am  121  GLY121     -0.1942
     40  CA        30.4410   16.6670   15.5160 C.3   121  GLY121      0.2014
     41  C         31.6270   16.1540   14.7290 C.2   121  GLY121      0.2639
     42  O         32.7660   16.5300   15.0030 O.2   121  GLY121     -0.2714
     43  N         31.3430   15.2680   13.7720 N.am  122  GLY122     -0.1954
     44  CA        32.3200   14.7650   12.8150 C.3   122  GLY122      0.1869
     45  C         33.6990   14.3810   13.3300 C.2   122  GLY122      0.2309
     46  O         34.6970   14.5760   12.6270 O.2   122  GLY122     -0.2863
     47  N         35.6400   15.7850   15.1690 N.3   124  TYR124     -0.1227
     48  CA        36.5350   16.9210   15.3750 C.3   124  TYR124      0.1736
     49  C         36.0100   17.8460   16.4810 C.2   124  TYR124      0.2596
     50  O         36.7100   18.7530   16.9290 O.2   124  TYR124     -0.2718
     51  CB        36.7220   17.7080   14.0640 C.3   124  TYR124      0.0548
     52  CG        35.5380   18.5830   13.7200 C.ar  124  TYR124     -0.0200
     53  CD1       34.4510   18.0700   13.0310 C.ar  124  TYR124     -0.0009
     54  CD2       35.5020   19.9200   14.0970 C.ar  124  TYR124     -0.0009
     55  CE1       33.3600   18.8610   12.7270 C.ar  124  TYR124      0.0417
     56  CE2       34.4140   20.7210   13.7980 C.ar  124  TYR124      0.0417
     57  CZ        33.3470   20.1850   13.1130 C.ar  124  TYR124      0.1957
     58  OH        32.2640   20.9730   12.8140 O.3   124  TYR124     -0.2866
     59  N         34.7720   17.6170   16.9080 N.am  125  SER125     -0.1952
     60  CA        34.1230   18.5090   17.8610 C.3   125  SER125      0.1924
     61  C         33.1130   17.7700   18.7310 C.2   125  SER125      0.2314
     62  O         32.8940   16.5680   18.5610 O.2   125  SER125     -0.2863
     63  CB        33.4310   19.6570   17.1250 C.3   125  SER125      0.2116
     64  OG        32.3150   19.2020   16.3860 O.3   125  SER125     -0.2180
     65  N         22.1330   18.1230   25.1660 N.3   133  TYR133     -0.1241
     66  CA        22.3520   16.7690   25.6630 C.3   133  TYR133      0.1605
     67  C         22.0150   16.6540   27.1470 C.2   133  TYR133      0.2264
     68  O         22.6440   15.8880   27.8790 O.2   133  TYR133     -0.2867
     69  CB        23.7960   16.3290   25.4130 C.3   133  TYR133      0.0534
     70  CG        24.2560   16.5050   23.9880 C.ar  133  TYR133     -0.0201
     71  CD1       23.4090   16.2330   22.9210 C.ar  133  TYR133     -0.0009
     72  CD2       25.5380   16.9540   23.7080 C.ar  133  TYR133     -0.0009
     73  CE1       23.8320   16.3980   21.6100 C.ar  133  TYR133      0.0417
     74  CE2       25.9680   17.1220   22.4020 C.ar  133  TYR133      0.0417
     75  CZ        25.1100   16.8430   21.3570 C.ar  133  TYR133      0.1957
     76  OH        25.5370   17.0090   20.0580 O.3   133  TYR133     -0.2866
     77  N         24.3290   10.6620   17.5620 N.3   202  GLU202     -0.1231
     78  CA        23.9440   11.4070   16.3760 C.3   202  GLU202      0.1699
     79  C         25.1800   11.7590   15.5540 C.2   202  GLU202      0.2592
     80  O         26.2420   12.0200   16.1230 O.2   202  GLU202     -0.2718
     81  CB        23.1870   12.6710   16.7950 C.3   202  GLU202      0.0402
     82  CG        22.4930   13.4060   15.6710 C.3   202  GLU202      0.1161
     83  CD        23.4090   14.3810   14.9640 C.2   202  GLU202      0.3649
     84  OE1       24.4850   14.6920   15.5200 O.co2 202  GLU202     -0.2457
     85  OE2       23.0570   14.8360   13.8540 O.co2 202  GLU202     -0.2457
     86  N         25.0410   11.7620   14.2240 N.am  203  SER203     -0.1952
     87  CA        26.1510   12.0890   13.3190 C.3   203  SER203      0.1924
     88  C         27.3520   11.1770   13.5930 C.2   203  SER203      0.2314
     89  O         27.2440    9.9550   13.4770 O.2   203  SER203     -0.2863
     90  CB        26.5340   13.5780   13.4430 C.3   203  SER203      0.2116
     91  OG        27.6520   13.9230   12.6460 O.3   203  SER203     -0.2180
     92  N         42.4070   21.1350    9.4700 N.3   279  TRP279     -0.1241
     93  CA        41.6480   21.0900    8.2210 C.3   279  TRP279      0.1605
     94  C         42.5240   21.1020    6.9720 C.2   279  TRP279      0.2264
     95  O         42.0320   20.9670    5.8550 O.2   279  TRP279     -0.2867
     96  CB        40.6620   22.2570    8.1720 C.3   279  TRP279      0.0550
     97  CG        39.5750   22.1570    9.1960 C.ar  279  TRP279      0.0003
     98  CD1       39.5220   22.7840   10.4050 C.ar  279  TRP279      0.0946
     99  CD2       38.3850   21.3630    9.1010 C.ar  279  TRP279      0.0152
    100  NE1       38.3680   22.4360   11.0650 N.ar  279  TRP279     -0.2442
    101  CE2       37.6520   21.5630   10.2870 C.ar  279  TRP279      0.0810
    102  CE3       37.8680   20.5050    8.1250 C.ar  279  TRP279      0.0012
    103  CZ2       36.4220   20.9360   10.5240 C.ar  279  TRP279      0.0191
    104  CZ3       36.6500   19.8830    8.3570 C.ar  279  TRP279      0.0001
    105  CH2       35.9410   20.1000    9.5500 C.ar  279  TRP279      0.0015
    106  N         31.4880   17.9570    4.4610 N.3   288  PHE288     -0.1241
    107  CA        31.1300   16.6800    5.0740 C.3   288  PHE288      0.1605
    108  C         32.3030   15.7000    5.0190 C.2   288  PHE288      0.2264
    109  O         32.1240   14.4920    4.8890 O.2   288  PHE288     -0.2867
    110  CB        29.8700   16.0880    4.4370 C.3   288  PHE288      0.0534
    111  CG        28.9430   15.4280    5.4230 C.ar  288  PHE288     -0.0203
    112  CD1       29.4380   14.5750    6.4090 C.ar  288  PHE288     -0.0042
    113  CD2       27.5750   15.6720    5.3800 C.ar  288  PHE288     -0.0042
    114  CE1       28.5840   13.9540    7.3290 C.ar  288  PHE288     -0.0003
    115  CE2       26.7060   15.0600    6.2930 C.ar  288  PHE288     -0.0003
    116  CZ        27.2110   14.1970    7.2740 C.ar  288  PHE288     -0.0000
    117  N         36.0280   15.0640    7.2450 N.3   290  PHE290     -0.1241
    118  CA        36.7520   15.4400    8.4480 C.3   290  PHE290      0.1605
    119  C         38.1290   14.7960    8.4830 C.2   290  PHE290      0.2264
    120  O         38.2770   13.6200    8.1470 O.2   290  PHE290     -0.2867
    121  CB        35.9170   15.0620    9.6680 C.3   290  PHE290      0.0534
    122  CG        34.4440   15.3190    9.4760 C.ar  290  PHE290     -0.0203
    123  CD1       33.9350   16.6140    9.5420 C.ar  290  PHE290     -0.0042
    124  CD2       33.5730   14.2730    9.1900 C.ar  290  PHE290     -0.0042
    125  CE1       32.5660   16.8640    9.3470 C.ar  290  PHE290     -0.0003
    126  CE2       32.2040   14.5050    8.9910 C.ar  290  PHE290     -0.0003
    127  CZ        31.6960   15.8040    9.0690 C.ar  290  PHE290     -0.0000
    128  N         22.7940   22.2070    6.0780 N.3   330  TYR330     -0.1227
    129  CA        23.7480   22.7600    7.0370 C.3   330  TYR330      0.1736
    130  C         25.1370   22.9570    6.4250 C.2   330  TYR330      0.2595
    131  O         25.7520   24.0150    6.5620 O.2   330  TYR330     -0.2718
    132  CB        23.8430   21.8390    8.2660 C.3   330  TYR330      0.0548
    133  CG        24.5870   22.4270    9.4470 C.ar  330  TYR330     -0.0200
    134  CD1       25.9660   22.2940    9.5660 C.ar  330  TYR330     -0.0009
    135  CD2       23.9090   23.1000   10.4500 C.ar  330  TYR330     -0.0009
    136  CE1       26.6520   22.8320   10.6510 C.ar  330  TYR330      0.0417
    137  CE2       24.5850   23.6400   11.5370 C.ar  330  TYR330      0.0417
    138  CZ        25.9550   23.5020   11.6310 C.ar  330  TYR330      0.1957
    139  OH        26.6300   24.0340   12.7080 O.3   330  TYR330     -0.2866
    140  N         25.6230   21.9310    5.7390 N.am  331  PHE331     -0.1976
    141  CA        27.0070   21.9090    5.2780 C.3   331  PHE331      0.1639
    142  C         27.3020   22.8660    4.1250 C.2   331  PHE331      0.2290
    143  O         28.4520   23.2420    3.9060 O.2   331  PHE331     -0.2864
    144  CB        27.4120   20.4760    4.9190 C.3   331  PHE331      0.0560
    145  CG        27.3450   19.5240    6.0850 C.ar  331  PHE331     -0.0200
    146  CD1       26.1410   18.9310    6.4550 C.ar  331  PHE331     -0.0042
    147  CD2       28.4850   19.2350    6.8260 C.ar  331  PHE331     -0.0042
    148  CE1       26.0750   18.0610    7.5430 C.ar  331  PHE331     -0.0003
    149  CE2       28.4320   18.3630    7.9120 C.ar  331  PHE331     -0.0003
    150  CZ        27.2240   17.7750    8.2720 C.ar  331  PHE331     -0.0000
    151  N         29.2520   26.1760    4.5430 N.3   334  TYR334     -0.1241
    152  CA        30.6210   26.0380    5.0350 C.3   334  TYR334      0.1605
    153  C         31.6610   25.7560    3.9520 C.2   334  TYR334      0.2264
    154  O         32.8300   25.5220    4.2620 O.2   334  TYR334     -0.2867
    155  CB        30.6970   24.9460    6.1100 C.3   334  TYR334      0.0534
    156  CG        30.1710   25.3750    7.4570 C.ar  334  TYR334     -0.0201
    157  CD1       30.9920   26.0210    8.3690 C.ar  334  TYR334     -0.0009
    158  CD2       28.8540   25.1390    7.8150 C.ar  334  TYR334     -0.0009
    159  CE1       30.5150   26.4200    9.6070 C.ar  334  TYR334      0.0417
    160  CE2       28.3650   25.5330    9.0490 C.ar  334  TYR334      0.0417
    161  CZ        29.1990   26.1750    9.9430 C.ar  334  TYR334      0.1957
    162  OH        28.7130   26.5690   11.1730 O.3   334  TYR334     -0.2866
    163  N         20.5820   19.2380   10.0370 N.3   440  HIS440     -0.1241
    164  CA        21.2770   18.1500   10.7200 C.3   440  HIS440      0.1621
    165  C         21.3710   18.4070   12.2250 C.2   440  HIS440      0.2264
    166  O         21.9210   19.4230   12.6480 O.2   440  HIS440     -0.2867
    167  CB        22.6880   18.0370   10.1270 C.3   440  HIS440      0.0745
    168  CG        23.3520   16.7100   10.3520 C.ar  440  HIS440      0.0817
    169  ND1       22.7650   15.5220   10.0090 N.ar  440  HIS440     -0.2268
    170  CD2       24.5780   16.4160   10.8500 C.ar  440  HIS440      0.1154
    171  CE1       23.5970   14.5260   10.3110 C.ar  440  HIS440      0.1986
    172  NE2       24.6930   15.0440   10.8170 N.ar  440  HIS440     -0.2212
    173  N         18.7430   18.5590   14.4880 N.3   442  TYR442     -0.1241
    174  CA        17.6560   19.3170   15.1010 C.3   442  TYR442      0.1605
    175  C         16.4510   18.4650   15.5060 C.2   442  TYR442      0.2264
    176  O         15.3670   18.9770   15.7700 O.2   442  TYR442     -0.2867
    177  CB        17.3010   20.5450   14.2500 C.3   442  TYR442      0.0534
    178  CG        18.3690   21.6150   14.3580 C.ar  442  TYR442     -0.0201
    179  CD1       19.5280   21.5440   13.6040 C.ar  442  TYR442     -0.0009
    180  CD2       18.2390   22.6660   15.2510 C.ar  442  TYR442     -0.0009
    181  CE1       20.5200   22.5060   13.7170 C.ar  442  TYR442      0.0417
    182  CE2       19.2260   23.6350   15.3730 C.ar  442  TYR442      0.0417
    183  CZ        20.3650   23.5480   14.6020 C.ar  442  TYR442      0.1957
    184  OH        21.3500   24.5050   14.7120 O.3   442  TYR442     -0.2866
@<TRIPOS>BOND
     1   143   142    2
     2   153   154    2
     3   153   152    1
     4   142   141    1
     5   110   107    1
     6   110   111    1
     7   106   107    1
     8   151   152    1
     9   109   108    2
    10   144   141    1
    11   144   145    1
    12   108   107    1
    13   152   155    1
    14   141   140    1
    15   113   111   ar
    16   113   115   ar
    17   111   112   ar
    18   140   130   am
    19    95    94    2
    20   128   129    1
    21   145   146   ar
    22   145   147   ar
    23   155   156    1
    24   115   116   ar
    25   112   114   ar
    26   130   131    2
    27   130   129    1
    28   146   148   ar
    29   147   149   ar
    30    94    93    1
    31   129   132    1
    32   117   118    1
    33   116   114   ar
    34   156   158   ar
    35   156   157   ar
    36   148   150   ar
    37   158   160   ar
    38   149   150   ar
    39   102   104   ar
    40   102    99   ar
    41   120   119    2
    42    96    93    1
    43    96    97    1
    44    93    92    1
    45   132   133    1
    46   104   105   ar
    47   157   159   ar
    48   118   119    1
    49   118   121    1
    50   126   127   ar
    51   126   124   ar
    52   160   161   ar
    53   127   125   ar
    54    99    97   ar
    55    99   101   ar
    56   124   122   ar
    57    97    98   ar
    58   125   123   ar
    59   133   134   ar
    60   133   135   ar
    61   122   123   ar
    62   122   121    1
    63   105   103   ar
    64   134   136   ar
    65   159   161   ar
    66   161   162    1
    67   169   171   ar
    68   169   168   ar
    69   163   164    1
    70   167   168    1
    71   167   164    1
    72   101   103   ar
    73   101   100   ar
    74   171   172   ar
    75   168   170   ar
    76    98   100   ar
    77   135   137   ar
    78   136   138   ar
    79   164   165    1
    80   172   170   ar
    81   137   138   ar
    82    12    11    1
    83   138   139    1
    84   165   166    2
    85    11     9   ar
    86    11    10   ar
    87    19    18   ar
    88    46    45    2
    89    91    90    1
    90    55    53   ar
    91    55    57   ar
    92    58    57    1
    93    44    45    1
    94    44    43    1
    95     9     7   ar
    96    10     8   ar
    97    53    52   ar
    98    57    56   ar
    99    87    90    1
   100    87    88    1
   101    87    86    1
   102    20    18   ar
   103    18    17    1
   104    89    88    2
   105   179   181   ar
   106   179   178   ar
   107   181   183   ar
   108    52    51    1
   109    52    54   ar
   110     7     6   ar
   111    43    41   am
   112     8     6   ar
   113    56    54   ar
   114    85    83   ar
   115    51    48    1
   116    86    79   am
   117     6     5    1
   118   177   178    1
   119   177   174    1
   120   178   180   ar
   121   173   174    1
   122   183   184    1
   123   183   182   ar
   124    41    42    2
   125    41    40    1
   126    14    17    1
   127    14    15    1
   128    14    13    1
   129    15    16    2
   130    83    84   ar
   131    83    82    1
   132   174   175    1
   133    47    48    1
   134     5     2    1
   135   180   182   ar
   136    48    49    1
   137   175   176    2
   138    40    39    1
   139    79    80    2
   140    79    78    1
   141    82    81    1
   142    39    37   am
   143    29    27   ar
   144    29    30   ar
   145    78    81    1
   146    78    77    1
   147    64    63    1
   148    27    26   ar
   149    49    59   am
   150    49    50    2
   151    32    30   ar
   152    32    34   ar
   153     2     3    1
   154     2     1    1
   155    30    28   ar
   156    59    60    1
   157    37    36    1
   158    37    38    2
   159     3     4    2
   160    63    60    1
   161    36    35    1
   162    26    28   ar
   163    26    25    1
   164    34    33   ar
   165    28    31   ar
   166    60    61    1
   167    25    22    1
   168    33    31   ar
   169    62    61    2
   170    22    21    1
   171    22    23    1
   172    23    24    2
   173    76    75    1
   174    75    73   ar
   175    75    74   ar
   176    73    71   ar
   177    74    72   ar
   178    71    70   ar
   179    72    70   ar
   180    70    69    1
   181    65    66    1
   182    69    66    1
   183    66    67    1
   184    67    68    2
