@<TRIPOS>MOLECULE
tmp/4b82B00.pdb
 150 149 0 0 0
SMALL
GASTEIGER

@<TRIPOS>ATOM
      1  N          6.9200  -12.4150  -41.7760 N.3    71  ASP71      -0.1239
      2  CA         6.9110  -12.7960  -40.3600 C.3    71  ASP71       0.1674
      3  C          6.2560  -14.1570  -40.0970 C.2    71  ASP71       0.2266
      4  O          5.2130  -14.4800  -40.6680 O.2    71  ASP71      -0.2867
      5  CB         6.2410  -11.7070  -39.5160 C.3    71  ASP71       0.1410
      6  CG         6.6590  -11.7590  -38.0590 C.2    71  ASP71       0.3668
      7  OD1        7.7430  -11.2280  -37.7350 O.co2  71  ASP71      -0.2456
      8  OD2        5.9060  -12.3280  -37.2380 O.co2  71  ASP71      -0.2456
      9  N          0.4390   -6.7230  -40.6960 N.3    83  TRP83      -0.1241
     10  CA         1.6220   -6.0140  -41.1690 C.3    83  TRP83       0.1605
     11  C          2.3120   -6.7550  -42.3160 C.2    83  TRP83       0.2264
     12  O          3.1360   -6.1800  -43.0240 O.2    83  TRP83      -0.2867
     13  CB         2.6100   -5.8070  -40.0170 C.3    83  TRP83       0.0550
     14  CG         2.0060   -5.1640  -38.8070 C.ar   83  TRP83       0.0003
     15  CD1        1.8220   -5.7330  -37.5800 C.ar   83  TRP83       0.0946
     16  CD2        1.5040   -3.8250  -38.7090 C.ar   83  TRP83       0.0152
     17  NE1        1.2380   -4.8280  -36.7220 N.ar   83  TRP83      -0.2442
     18  CE2        1.0330   -3.6490  -37.3920 C.ar   83  TRP83       0.0810
     19  CE3        1.4110   -2.7560  -39.6050 C.ar   83  TRP83       0.0012
     20  CZ2        0.4750   -2.4500  -36.9530 C.ar   83  TRP83       0.0191
     21  CZ3        0.8570   -1.5660  -39.1670 C.ar   83  TRP83       0.0001
     22  CH2        0.3970   -1.4220  -37.8540 C.ar   83  TRP83       0.0015
     23  N          6.2360    2.2350  -42.2700 N.3   117  GLY117     -0.1210
     24  CA         7.3520    1.7410  -41.4840 C.3   117  GLY117      0.1956
     25  C          7.5320    0.2490  -41.6810 C.2   117  GLY117      0.2612
     26  O          6.9570   -0.3330  -42.6040 O.2   117  GLY117     -0.2717
     27  N          8.3210   -0.3740  -40.8120 N.am  118  GLY118     -0.1942
     28  CA         8.6280   -1.7870  -40.9470 C.3   118  GLY118      0.2014
     29  C         10.1180   -2.0420  -40.8320 C.2   118  GLY118      0.2639
     30  O         10.6530   -2.9480  -41.4750 O.2   118  GLY118     -0.2714
     31  N         10.7870   -1.2260  -40.0200 N.am  119  GLY119     -0.1954
     32  CA        12.2000   -1.4030  -39.7240 C.3   119  GLY119      0.1869
     33  C         13.1520   -1.3040  -40.9040 C.2   119  GLY119      0.2309
     34  O         14.2860   -1.7790  -40.8210 O.2   119  GLY119     -0.2863
     35  N         13.0600   -3.0210  -43.3650 N.3   121  TYR121     -0.1227
     36  CA        13.1940   -4.3600  -43.9410 C.3   121  TYR121      0.1736
     37  C         11.8680   -4.9070  -44.4690 C.2   121  TYR121      0.2596
     38  O         11.8310   -5.9720  -45.0930 O.2   121  TYR121     -0.2718
     39  CB        13.8020   -5.3400  -42.9240 C.3   121  TYR121      0.0548
     40  CG        12.8600   -5.7720  -41.8170 C.ar  121  TYR121     -0.0200
     41  CD1       12.0090   -6.8580  -41.9860 C.ar  121  TYR121     -0.0009
     42  CD2       12.8370   -5.1060  -40.5970 C.ar  121  TYR121     -0.0009
     43  CE1       11.1510   -7.2550  -40.9830 C.ar  121  TYR121      0.0417
     44  CE2       11.9820   -5.5010  -39.5850 C.ar  121  TYR121      0.0417
     45  CZ        11.1420   -6.5760  -39.7870 C.ar  121  TYR121      0.1957
     46  OH        10.2870   -6.9830  -38.7920 O.3   121  TYR121     -0.2866
     47  N         10.7810   -4.1830  -44.2120 N.am  122  SER122     -0.1952
     48  CA         9.4460   -4.6740  -44.5430 C.3   122  SER122      0.1924
     49  C          8.4530   -3.5330  -44.7350 C.2   122  SER122      0.2314
     50  O          8.8120   -2.3600  -44.6150 O.2   122  SER122     -0.2863
     51  CB         8.9440   -5.6160  -43.4470 C.3   122  SER122      0.2116
     52  OG         8.7990   -4.9340  -42.2130 O.3   122  SER122     -0.2180
     53  N         -3.4660    1.3210  -43.9830 N.3   130  TYR130     -0.1241
     54  CA        -2.9940    2.5170  -44.6780 C.3   130  TYR130      0.1605
     55  C         -3.9990    2.9680  -45.7400 C.2   130  TYR130      0.2264
     56  O         -3.6780    3.7830  -46.6070 O.2   130  TYR130     -0.2867
     57  CB        -1.6370    2.2550  -45.3390 C.3   130  TYR130      0.0534
     58  CG        -0.5530    1.7460  -44.4120 C.ar  130  TYR130     -0.0201
     59  CD1       -0.5450    2.0740  -43.0620 C.ar  130  TYR130     -0.0009
     60  CD2        0.4680    0.9380  -44.8940 C.ar  130  TYR130     -0.0009
     61  CE1        0.4500    1.6070  -42.2210 C.ar  130  TYR130      0.0417
     62  CE2        1.4670    0.4700  -44.0610 C.ar  130  TYR130      0.0417
     63  CZ         1.4520    0.8060  -42.7270 C.ar  130  TYR130      0.1957
     64  OH         2.4450    0.3370  -41.8960 O.3   130  TYR130     -0.2866
     65  N          5.1550    6.3220  -39.8910 N.3   199  GLU199     -0.1231
     66  CA         5.2830    5.7550  -38.5560 C.3   199  GLU199      0.1699
     67  C          6.5000    4.8400  -38.5020 C.2   199  GLU199      0.2592
     68  O          6.8480    4.2110  -39.5010 O.2   199  GLU199     -0.2718
     69  CB         4.0050    5.0020  -38.1730 C.3   199  GLU199      0.0402
     70  CG         3.9740    4.4720  -36.7450 C.3   199  GLU199      0.1161
     71  CD         4.4770    3.0490  -36.6410 C.2   199  GLU199      0.3649
     72  OE1        4.7440    2.4350  -37.6950 O.co2 199  GLU199     -0.2457
     73  OE2        4.6000    2.5390  -35.5050 O.co2 199  GLU199     -0.2457
     74  N          7.1510    4.7910  -37.3410 N.am  200  SER200     -0.1952
     75  CA         8.3490    3.9750  -37.1440 C.3   200  SER200      0.1924
     76  C          9.4250    4.3310  -38.1700 C.2   200  SER200      0.2314
     77  O          9.8380    5.4860  -38.2570 O.2   200  SER200     -0.2863
     78  CB         8.0000    2.4820  -37.2000 C.3   200  SER200      0.2116
     79  OG         8.9360    1.7060  -36.4740 O.3   200  SER200     -0.2180
     80  N         14.8350   -4.4510  -31.8190 N.3   285  PHE285     -0.1241
     81  CA        14.7300   -3.0870  -32.3310 C.3   285  PHE285      0.1605
     82  C         16.0250   -2.6820  -33.0290 C.2   285  PHE285      0.2264
     83  O         16.4810   -1.5400  -32.9300 O.2   285  PHE285     -0.2867
     84  CB        14.3530   -2.1010  -31.2190 C.3   285  PHE285      0.0534
     85  CG        13.3830   -1.0370  -31.6570 C.ar  285  PHE285     -0.0203
     86  CD1       13.5330   -0.4060  -32.8830 C.ar  285  PHE285     -0.0042
     87  CD2       12.3110   -0.6810  -30.8520 C.ar  285  PHE285     -0.0042
     88  CE1       12.6410    0.5710  -33.2920 C.ar  285  PHE285     -0.0003
     89  CE2       11.4190    0.3000  -31.2540 C.ar  285  PHE285     -0.0003
     90  CZ        11.5810    0.9230  -32.4770 C.ar  285  PHE285     -0.0000
     91  N         17.9860   -3.3730  -36.9560 N.3   287  PHE287     -0.1241
     92  CA        17.7320   -3.8840  -38.2930 C.3   287  PHE287      0.1605
     93  C         19.0090   -3.8650  -39.1290 C.2   287  PHE287      0.2264
     94  O         19.8230   -2.9470  -39.0160 O.2   287  PHE287     -0.2867
     95  CB        16.5970   -3.0870  -38.9470 C.3   287  PHE287      0.0534
     96  CG        15.4620   -2.7740  -38.0020 C.ar  287  PHE287     -0.0203
     97  CD1       14.5700   -3.7630  -37.6140 C.ar  287  PHE287     -0.0042
     98  CD2       15.3030   -1.4960  -37.4880 C.ar  287  PHE287     -0.0042
     99  CE1       13.5330   -3.4800  -36.7370 C.ar  287  PHE287     -0.0003
    100  CE2       14.2670   -1.2060  -36.6120 C.ar  287  PHE287     -0.0003
    101  CZ        13.3810   -2.2000  -36.2370 C.ar  287  PHE287     -0.0000
    102  N          5.8190   -4.5120  -28.0780 N.3   327  TYR327     -0.1227
    103  CA         5.7280   -5.3340  -29.2920 C.3   327  TYR327      0.1736
    104  C          6.9930   -6.1570  -29.5240 C.2   327  TYR327      0.2595
    105  O          6.9320   -7.2970  -29.9900 O.2   327  TYR327     -0.2718
    106  CB         5.4600   -4.4420  -30.5160 C.3   327  TYR327      0.0548
    107  CG         4.9540   -5.1690  -31.7560 C.ar  327  TYR327     -0.0200
    108  CD1        5.8300   -5.8280  -32.6150 C.ar  327  TYR327     -0.0009
    109  CD2        3.6030   -5.1730  -32.0770 C.ar  327  TYR327     -0.0009
    110  CE1        5.3670   -6.4860  -33.7480 C.ar  327  TYR327      0.0417
    111  CE2        3.1330   -5.8250  -33.2070 C.ar  327  TYR327      0.0417
    112  CZ         4.0180   -6.4780  -34.0370 C.ar  327  TYR327      0.1957
    113  OH         3.5510   -7.1260  -35.1590 O.3   327  TYR327     -0.2866
    114  N          8.1340   -5.5740  -29.1750 N.am  328  PHE328     -0.1976
    115  CA         9.4370   -6.1280  -29.5310 C.3   328  PHE328      0.1639
    116  C          9.9280   -7.2200  -28.5800 C.2   328  PHE328      0.2290
    117  O         10.7890   -8.0260  -28.9410 O.2   328  PHE328     -0.2864
    118  CB        10.4660   -4.9940  -29.6280 C.3   328  PHE328      0.0560
    119  CG        10.1060   -3.9430  -30.6420 C.ar  328  PHE328     -0.0200
    120  CD1        9.2570   -2.8970  -30.3110 C.ar  328  PHE328     -0.0042
    121  CD2       10.6130   -4.0050  -31.9310 C.ar  328  PHE328     -0.0042
    122  CE1        8.9170   -1.9370  -31.2470 C.ar  328  PHE328     -0.0003
    123  CE2       10.2830   -3.0430  -32.8680 C.ar  328  PHE328     -0.0003
    124  CZ         9.4310   -2.0110  -32.5280 C.ar  328  PHE328     -0.0000
    125  N          9.6320  -10.9200  -29.4930 N.3   331  TYR331     -0.1241
    126  CA        10.4320  -11.2810  -30.6640 C.3   331  TYR331      0.1605
    127  C         11.9020  -11.5860  -30.3560 C.2   331  TYR331      0.2264
    128  O         12.7110  -11.7070  -31.2770 O.2   331  TYR331     -0.2867
    129  CB        10.3590  -10.1720  -31.7240 C.3   331  TYR331      0.0534
    130  CG         9.1770  -10.2770  -32.6620 C.ar  331  TYR331     -0.0201
    131  CD1        9.2430  -11.0620  -33.8080 C.ar  331  TYR331     -0.0009
    132  CD2        8.0000   -9.5870  -32.4080 C.ar  331  TYR331     -0.0009
    133  CE1        8.1680  -11.1600  -34.6700 C.ar  331  TYR331      0.0417
    134  CE2        6.9180   -9.6800  -33.2650 C.ar  331  TYR331      0.0417
    135  CZ         7.0090  -10.4670  -34.3920 C.ar  331  TYR331      0.1957
    136  OH         5.9310  -10.5600  -35.2430 O.3   331  TYR331     -0.2866
    137  N          3.4860   -0.1800  -30.2200 N.3   437  HIS437     -0.1226
    138  CA         4.0500    0.4180  -31.4250 C.3   437  HIS437      0.1752
    139  C          3.1540    0.1240  -32.6260 C.2   437  HIS437      0.2596
    140  O          2.8880   -1.0360  -32.9360 O.2   437  HIS437     -0.2718
    141  CB         5.4400   -0.1910  -31.6470 C.3   437  HIS437      0.0759
    142  CG         6.3240    0.5820  -32.5760 C.ar  437  HIS437      0.0818
    143  ND1        6.6420    1.9090  -32.3760 N.ar  437  HIS437     -0.2268
    144  CD2        7.0000    0.1970  -33.6860 C.ar  437  HIS437      0.1154
    145  CE1        7.4550    2.3140  -33.3360 C.ar  437  HIS437      0.1986
    146  NE2        7.6910    1.2930  -34.1410 N.ar  437  HIS437     -0.2212
    147  N          2.6570    1.1750  -33.2720 N.am  438  GLY438     -0.1957
    148  CA         1.9130    1.0290  -34.5130 C.3   438  GLY438      0.1869
    149  C          0.3970    1.0920  -34.4180 C.2   438  GLY438      0.2309
    150  O         -0.2840    1.1140  -35.4450 O.2   438  GLY438     -0.2863
@<TRIPOS>BOND
     1    56    55    2
     2    55    54    1
     3    57    54    1
     4    57    58    1
     5    38    37    2
     6    60    58   ar
     7    60    62   ar
     8    49    50    2
     9    49    48    1
    10    54    53    1
    11    48    47    1
    12    48    51    1
    13    37    47   am
    14    37    36    1
    15    58    59   ar
    16    62    63   ar
    17    36    35    1
    18    36    39    1
    19    51    52    1
    20    59    61   ar
    21    12    11    2
    22    39    40    1
    23    63    61   ar
    24    63    64    1
    25    26    25    2
    26    11    10    1
    27    23    24    1
    28    41    40   ar
    29    41    43   ar
    30    40    42   ar
    31     1     2    1
    32    25    24    1
    33    25    27   am
    34    30    29    2
    35    10     9    1
    36    10    13    1
    37    43    45   ar
    38    28    29    1
    39    28    27    1
    40    33    34    2
    41    33    32    1
    42    29    31   am
    43     4     3    2
    44    42    44   ar
    45     2     3    1
    46     2     5    1
    47    31    32    1
    48    13    14    1
    49    65    66    1
    50    45    44   ar
    51    45    46    1
    52    19    21   ar
    53    19    16   ar
    54     5     6    1
    55    68    67    2
    56    21    22   ar
    57    93    94    2
    58    93    92    1
    59    95    92    1
    60    95    96    1
    61    14    16   ar
    62    14    15   ar
    63    16    18   ar
    64    66    67    1
    65    66    69    1
    66    67    74   am
    67    92    91    1
    68    77    76    2
    69    69    70    1
    70    76    75    1
    71     6     7   ar
    72     6     8   ar
    73    96    97   ar
    74    96    98   ar
    75    22    20   ar
    76    72    71   ar
    77    97    99   ar
    78    15    17   ar
    79    98   100   ar
    80    18    20   ar
    81    18    17   ar
    82    74    75    1
    83    78    75    1
    84    78    79    1
    85    70    71    1
    86    99   101   ar
    87    71    73   ar
    88   100   101   ar
    89   150   149    2
    90   136   135    1
    91   113   112    1
    92   133   135   ar
    93   133   131   ar
    94   148   149    1
    95   148   147    1
    96   135   134   ar
    97   146   144   ar
    98   146   145   ar
    99   112   110   ar
   100   112   111   ar
   101   131   130   ar
   102   110   108   ar
   103   144   142   ar
   104   145   143   ar
   105    88    86   ar
   106    88    90   ar
   107   147   139   am
   108   134   132   ar
   109   111   109   ar
   110    82    83    2
   111    82    81    1
   112   140   139    2
   113    86    85   ar
   114   123   124   ar
   115   123   121   ar
   116   130   132   ar
   117   130   129    1
   118   139   138    1
   119   108   107   ar
   120   142   143   ar
   121   142   141    1
   122   124   122   ar
   123    90    89   ar
   124    81    80    1
   125    81    84    1
   126   109   107   ar
   127   121   119   ar
   128   107   106    1
   129   129   126    1
   130    85    84    1
   131    85    87   ar
   132   141   138    1
   133   138   137    1
   134   128   127    2
   135    89    87   ar
   136   122   120   ar
   137   126   127    1
   138   126   125    1
   139   119   120   ar
   140   119   118    1
   141   106   103    1
   142   105   104    2
   143   118   115    1
   144   115   114    1
   145   115   116    1
   146   104   103    1
   147   104   114   am
   148   103   102    1
   149   117   116    2
