@<TRIPOS>MOLECULE
tmp/4b82A03.pdb
 90 88 0 0 0
SMALL
GASTEIGER

@<TRIPOS>ATOM
      1  N         35.2860    3.3130   42.0190 N.3    13  ARG13      -0.1231
      2  CA        36.5660    2.5990   42.0680 C.3    13  ARG13       0.1694
      3  C         37.7570    3.5060   42.3810 C.2    13  ARG13       0.2592
      4  O         38.7010    3.0920   43.0530 O.2    13  ARG13      -0.2718
      5  CB        36.7940    1.8540   40.7480 C.3    13  ARG13       0.0321
      6  CG        38.1410    1.1560   40.6050 C.3    13  ARG13       0.0489
      7  CD        38.3790    0.1170   41.6950 C.3    13  ARG13       0.2205
      8  NE        39.4080    0.5660   42.6270 N.pl3  13  ARG13      -0.0865
      9  CZ        40.6470    0.0910   42.6590 C.cat  13  ARG13       0.5346
     10  NH1       41.0170   -0.8700   41.8280 N.pl3  13  ARG13       0.1354
     11  NH2       41.5150    0.5700   43.5340 N.pl3  13  ARG13       0.1354
     12  N         37.6980    4.7460   41.9110 N.am   14  GLY14      -0.1957
     13  CA        38.7740    5.6950   42.1330 C.3    14  GLY14       0.1869
     14  C         38.6740    6.4610   43.4390 C.2    14  GLY14       0.2309
     15  O         39.6470    7.0770   43.8790 O.2    14  GLY14      -0.2863
     16  N         37.8150    9.8610   34.2810 N.3    37  PHE37      -0.1241
     17  CA        37.8280    8.4270   33.9840 C.3    37  PHE37       0.1605
     18  C         39.1680    7.9820   33.4040 C.2    37  PHE37       0.2264
     19  O         39.3840    6.7960   33.1500 O.2    37  PHE37      -0.2867
     20  CB        36.6570    8.0200   33.0730 C.3    37  PHE37       0.0534
     21  CG        36.7170    8.6070   31.6850 C.ar   37  PHE37      -0.0203
     22  CD1       36.1240    9.8300   31.4150 C.ar   37  PHE37      -0.0042
     23  CD2       37.3390    7.9230   30.6470 C.ar   37  PHE37      -0.0042
     24  CE1       36.1620   10.3710   30.1450 C.ar   37  PHE37      -0.0003
     25  CE2       37.3830    8.4620   29.3690 C.ar   37  PHE37      -0.0003
     26  CZ        36.7920    9.6890   29.1200 C.ar   37  PHE37      -0.0000
     27  N         43.5980    4.3970   32.5310 N.3    52  PRO52      -0.2102
     28  CA        42.5640    4.5390   33.5600 C.3    52  PRO52       0.1504
     29  C         43.0020    5.5040   34.6580 C.2    52  PRO52       0.2575
     30  O         44.1780    5.5130   35.0320 O.2    52  PRO52      -0.2718
     31  CB        42.4360    3.1180   34.1160 C.3    52  PRO52       0.0282
     32  CG        42.8540    2.2350   32.9810 C.3    52  PRO52       0.0208
     33  CD        43.9490    2.9860   32.2840 C.3    52  PRO52       0.0893
     34  N         42.0720    6.3250   35.1350 N.am   53  LYS53      -0.1980
     35  CA        42.3460    7.2800   36.2020 C.3    53  LYS53       0.1596
     36  C         42.8230    6.5570   37.4520 C.2    53  LYS53       0.2287
     37  O         42.1850    5.6060   37.9030 O.2    53  LYS53      -0.2864
     38  CB        41.0800    8.0810   36.5200 C.3    53  LYS53       0.0298
     39  CG        41.2010    9.0140   37.7170 C.3    53  LYS53       0.0038
     40  CD        42.1800   10.1440   37.4380 C.3    53  LYS53       0.0206
     41  CE        42.2060   11.1590   38.5740 C.3    53  LYS53       0.1093
     42  NZ        43.1200   12.2980   38.2750 N.3    53  LYS53      -0.1314
     43  N         36.8750    3.4970   27.2260 N.3   178  LEU178     -0.1245
     44  CA        37.2930    3.5240   28.6270 C.3   178  LEU178      0.1561
     45  C         36.1540    4.0260   29.5120 C.2   178  LEU178      0.2260
     46  O         35.9670    3.5520   30.6320 O.2   178  LEU178     -0.2867
     47  CB        38.5430    4.3960   28.8000 C.3   178  LEU178      0.0270
     48  CG        39.1160    4.5140   30.2150 C.3   178  LEU178      0.0019
     49  CD1       39.4290    3.1440   30.7920 C.3   178  LEU178      0.0001
     50  CD2       40.3540    5.3900   30.2220 C.3   178  LEU178      0.0001
     51  N         33.7220    1.2420   29.9680 N.3   181  GLN181     -0.1231
     52  CA        34.2530    0.3180   30.9660 C.3   181  GLN181      0.1698
     53  C         34.0610    0.8840   32.3690 C.2   181  GLN181      0.2592
     54  O         33.7770    0.1430   33.3080 O.2   181  GLN181     -0.2718
     55  CB        35.7350    0.0330   30.6980 C.3   181  GLN181      0.0381
     56  CG        35.9960   -0.7770   29.4280 C.3   181  GLN181      0.0905
     57  CD        37.4690   -0.8430   29.0540 C.2   181  GLN181      0.2608
     58  OE1       38.2880   -0.0760   29.5620 O.2   181  GLN181     -0.2717
     59  NE2       37.8100   -1.7600   28.1580 N.am  181  GLN181     -0.0878
     60  N         34.2120    2.1990   32.5010 N.am  182  TRP182     -0.1976
     61  CA        33.9760    2.8780   33.7740 C.3   182  TRP182      0.1640
     62  C         32.5390    2.6690   34.2390 C.2   182  TRP182      0.2290
     63  O         32.2870    2.4270   35.4200 O.2   182  TRP182     -0.2864
     64  CB        34.2740    4.3790   33.6550 C.3   182  TRP182      0.0576
     65  CG        34.1760    5.1150   34.9710 C.ar  182  TRP182      0.0006
     66  CD1       35.1970    5.3860   35.8390 C.ar  182  TRP182      0.0946
     67  CD2       32.9910    5.6640   35.5670 C.ar  182  TRP182      0.0152
     68  NE1       34.7190    6.0720   36.9320 N.ar  182  TRP182     -0.2442
     69  CE2       33.3670    6.2540   36.7880 C.ar  182  TRP182      0.0810
     70  CE3       31.6480    5.7190   35.1800 C.ar  182  TRP182      0.0012
     71  CZ2       32.4490    6.8880   37.6300 C.ar  182  TRP182      0.0191
     72  CZ3       30.7380    6.3480   36.0150 C.ar  182  TRP182      0.0001
     73  CH2       31.1420    6.9220   37.2260 C.ar  182  TRP182      0.0015
     74  N         31.9080   -0.8700   35.6090 N.3   185  GLU185     -0.1231
     75  CA        32.3910   -1.0970   36.9720 C.3   185  GLU185      0.1699
     76  C         31.6540   -0.2750   38.0370 C.2   185  GLU185      0.2592
     77  O         31.4110   -0.7660   39.1420 O.2   185  GLU185     -0.2718
     78  CB        33.9090   -0.8560   37.0700 C.3   185  GLU185      0.0402
     79  CG        34.4570   -0.9810   38.4960 C.3   185  GLU185      0.1161
     80  CD        35.9440   -1.2590   38.5510 C.2   185  GLU185      0.3649
     81  OE1       36.6370   -1.0160   37.5420 O.co2 185  GLU185     -0.2457
     82  OE2       36.4200   -1.7260   39.6090 O.co2 185  GLU185     -0.2457
     83  N         31.2890    0.9630   37.7060 N.am  186  ASN186     -0.1974
     84  CA        30.8340    1.9040   38.7340 C.3   186  ASN186      0.1688
     85  C         29.3680    2.3390   38.7120 C.2   186  ASN186      0.2292
     86  O         28.8720    2.8500   39.7160 O.2   186  ASN186     -0.2864
     87  CB        31.7200    3.1550   38.7380 C.3   186  ASN186      0.1181
     88  CG        33.1890    2.8260   38.8520 C.2   186  ASN186      0.2629
     89  OD1       33.6660    2.4020   39.9050 O.2   186  ASN186     -0.2716
     90  ND2       33.9210    3.0350   37.7690 N.am  186  ASN186     -0.0877
@<TRIPOS>BOND
     1    43    44    1
     2    59    57   am
     3    44    47    1
     4    44    45    1
     5    47    48    1
     6    57    56    1
     7    57    58    2
     8    26    25   ar
     9    26    24   ar
    10    25    23   ar
    11    56    55    1
    12    45    46    2
    13    51    52    1
    14    24    22   ar
    15    48    50    1
    16    48    49    1
    17    23    21   ar
    18    55    52    1
    19    52    53    1
    20    22    21   ar
    21    21    20    1
    22    33    27    1
    23    33    32    1
    24    53    60   am
    25    53    54    2
    26    60    61    1
    27    27    28    1
    28    32    31    1
    29    20    17    1
    30    19    18    2
    31    18    17    1
    32    28    31    1
    33    28    29    1
    34    64    61    1
    35    64    65    1
    36    61    62    1
    37    17    16    1
    38    62    63    2
    39    29    30    2
    40    29    34   am
    41    65    67   ar
    42    65    66   ar
    43    34    35    1
    44    70    67   ar
    45    70    72   ar
    46    67    69   ar
    47    74    75    1
    48    66    68   ar
    49    72    73   ar
    50    35    38    1
    51    35    36    1
    52    38    39    1
    53    69    68   ar
    54    69    71   ar
    55    75    78    1
    56    75    76    1
    57    78    79    1
    58    73    71   ar
    59    40    39    1
    60    40    41    1
    61    36    37    2
    62    81    80   ar
    63    83    76   am
    64    83    84    1
    65    90    88   am
    66    76    77    2
    67    42    41    1
    68    79    80    1
    69    80    82   ar
    70    85    84    1
    71    85    86    2
    72    84    87    1
    73    87    88    1
    74    88    89    2
    75     6     5    1
    76     6     7    1
    77     5     2    1
    78     7     8    1
    79    10     9    1
    80    12    13    1
    81    12     3   am
    82     1     2    1
    83     2     3    1
    84    13    14    1
    85     3     4    2
    86     8     9    2
    87     9    11    1
    88    14    15    2
