@<TRIPOS>MOLECULE
tmp/4b83B01.pdb
 195 196 0 0 0
SMALL
GASTEIGER

@<TRIPOS>ATOM
      1  N         11.5240   -9.5890  -46.6820 N.3    69  TYR69      -0.1241
      2  CA        11.2520  -10.6490  -45.7130 C.3    69  TYR69       0.1605
      3  C          9.7780  -10.6330  -45.3010 C.2    69  TYR69       0.2264
      4  O          9.1880   -9.5620  -45.1150 O.2    69  TYR69      -0.2867
      5  CB        12.1480  -10.4570  -44.4830 C.3    69  TYR69       0.0534
      6  CG        11.8250  -11.3600  -43.3120 C.ar   69  TYR69      -0.0201
      7  CD1       12.2270  -12.6910  -43.3030 C.ar   69  TYR69      -0.0009
      8  CD2       11.1290  -10.8770  -42.2090 C.ar   69  TYR69      -0.0009
      9  CE1       11.9350  -13.5200  -42.2270 C.ar   69  TYR69       0.0417
     10  CE2       10.8330  -11.7000  -41.1220 C.ar   69  TYR69       0.0417
     11  CZ        11.2420  -13.0160  -41.1380 C.ar   69  TYR69       0.1957
     12  OH        10.9510  -13.8410  -40.0810 O.3    69  TYR69      -0.2866
     13  N          0.5640   -6.3530  -41.3550 N.3    83  TRP83      -0.1241
     14  CA         1.7600   -5.6790  -41.8610 C.3    83  TRP83       0.1605
     15  C          2.4220   -6.4500  -43.0090 C.2    83  TRP83       0.2264
     16  O          3.2890   -5.9180  -43.6940 O.2    83  TRP83      -0.2867
     17  CB         2.7700   -5.4510  -40.7300 C.3    83  TRP83       0.0550
     18  CG         2.1560   -4.8250  -39.5110 C.ar   83  TRP83       0.0003
     19  CD1        1.9070   -5.4320  -38.3170 C.ar   83  TRP83       0.0946
     20  CD2        1.6960   -3.4670  -39.3790 C.ar   83  TRP83       0.0152
     21  NE1        1.3280   -4.5410  -37.4500 N.ar   83  TRP83      -0.2442
     22  CE2        1.1890   -3.3350  -38.0710 C.ar   83  TRP83       0.0810
     23  CE3        1.6660   -2.3640  -40.2360 C.ar   83  TRP83       0.0012
     24  CZ2        0.6570   -2.1240  -37.6000 C.ar   83  TRP83       0.0191
     25  CZ3        1.1400   -1.1670  -39.7680 C.ar   83  TRP83       0.0001
     26  CH2        0.6400   -1.0580  -38.4580 C.ar   83  TRP83       0.0015
     27  N          6.3380    2.6260  -42.8670 N.3   117  GLY117     -0.1210
     28  CA         7.4410    2.1360  -42.0560 C.3   117  GLY117      0.1956
     29  C          7.6800    0.6560  -42.3130 C.2   117  GLY117      0.2612
     30  O          7.2390    0.1170  -43.3490 O.2   117  GLY117     -0.2717
     31  N          8.3700   -0.0050  -41.3820 N.am  118  GLY118     -0.1942
     32  CA         8.7690   -1.3940  -41.5690 C.3   118  GLY118      0.2014
     33  C         10.2650   -1.6720  -41.4350 C.2   118  GLY118      0.2639
     34  O         10.7730   -2.6300  -42.0310 O.2   118  GLY118     -0.2714
     35  N         10.9640   -0.8400  -40.6610 N.am  119  GLY119     -0.1954
     36  CA        12.3730   -1.0450  -40.3460 C.3   119  GLY119      0.1869
     37  C         13.3460   -0.9960  -41.5140 C.2   119  GLY119      0.2309
     38  O         14.4400   -1.5600  -41.4350 O.2   119  GLY119     -0.2863
     39  N         13.2620   -2.7130  -43.9330 N.3   121  TYR121     -0.1227
     40  CA        13.3620   -4.0850  -44.4800 C.3   121  TYR121      0.1736
     41  C         12.0240   -4.6370  -44.9960 C.2   121  TYR121      0.2596
     42  O         11.9750   -5.7410  -45.5440 O.2   121  TYR121     -0.2718
     43  CB        13.9400   -5.0750  -43.4520 C.3   121  TYR121      0.0548
     44  CG        12.9350   -5.5200  -42.3940 C.ar  121  TYR121     -0.0200
     45  CD1       12.7800   -4.8010  -41.2200 C.ar  121  TYR121     -0.0009
     46  CD2       12.1490   -6.6590  -42.5710 C.ar  121  TYR121     -0.0009
     47  CE1       11.8650   -5.1940  -40.2490 C.ar  121  TYR121      0.0417
     48  CE2       11.2280   -7.0580  -41.6100 C.ar  121  TYR121      0.0417
     49  CZ        11.0930   -6.3210  -40.4470 C.ar  121  TYR121      0.1957
     50  OH        10.1860   -6.7010  -39.4780 O.3   121  TYR121     -0.2866
     51  N         10.9470   -3.8810  -44.8030 N.am  122  SER122     -0.1952
     52  CA         9.6090   -4.3540  -45.1420 C.3   122  SER122      0.1924
     53  C          8.6440   -3.1910  -45.3140 C.2   122  SER122      0.2314
     54  O          8.9880   -2.0390  -45.0450 O.2   122  SER122     -0.2863
     55  CB         9.0810   -5.2720  -44.0390 C.3   122  SER122      0.2116
     56  OG         8.8780   -4.5460  -42.8320 O.3   122  SER122     -0.2180
     57  N         -1.1600   -1.7370  -47.9570 N.3   127  LEU127     -0.1245
     58  CA        -1.8000   -2.2610  -46.7510 C.3   127  LEU127      0.1561
     59  C         -3.1280   -1.5580  -46.4810 C.2   127  LEU127      0.2260
     60  O         -3.2920   -0.3730  -46.8030 O.2   127  LEU127     -0.2867
     61  CB        -0.8760   -2.1310  -45.5380 C.3   127  LEU127      0.0270
     62  CG         0.4990   -2.7970  -45.6700 C.3   127  LEU127      0.0019
     63  CD1        1.2900   -2.6490  -44.3810 C.3   127  LEU127      0.0001
     64  CD2        0.3820   -4.2690  -46.0680 C.3   127  LEU127      0.0001
     65  N         -3.2710    1.8090  -44.5590 N.3   130  TYR130     -0.1241
     66  CA        -2.8250    3.0080  -45.2550 C.3   130  TYR130      0.1605
     67  C         -3.8340    3.4540  -46.3060 C.2   130  TYR130      0.2264
     68  O         -3.5070    4.2640  -47.1690 O.2   130  TYR130     -0.2867
     69  CB        -1.4640    2.7790  -45.9140 C.3   130  TYR130      0.0534
     70  CG        -0.3940    2.2450  -44.9910 C.ar  130  TYR130     -0.0201
     71  CD1       -0.3950    2.5460  -43.6280 C.ar  130  TYR130     -0.0009
     72  CD2        0.6200    1.4360  -45.4830 C.ar  130  TYR130     -0.0009
     73  CE1        0.5910    2.0540  -42.7880 C.ar  130  TYR130      0.0417
     74  CE2        1.6010    0.9360  -44.6550 C.ar  130  TYR130      0.0417
     75  CZ         1.5840    1.2470  -43.3080 C.ar  130  TYR130      0.1957
     76  OH         2.5730    0.7490  -42.4970 O.3   130  TYR130     -0.2866
     77  N          5.5740    6.7780  -40.4200 N.3   199  GLU199     -0.1231
     78  CA         5.6310    6.1360  -39.1070 C.3   199  GLU199      0.1699
     79  C          6.8300    5.2020  -39.0400 C.2   199  GLU199      0.2592
     80  O          7.1890    4.5810  -40.0460 O.2   199  GLU199     -0.2718
     81  CB         4.3340    5.3740  -38.8360 C.3   199  GLU199      0.0402
     82  CG         4.1920    4.8270  -37.4250 C.3   199  GLU199      0.1161
     83  CD         4.7680    3.4310  -37.2810 C.2   199  GLU199      0.3649
     84  OE1        5.0770    2.8030  -38.3200 O.co2 199  GLU199     -0.2457
     85  OE2        4.9190    2.9650  -36.1290 O.co2 199  GLU199     -0.2457
     86  N          7.4490    5.1170  -37.8620 N.am  200  SER200     -0.1952
     87  CA         8.6540    4.3000  -37.6450 C.3   200  SER200      0.1924
     88  C          9.7510    4.6230  -38.6650 C.2   200  SER200      0.2314
     89  O         10.1950    5.7680  -38.7360 O.2   200  SER200     -0.2863
     90  CB         8.3230    2.8060  -37.6590 C.3   200  SER200      0.2116
     91  OG         9.2270    2.1010  -36.8240 O.3   200  SER200     -0.2180
     92  N         19.2250  -11.3090  -42.1390 N.3   277  TRP277     -0.1241
     93  CA        19.3110  -11.1610  -40.6910 C.3   277  TRP277      0.1605
     94  C         20.6150  -11.6770  -40.0690 C.2   277  TRP277      0.2264
     95  O         20.8420  -11.5140  -38.8690 O.2   277  TRP277     -0.2867
     96  CB        18.0910  -11.8120  -40.0310 C.3   277  TRP277      0.0550
     97  CG        16.7970  -11.1220  -40.3930 C.ar  277  TRP277      0.0003
     98  CD1       15.8580  -11.5460  -41.2980 C.ar  277  TRP277      0.0946
     99  CD2       16.3120   -9.8760  -39.8650 C.ar  277  TRP277      0.0152
    100  NE1       14.8210  -10.6450  -41.3560 N.ar  277  TRP277     -0.2442
    101  CE2       15.0750   -9.6150  -40.4940 C.ar  277  TRP277      0.0810
    102  CE3       16.8030   -8.9650  -38.9230 C.ar  277  TRP277      0.0012
    103  CZ2       14.3220   -8.4690  -40.2010 C.ar  277  TRP277      0.0191
    104  CZ3       16.0540   -7.8320  -38.6390 C.ar  277  TRP277      0.0001
    105  CH2       14.8300   -7.5940  -39.2770 C.ar  277  TRP277      0.0015
    106  N         17.2530   -6.5510  -30.6700 N.3   285  ILE285     -0.1231
    107  CA        15.9350   -6.2510  -31.2040 C.3   285  ILE285      0.1692
    108  C         15.9330   -4.7720  -31.5440 C.2   285  ILE285      0.2592
    109  O         16.7870   -4.0260  -31.0640 O.2   285  ILE285     -0.2718
    110  CB        14.8120   -6.5540  -30.2010 C.3   285  ILE285      0.0266
    111  CG1       15.0860   -5.8420  -28.8800 C.3   285  ILE285      0.0019
    112  CG2       14.6410   -8.0680  -30.0110 C.3   285  ILE285      0.0020
    113  CD1       13.9950   -6.0290  -27.8530 C.3   285  ILE285      0.0001
    114  N         14.9780   -4.3570  -32.3700 N.am  286  PHE286     -0.1962
    115  CA        14.9400   -2.9950  -32.8900 C.3   286  PHE286      0.1771
    116  C         16.2560   -2.6270  -33.5930 C.2   286  PHE286      0.2619
    117  O         16.7120   -1.4800  -33.5250 O.2   286  PHE286     -0.2715
    118  CB        14.5930   -1.9920  -31.7790 C.3   286  PHE286      0.0574
    119  CG        13.6660   -0.8810  -32.2250 C.ar  286  PHE286     -0.0200
    120  CD1       13.8220   -0.2720  -33.4700 C.ar  286  PHE286     -0.0042
    121  CD2       12.6320   -0.4530  -31.4020 C.ar  286  PHE286     -0.0042
    122  CE1       12.9650    0.7560  -33.8780 C.ar  286  PHE286     -0.0003
    123  CE2       11.7740    0.5760  -31.7980 C.ar  286  PHE286     -0.0003
    124  CZ        11.9410    1.1840  -33.0420 C.ar  286  PHE286     -0.0000
    125  N         16.8670   -3.6110  -34.2550 N.am  287  ARG287     -0.1963
    126  CA        17.9930   -3.3530  -35.1450 C.3   287  ARG287      0.1729
    127  C         17.7530   -3.9870  -36.5170 C.2   287  ARG287      0.2616
    128  O         17.2300   -5.1000  -36.6250 O.2   287  ARG287     -0.2715
    129  CB        19.3140   -3.8500  -34.5620 C.3   287  ARG287      0.0348
    130  CG        19.7740   -3.1330  -33.2980 C.3   287  ARG287      0.0492
    131  CD        20.1660   -1.6880  -33.5260 C.3   287  ARG287      0.2205
    132  NE        20.6480   -1.0780  -32.2850 N.pl3 287  ARG287     -0.0865
    133  CZ        19.8680   -0.4680  -31.3950 C.cat 287  ARG287      0.5346
    134  NH1       18.5610   -0.3770  -31.6110 N.pl3 287  ARG287      0.1354
    135  NH2       20.3950    0.0510  -30.2900 N.pl3 287  ARG287      0.1354
    136  N         18.1540   -3.2750  -37.5640 N.am  288  PHE288     -0.1974
    137  CA        17.8700   -3.7050  -38.9320 C.3   288  PHE288      0.1639
    138  C         19.1430   -3.7190  -39.7640 C.2   288  PHE288      0.2290
    139  O         19.9610   -2.7960  -39.6730 O.2   288  PHE288     -0.2864
    140  CB        16.7760   -2.8130  -39.5340 C.3   288  PHE288      0.0560
    141  CG        15.6230   -2.5780  -38.5800 C.ar  288  PHE288     -0.0200
    142  CD1       14.7870   -3.6330  -38.2110 C.ar  288  PHE288     -0.0042
    143  CD2       15.4150   -1.3290  -37.9970 C.ar  288  PHE288     -0.0042
    144  CE1       13.7370   -3.4360  -37.3010 C.ar  288  PHE288     -0.0003
    145  CE2       14.3590   -1.1220  -37.0790 C.ar  288  PHE288     -0.0003
    146  CZ        13.5240   -2.1780  -36.7390 C.ar  288  PHE288     -0.0000
    147  N          6.0060   -4.2920  -28.5720 N.3   328  TYR328     -0.1227
    148  CA         5.9390   -5.1110  -29.7870 C.3   328  TYR328      0.1736
    149  C          7.2200   -5.9030  -30.0390 C.2   328  TYR328      0.2595
    150  O          7.1830   -7.0250  -30.5380 O.2   328  TYR328     -0.2718
    151  CB         5.6510   -4.2060  -30.9940 C.3   328  TYR328      0.0548
    152  CG         5.1370   -4.8960  -32.2400 C.ar  328  TYR328     -0.0200
    153  CD1        5.9590   -5.7100  -33.0110 C.ar  328  TYR328     -0.0009
    154  CD2        3.8350   -4.7060  -32.6600 C.ar  328  TYR328     -0.0009
    155  CE1        5.4830   -6.3320  -34.1600 C.ar  328  TYR328      0.0417
    156  CE2        3.3510   -5.3160  -33.8070 C.ar  328  TYR328      0.0417
    157  CZ         4.1760   -6.1260  -34.5530 C.ar  328  TYR328      0.1957
    158  OH         3.6860   -6.7310  -35.6850 O.3   328  TYR328     -0.2866
    159  N          8.3580   -5.3130  -29.7010 N.am  329  PHE329     -0.1976
    160  CA         9.6450   -5.8740  -30.1020 C.3   329  PHE329      0.1639
    161  C         10.1140   -7.0110  -29.2030 C.2   329  PHE329      0.2290
    162  O         10.9490   -7.8300  -29.6090 O.2   329  PHE329     -0.2864
    163  CB        10.6920   -4.7620  -30.1650 C.3   329  PHE329      0.0560
    164  CG        10.4000   -3.7340  -31.2190 C.ar  329  PHE329     -0.0200
    165  CD1        9.5820   -2.6400  -30.9440 C.ar  329  PHE329     -0.0042
    166  CD2       10.9230   -3.8710  -32.4970 C.ar  329  PHE329     -0.0042
    167  CE1        9.3000   -1.6960  -31.9250 C.ar  329  PHE329     -0.0003
    168  CE2       10.6490   -2.9280  -33.4820 C.ar  329  PHE329     -0.0003
    169  CZ         9.8360   -1.8410  -33.1920 C.ar  329  PHE329     -0.0000
    170  N          9.7880  -10.7420  -30.1250 N.3   332  TYR332     -0.1241
    171  CA        10.6080  -11.1470  -31.2700 C.3   332  TYR332      0.1605
    172  C         12.0500  -11.4300  -30.8690 C.2   332  TYR332      0.2264
    173  O         12.9750  -11.1000  -31.6060 O.2   332  TYR332     -0.2867
    174  CB        10.5960  -10.0720  -32.3650 C.3   332  TYR332      0.0534
    175  CG         9.3760  -10.0920  -33.2570 C.ar  332  TYR332     -0.0201
    176  CD1        8.2180   -9.4170  -32.8980 C.ar  332  TYR332     -0.0009
    177  CD2        9.3880  -10.7760  -34.4680 C.ar  332  TYR332     -0.0009
    178  CE1        7.1000   -9.4320  -33.7120 C.ar  332  TYR332      0.0417
    179  CE2        8.2750  -10.7970  -35.2890 C.ar  332  TYR332      0.0417
    180  CZ         7.1360  -10.1260  -34.9060 C.ar  332  TYR332      0.1957
    181  OH         6.0270  -10.1470  -35.7180 O.3   332  TYR332     -0.2866
    182  N          3.7020    0.1190  -30.7030 N.3   438  HIS438     -0.1226
    183  CA         4.2670    0.7300  -31.9040 C.3   438  HIS438      0.1752
    184  C          3.3780    0.4300  -33.1200 C.2   438  HIS438      0.2596
    185  O          3.1070   -0.7300  -33.4250 O.2   438  HIS438     -0.2718
    186  CB         5.6660    0.1340  -32.1030 C.3   438  HIS438      0.0759
    187  CG         6.5140    0.8380  -33.1030 C.ar  438  HIS438      0.0818
    188  ND1        6.9020    2.1600  -32.9740 N.ar  438  HIS438     -0.2268
    189  CD2        7.1070    0.3960  -34.2480 C.ar  438  HIS438      0.1154
    190  CE1        7.6740    2.4990  -33.9870 C.ar  438  HIS438      0.1986
    191  NE2        7.8140    1.4400  -34.7720 N.ar  438  HIS438     -0.2212
    192  N          2.8990    1.4700  -33.7970 N.am  439  GLY439     -0.1957
    193  CA         2.1310    1.2830  -35.0180 C.3   439  GLY439      0.1869
    194  C          0.6200    1.3930  -34.8880 C.2   439  GLY439      0.2309
    195  O         -0.0830    1.4550  -35.8950 O.2   439  GLY439     -0.2863
@<TRIPOS>BOND
     1    57    58    1
     2    68    67    2
     3    60    59    2
     4    58    59    1
     5    58    61    1
     6     1     2    1
     7    67    66    1
     8    64    62    1
     9    69    66    1
    10    69    70    1
    11     2     3    1
    12     2     5    1
    13    62    61    1
    14    62    63    1
    15    42    41    2
    16    72    70   ar
    17    72    74   ar
    18    53    52    1
    19    53    54    2
    20     3     4    2
    21    66    65    1
    22    52    51    1
    23    52    55    1
    24    41    51   am
    25    41    40    1
    26    70    71   ar
    27    74    75   ar
    28     5     6    1
    29    40    39    1
    30    40    43    1
    31    55    56    1
    32    16    15    2
    33    71    73   ar
    34    43    44    1
    35    30    29    2
    36     6     7   ar
    37     6     8   ar
    38    75    73   ar
    39    75    76    1
    40     7     9   ar
    41    15    14    1
    42    27    28    1
    43    46    44   ar
    44    46    48   ar
    45    44    45   ar
    46    29    28    1
    47    29    31   am
    48     9    11   ar
    49     8    10   ar
    50    92    93    1
    51    34    33    2
    52    14    13    1
    53    14    17    1
    54    48    49   ar
    55    32    33    1
    56    32    31    1
    57    37    38    2
    58    37    36    1
    59    33    35   am
    60   100    98   ar
    61   100   101   ar
    62    98    97   ar
    63    45    47   ar
    64    11    10   ar
    65    11    12    1
    66    17    18    1
    67    93    94    1
    68    93    96    1
    69    35    36    1
    70   101   103   ar
    71   101    99   ar
    72    49    47   ar
    73    49    50    1
    74    77    78    1
    75    97    96    1
    76    97    99   ar
    77    23    25   ar
    78    23    20   ar
    79   103   105   ar
    80    94    95    2
    81    80    79    2
    82    99   102   ar
    83    25    26   ar
    84   138   139    2
    85   138   137    1
    86   140   137    1
    87   140   141    1
    88    18    20   ar
    89    18    19   ar
    90    20    22   ar
    91   105   104   ar
    92    78    79    1
    93    78    81    1
    94    79    86   am
    95   137   136    1
    96   102   104   ar
    97    81    82    1
    98    89    88    2
    99    88    87    1
   100   141   142   ar
   101   141   143   ar
   102    26    24   ar
   103    84    83   ar
   104    19    21   ar
   105   142   144   ar
   106    22    24   ar
   107    22    21   ar
   108   143   145   ar
   109    86    87    1
   110    90    87    1
   111    90    91    1
   112   136   127   am
   113    82    83    1
   114   144   146   ar
   115    83    85   ar
   116   145   146   ar
   117   128   127    2
   118   127   126    1
   119   195   194    2
   120   181   180    1
   121   158   157    1
   122   179   180   ar
   123   179   177   ar
   124   126   129    1
   125   126   125    1
   126   193   194    1
   127   193   192    1
   128   180   178   ar
   129   191   189   ar
   130   191   190   ar
   131   129   130    1
   132   157   155   ar
   133   157   156   ar
   134   177   175   ar
   135   125   116   am
   136   189   187   ar
   137   155   153   ar
   138   190   188   ar
   139   122   120   ar
   140   122   124   ar
   141   156   154   ar
   142   192   184   am
   143   178   176   ar
   144   116   117    2
   145   116   115    1
   146   131   130    1
   147   131   132    1
   148   168   169   ar
   149   168   166   ar
   150   120   119   ar
   151   185   184    2
   152   175   176   ar
   153   175   174    1
   154   169   167   ar
   155   184   183    1
   156   187   188   ar
   157   187   186    1
   158   124   123   ar
   159   153   152   ar
   160   115   114    1
   161   115   118    1
   162   154   152   ar
   163   166   164   ar
   164   114   108   am
   165   174   171    1
   166   132   133    2
   167   152   151    1
   168   119   118    1
   169   119   121   ar
   170   186   183    1
   171   167   165   ar
   172   183   182    1
   173   123   121   ar
   174   134   133    1
   175   173   172    2
   176   108   107    1
   177   108   109    2
   178   133   135    1
   179   171   172    1
   180   171   170    1
   181   164   165   ar
   182   164   163    1
   183   107   106    1
   184   107   110    1
   185   151   148    1
   186   150   149    2
   187   110   112    1
   188   110   111    1
   189   163   160    1
   190   160   159    1
   191   160   161    1
   192   149   148    1
   193   149   159   am
   194   148   147    1
   195   162   161    2
   196   111   113    1
