@<TRIPOS>MOLECULE
tmp/4b83B05.pdb
 102 101 0 0 0
SMALL
GASTEIGER

@<TRIPOS>ATOM
      1  N         18.7260    2.2730  -13.3680 N.3   372  HIS372     -0.1226
      2  CA        17.7950    3.3710  -13.6250 C.3   372  HIS372      0.1752
      3  C         16.3370    2.9120  -13.6680 C.2   372  HIS372      0.2596
      4  O         15.4590    3.5520  -13.0940 O.2   372  HIS372     -0.2718
      5  CB        18.1450    4.0650  -14.9480 C.3   372  HIS372      0.0759
      6  CG        17.2870    5.2540  -15.2470 C.ar  372  HIS372      0.0818
      7  ND1       17.5780    6.5180  -14.7790 N.ar  372  HIS372     -0.2268
      8  CD2       16.1380    5.3640  -15.9570 C.ar  372  HIS372      0.1154
      9  CE1       16.6450    7.3590  -15.1920 C.ar  372  HIS372      0.1986
     10  NE2       15.7590    6.6860  -15.9010 N.ar  372  HIS372     -0.2212
     11  N         16.0890    1.7970  -14.3470 N.am  373  TYR373     -0.1962
     12  CA        14.7250    1.3370  -14.6290 C.3   373  TYR373      0.1771
     13  C         14.1270    0.4020  -13.5800 C.2   373  TYR373      0.2620
     14  O         12.9090    0.1850  -13.5440 O.2   373  TYR373     -0.2715
     15  CB        14.6520    0.6620  -16.0070 C.3   373  TYR373      0.0574
     16  CG        14.5570    1.6360  -17.1530 C.ar  373  TYR373     -0.0198
     17  CD1       15.6920    2.2550  -17.6530 C.ar  373  TYR373     -0.0009
     18  CD2       13.3340    1.9320  -17.7420 C.ar  373  TYR373     -0.0009
     19  CE1       15.6180    3.1420  -18.7090 C.ar  373  TYR373      0.0417
     20  CE2       13.2470    2.8220  -18.8040 C.ar  373  TYR373      0.0417
     21  CZ        14.3970    3.4230  -19.2830 C.ar  373  TYR373      0.1957
     22  OH        14.3390    4.3150  -20.3280 O.3   373  TYR373     -0.2866
     23  N         14.9830   -0.1820  -12.7550 N.am  374  THR374     -0.1937
     24  CA        14.5060   -0.9440  -11.6070 C.3   374  THR374      0.2028
     25  C         13.7480   -0.0320  -10.6520 C.2   374  THR374      0.2642
     26  O         14.2340    1.0500  -10.3080 O.2   374  THR374     -0.2714
     27  CB        15.6760   -1.5830  -10.8650 C.3   374  THR374      0.1808
     28  OG1       16.2590   -2.5850  -11.7090 O.3   374  THR374     -0.2208
     29  CG2       15.2190   -2.1990   -9.5230 C.3   374  THR374      0.0379
     30  N         12.5490   -0.4560  -10.2560 N.am  375  ASP375     -0.1957
     31  CA        11.8320    0.1810   -9.1530 C.3   375  ASP375      0.1840
     32  C         12.3720   -0.4400   -7.8640 C.2   375  ASP375      0.2622
     33  O         12.1260   -1.6130   -7.5850 O.2   375  ASP375     -0.2715
     34  CB        10.3210   -0.0600   -9.2860 C.3   375  ASP375      0.1450
     35  CG         9.4980    0.7050   -8.2490 C.2   375  ASP375      0.3671
     36  OD1       10.0000    0.9750   -7.1350 O.co2 375  ASP375     -0.2456
     37  OD2        8.3280    1.0280   -8.5470 O.co2 375  ASP375     -0.2456
     38  N         13.1120    0.3390   -7.0820 N.am  376  TRP376     -0.1960
     39  CA        13.7780   -0.1980   -5.8930 C.3   376  TRP376      0.1771
     40  C         12.8600   -0.4150   -4.6880 C.2   376  TRP376      0.2619
     41  O         13.2860   -0.9550   -3.6630 O.2   376  TRP376     -0.2715
     42  CB        15.0120    0.6480   -5.5500 C.3   376  TRP376      0.0590
     43  CG        16.0310    0.5060   -6.6260 C.ar  376  TRP376      0.0006
     44  CD1       16.2750    1.3730   -7.6590 C.ar  376  TRP376      0.0946
     45  CD2       16.8990   -0.6170   -6.8280 C.ar  376  TRP376      0.0152
     46  NE1       17.2690    0.8730   -8.4590 N.ar  376  TRP376     -0.2442
     47  CE2       17.6620   -0.3460   -7.9820 C.ar  376  TRP376      0.0810
     48  CE3       17.1110   -1.8130   -6.1380 C.ar  376  TRP376      0.0012
     49  CZ2       18.6280   -1.2370   -8.4580 C.ar  376  TRP376      0.0191
     50  CZ3       18.0660   -2.6930   -6.6130 C.ar  376  TRP376      0.0001
     51  CH2       18.8100   -2.4060   -7.7640 C.ar  376  TRP376      0.0015
     52  N         11.6000   -0.0060   -4.8220 N.am  377  LEU377     -0.1977
     53  CA        10.5750   -0.3360   -3.8280 C.3   377  LEU377      0.1596
     54  C         10.1010   -1.7700   -4.0600 C.2   377  LEU377      0.2287
     55  O          9.7570   -2.4800   -3.1150 O.2   377  LEU377     -0.2864
     56  CB         9.3940    0.6390   -3.9140 C.3   377  LEU377      0.0297
     57  CG         9.7220    2.1320   -3.8020 C.3   377  LEU377      0.0022
     58  CD1        8.5730    3.0180   -4.2840 C.3   377  LEU377      0.0001
     59  CD2       10.0920    2.4890   -2.3730 C.3   377  LEU377      0.0001
     60  N          6.4990   -5.3030  -12.9000 N.3   384  HIS384     -0.1241
     61  CA         7.3220   -4.1100  -13.0620 C.3   384  HIS384      0.1621
     62  C          8.4780   -4.3740  -14.0190 C.2   384  HIS384      0.2264
     63  O          8.7700   -3.5750  -14.9040 O.2   384  HIS384     -0.2867
     64  CB         7.8940   -3.6680  -11.7090 C.3   384  HIS384      0.0745
     65  CG         6.9610   -2.8530  -10.8860 C.ar  384  HIS384      0.0817
     66  ND1        5.9690   -3.4120  -10.0860 N.ar  384  HIS384     -0.2268
     67  CD2        6.8610   -1.5170  -10.6960 C.ar  384  HIS384      0.1154
     68  CE1        5.3150   -2.4600   -9.4700 C.ar  384  HIS384      0.1986
     69  NE2        5.8350   -1.2890   -9.8190 N.ar  384  HIS384     -0.2212
     70  N          7.1500   -4.4350  -17.5910 N.3   387  ASP387     -0.1225
     71  CA         6.8490   -3.0800  -18.0560 C.3   387  ASP387      0.1805
     72  C          8.1060   -2.2190  -18.2400 C.2   387  ASP387      0.2597
     73  O          8.1500   -1.3570  -19.1280 O.2   387  ASP387     -0.2718
     74  CB         5.8580   -2.3870  -17.1010 C.3   387  ASP387      0.1424
     75  CG         4.4620   -3.0070  -17.1400 C.2   387  ASP387      0.3668
     76  OD1        4.1670   -3.7910  -18.0710 O.co2 387  ASP387     -0.2456
     77  OD2        3.6530   -2.6950  -16.2410 O.co2 387  ASP387     -0.2456
     78  N          9.1190   -2.4570  -17.4060 N.am  388  ALA388     -0.1979
     79  CA        10.3960   -1.7440  -17.5190 C.3   388  ALA388      0.1597
     80  C         11.1790   -2.1710  -18.7610 C.2   388  ALA388      0.2287
     81  O         11.7820   -1.3370  -19.4440 O.2   388  ALA388     -0.2864
     82  CB        11.2520   -1.9490  -16.2730 C.3   388  ALA388      0.0319
     83  N          9.7430   -0.3870  -21.5400 N.3   391  ALA391     -0.1245
     84  CA        10.1340    1.0210  -21.4370 C.3   391  ALA391      0.1562
     85  C         11.5770    1.2770  -21.8810 C.2   391  ALA391      0.2260
     86  O         11.8540    2.2710  -22.5540 O.2   391  ALA391     -0.2867
     87  CB         9.9300    1.5260  -20.0270 C.3   391  ALA391      0.0290
     88  N         12.0210    3.7360  -24.9170 N.3   395  ASP395     -0.1239
     89  CA        12.6940    5.0030  -24.6560 C.3   395  ASP395      0.1674
     90  C         13.9820    5.1180  -25.4650 C.2   395  ASP395      0.2266
     91  O         14.2600    6.1480  -26.0710 O.2   395  ASP395     -0.2867
     92  CB        13.0140    5.1600  -23.1660 C.3   395  ASP395      0.1410
     93  CG        11.7710    5.1860  -22.2910 C.2   395  ASP395      0.3668
     94  OD1       10.6520    5.3480  -22.8330 O.co2 395  ASP395     -0.2456
     95  OD2       11.9280    5.0550  -21.0550 O.co2 395  ASP395     -0.2456
     96  N         14.3260   10.7600  -17.5330 N.3   519  THR519     -0.1218
     97  CA        14.8060    9.5410  -18.1920 C.3   519  THR519      0.1862
     98  C         15.5210    9.8340  -19.5270 C.2   519  THR519      0.2287
     99  O         16.5360    9.2040  -19.8490 O.2   519  THR519     -0.2866
    100  CB        13.6610    8.4940  -18.3610 C.3   519  THR519      0.1770
    101  OG1       13.3300    7.9220  -17.0800 O.3   519  THR519     -0.2211
    102  CG2       14.0680    7.3860  -19.3120 C.3   519  THR519      0.0375
@<TRIPOS>BOND
     1    91    90    2
     2    90    89    1
     3    88    89    1
     4    89    92    1
     5    92    93    1
     6    94    93   ar
     7    86    85    2
     8    93    95   ar
     9    85    84    1
    10    83    84    1
    11    84    87    1
    12    22    21    1
    13    99    98    2
    14    98    97    1
    15    81    80    2
    16   102   100    1
    17    21    20   ar
    18    21    19   ar
    19    73    72    2
    20    20    18   ar
    21    80    79    1
    22    19    17   ar
    23   100    97    1
    24   100   101    1
    25    72    71    1
    26    72    78   am
    27    97    96    1
    28    76    75   ar
    29    71    70    1
    30    71    74    1
    31    18    16   ar
    32    17    16   ar
    33    79    78    1
    34    79    82    1
    35    16    15    1
    36    75    74    1
    37    75    77   ar
    38    15    12    1
    39     8    10   ar
    40     8     6   ar
    41    10     9   ar
    42     6     5    1
    43     6     7   ar
    44     9     7   ar
    45     5     2    1
    46    63    62    2
    47    12    11    1
    48    12    13    1
    49    11     3   am
    50    62    61    1
    51     3     2    1
    52     3     4    2
    53     2     1    1
    54    13    14    2
    55    13    23   am
    56    61    60    1
    57    61    64    1
    58    23    24    1
    59    64    65    1
    60    28    27    1
    61    24    27    1
    62    24    25    1
    63    65    67   ar
    64    65    66   ar
    65    27    29    1
    66    67    69   ar
    67    25    26    2
    68    25    30   am
    69    30    31    1
    70    66    68   ar
    71    69    68   ar
    72    34    31    1
    73    34    35    1
    74    31    32    1
    75    37    35   ar
    76    46    47   ar
    77    46    44   ar
    78    49    47   ar
    79    49    51   ar
    80    35    36   ar
    81    47    45   ar
    82    32    33    2
    83    32    38   am
    84    51    50   ar
    85    44    43   ar
    86    38    39    1
    87    45    43   ar
    88    45    48   ar
    89    43    42    1
    90    50    48   ar
    91    39    42    1
    92    39    40    1
    93    52    40   am
    94    52    53    1
    95    40    41    2
    96    58    57    1
    97    54    53    1
    98    54    55    2
    99    56    53    1
   100    56    57    1
   101    57    59    1
