@<TRIPOS>MOLECULE
tmp/4b84B02.pdb
 191 192 0 0 0
SMALL
GASTEIGER

@<TRIPOS>ATOM
      1  N         11.5190   -9.5460  -46.6450 N.3    69  TYR69      -0.1241
      2  CA        11.1930  -10.5530  -45.6620 C.3    69  TYR69       0.1605
      3  C          9.7280  -10.4490  -45.2140 C.2    69  TYR69       0.2264
      4  O          9.1840   -9.3470  -45.0000 O.2    69  TYR69      -0.2867
      5  CB        12.1160  -10.3590  -44.4710 C.3    69  TYR69       0.0534
      6  CG        11.8000  -11.2200  -43.2880 C.ar   69  TYR69      -0.0201
      7  CD1       12.1630  -12.5640  -43.2680 C.ar   69  TYR69      -0.0009
      8  CD2       11.1540  -10.6920  -42.1790 C.ar   69  TYR69      -0.0009
      9  CE1       11.8850  -13.3560  -42.1810 C.ar   69  TYR69       0.0417
     10  CE2       10.8700  -11.4790  -41.0830 C.ar   69  TYR69       0.0417
     11  CZ        11.2430  -12.8100  -41.0860 C.ar   69  TYR69       0.1957
     12  OH        10.9660  -13.6010  -39.9950 O.3    69  TYR69      -0.2866
     13  N          7.0550  -11.7520  -42.2190 N.3    71  ASP71      -0.1239
     14  CA         7.0330  -12.2180  -40.8350 C.3    71  ASP71       0.1674
     15  C          6.1670  -13.4640  -40.6530 C.2    71  ASP71       0.2266
     16  O          5.1370  -13.6020  -41.3110 O.2    71  ASP71      -0.2867
     17  CB         6.5350  -11.1050  -39.9220 C.3    71  ASP71       0.1410
     18  CG         6.6330  -11.4760  -38.4820 C.2    71  ASP71       0.3668
     19  OD1        7.6210  -12.1560  -38.1300 O.co2  71  ASP71      -0.2456
     20  OD2        5.7220  -11.1080  -37.7150 O.co2  71  ASP71      -0.2456
     21  N          0.4830   -5.9860  -41.0850 N.3    83  TRP83      -0.1241
     22  CA         1.7190   -5.3890  -41.5680 C.3    83  TRP83       0.1605
     23  C          2.3870   -6.1820  -42.6950 C.2    83  TRP83       0.2264
     24  O          3.2670   -5.6710  -43.3850 O.2    83  TRP83      -0.2867
     25  CB         2.6920   -5.2600  -40.4130 C.3    83  TRP83       0.0550
     26  CG         2.0950   -4.5990  -39.1990 C.ar   83  TRP83       0.0003
     27  CD1        1.7970   -5.1930  -38.0010 C.ar   83  TRP83       0.0946
     28  CD2        1.7210   -3.2190  -39.0650 C.ar   83  TRP83       0.0152
     29  NE1        1.2670   -4.2660  -37.1340 N.ar   83  TRP83      -0.2442
     30  CE2        1.2080   -3.0490  -37.7590 C.ar   83  TRP83       0.0810
     31  CE3        1.7620   -2.1120  -39.9250 C.ar   83  TRP83       0.0012
     32  CZ2        0.7520   -1.8060  -37.2830 C.ar   83  TRP83       0.0191
     33  CZ3        1.3070   -0.8660  -39.4460 C.ar   83  TRP83       0.0001
     34  CH2        0.8200   -0.7310  -38.1340 C.ar   83  TRP83       0.0015
     35  N          6.6350    2.6050  -42.7670 N.3   117  GLY117     -0.1210
     36  CA         7.7140    2.0490  -41.9730 C.3   117  GLY117      0.1956
     37  C          7.8080    0.5410  -42.1480 C.2   117  GLY117      0.2612
     38  O          7.2660   -0.0210  -43.1050 O.2   117  GLY117     -0.2717
     39  N          8.4940   -0.1240  -41.2240 N.am  118  GLY118     -0.1942
     40  CA         8.8680   -1.5110  -41.4290 C.3   118  GLY118      0.2014
     41  C         10.3740   -1.6890  -41.2940 C.2   118  GLY118      0.2639
     42  O         10.9540   -2.6120  -41.8850 O.2   118  GLY118     -0.2714
     43  N         11.0020   -0.7960  -40.5190 N.am  119  GLY119     -0.1954
     44  CA        12.4280   -0.8600  -40.2320 C.3   119  GLY119      0.1869
     45  C         13.3520   -0.9150  -41.4350 C.2   119  GLY119      0.2309
     46  O         14.4460   -1.4930  -41.3740 O.2   119  GLY119     -0.2863
     47  N         13.0840   -2.6320  -43.9280 N.3   121  TYR121     -0.1227
     48  CA        13.2340   -3.9920  -44.4280 C.3   121  TYR121      0.1736
     49  C         11.9010   -4.5660  -44.8960 C.2   121  TYR121      0.2596
     50  O         11.8450   -5.6030  -45.5600 O.2   121  TYR121     -0.2718
     51  CB        13.8350   -4.8720  -43.3430 C.3   121  TYR121      0.0548
     52  CG        12.8270   -5.2810  -42.3080 C.ar  121  TYR121     -0.0200
     53  CD1       11.9290   -6.3160  -42.5590 C.ar  121  TYR121     -0.0009
     54  CD2       12.7510   -4.6290  -41.0920 C.ar  121  TYR121     -0.0009
     55  CE1       10.9920   -6.6850  -41.6290 C.ar  121  TYR121      0.0417
     56  CE2       11.8170   -5.0020  -40.1420 C.ar  121  TYR121      0.0417
     57  CZ        10.9420   -6.0360  -40.4160 C.ar  121  TYR121      0.1957
     58  OH        10.0060   -6.4000  -39.4780 O.3   121  TYR121     -0.2866
     59  N         10.8220   -3.8880  -44.5400 N.am  122  SER122     -0.1952
     60  CA         9.4990   -4.2920  -44.9770 C.3   122  SER122      0.1924
     61  C          8.6100   -3.0560  -45.2150 C.2   122  SER122      0.2314
     62  O          9.0710   -1.9220  -45.0840 O.2   122  SER122     -0.2863
     63  CB         8.8810   -5.2390  -43.9590 C.3   122  SER122      0.2116
     64  OG         9.0010   -4.7100  -42.6440 O.3   122  SER122     -0.2180
     65  N         -3.2630    1.9440  -44.4320 N.3   130  TYR130     -0.1241
     66  CA        -2.7210    3.1290  -45.0730 C.3   130  TYR130      0.1605
     67  C         -3.7110    3.6300  -46.0990 C.2   130  TYR130      0.2264
     68  O         -3.3860    4.4540  -46.9520 O.2   130  TYR130     -0.2867
     69  CB        -1.4330    2.7820  -45.7830 C.3   130  TYR130      0.0534
     70  CG        -0.3530    2.2830  -44.8690 C.ar  130  TYR130     -0.0201
     71  CD1       -0.4620    2.4210  -43.4920 C.ar  130  TYR130     -0.0009
     72  CD2        0.7790    1.6660  -45.3840 C.ar  130  TYR130     -0.0009
     73  CE1        0.5370    1.9590  -42.6610 C.ar  130  TYR130      0.0417
     74  CE2        1.7760    1.1900  -44.5650 C.ar  130  TYR130      0.0417
     75  CZ         1.6590    1.3480  -43.2120 C.ar  130  TYR130      0.1957
     76  OH         2.6690    0.8880  -42.4080 O.3   130  TYR130     -0.2866
     77  N          5.7080    6.9310  -40.2510 N.3   199  GLU199     -0.1231
     78  CA         5.9260    6.3100  -38.9490 C.3   199  GLU199      0.1699
     79  C          7.0250    5.2220  -38.9330 C.2   199  GLU199      0.2592
     80  O          7.3310    4.6240  -39.9620 O.2   199  GLU199     -0.2718
     81  CB         4.6130    5.7900  -38.4160 C.3   199  GLU199      0.0402
     82  CG         4.7030    5.1310  -37.0500 C.3   199  GLU199      0.1161
     83  CD         4.9210    3.6320  -37.1540 C.2   199  GLU199      0.3649
     84  OE1        5.0830    3.1400  -38.2940 O.co2 199  GLU199     -0.2457
     85  OE2        4.9370    2.9530  -36.1010 O.co2 199  GLU199     -0.2457
     86  N          7.6180    4.9900  -37.7610 N.am  200  SER200     -0.1952
     87  CA         8.7500    4.0790  -37.6140 C.3   200  SER200      0.1924
     88  C          9.8110    4.4380  -38.6610 C.2   200  SER200      0.2314
     89  O         10.2690    5.5850  -38.6970 O.2   200  SER200     -0.2863
     90  CB         8.3010    2.6210  -37.7310 C.3   200  SER200      0.2116
     91  OG         9.3500    1.7210  -37.4240 O.3   200  SER200     -0.2180
     92  N         19.1650  -11.3210  -42.2650 N.3   278  TRP278     -0.1241
     93  CA        19.2270  -11.1390  -40.8190 C.3   278  TRP278      0.1605
     94  C         20.5510  -11.5800  -40.2140 C.2   278  TRP278      0.2264
     95  O         20.9120  -11.1740  -39.1080 O.2   278  TRP278     -0.2867
     96  CB        18.0820  -11.9010  -40.1510 C.3   278  TRP278      0.0550
     97  CG        16.7400  -11.3110  -40.4410 C.ar  278  TRP278      0.0003
     98  CD1       15.7730  -11.8320  -41.2460 C.ar  278  TRP278      0.0946
     99  CD2       16.2190  -10.0710  -39.9380 C.ar  278  TRP278      0.0152
    100  NE1       14.6790  -11.0010  -41.2680 N.ar  278  TRP278     -0.2442
    101  CE2       14.9290   -9.9130  -40.4760 C.ar  278  TRP278      0.0810
    102  CE3       16.7200   -9.0840  -39.0840 C.ar  278  TRP278      0.0012
    103  CZ2       14.1370   -8.8100  -40.1950 C.ar  278  TRP278      0.0191
    104  CZ3       15.9310   -7.9930  -38.8020 C.ar  278  TRP278      0.0001
    105  CH2       14.6540   -7.8640  -39.3540 C.ar  278  TRP278      0.0015
    106  N         17.3420   -6.5490  -30.5750 N.3   286  ILE286     -0.1231
    107  CA        16.0220   -6.1850  -31.0410 C.3   286  ILE286      0.1692
    108  C         16.0280   -4.7190  -31.4030 C.2   286  ILE286      0.2592
    109  O         16.8660   -3.9580  -30.9400 O.2   286  ILE286     -0.2718
    110  CB        14.9180   -6.4640  -30.0160 C.3   286  ILE286      0.0266
    111  CG1       15.2660   -5.8400  -28.6710 C.3   286  ILE286      0.0019
    112  CG2       14.6550   -7.9660  -29.8940 C.3   286  ILE286      0.0020
    113  CD1       14.1020   -5.8370  -27.6850 C.3   286  ILE286      0.0001
    114  N         15.0750   -4.3320  -32.2350 N.am  287  PHE287     -0.1962
    115  CA        15.0070   -2.9860  -32.7730 C.3   287  PHE287      0.1771
    116  C         16.2820   -2.6440  -33.5050 C.2   287  PHE287      0.2619
    117  O         16.7250   -1.5080  -33.4910 O.2   287  PHE287     -0.2715
    118  CB        14.7100   -1.9650  -31.6840 C.3   287  PHE287      0.0574
    119  CG        13.7400   -0.8860  -32.1110 C.ar  287  PHE287     -0.0200
    120  CD1       13.8480   -0.2920  -33.3460 C.ar  287  PHE287     -0.0042
    121  CD2       12.7050   -0.4880  -31.2750 C.ar  287  PHE287     -0.0042
    122  CE1       12.9610    0.6940  -33.7290 C.ar  287  PHE287     -0.0003
    123  CE2       11.8060    0.5000  -31.6530 C.ar  287  PHE287     -0.0003
    124  CZ        11.9390    1.0930  -32.8710 C.ar  287  PHE287     -0.0000
    125  N         16.8700   -3.6550  -34.1380 N.am  288  ARG288     -0.1963
    126  CA        18.0120   -3.4770  -35.0260 C.3   288  ARG288      0.1729
    127  C         17.6600   -4.0680  -36.3810 C.2   288  ARG288      0.2616
    128  O         17.0020   -5.0990  -36.4470 O.2   288  ARG288     -0.2715
    129  CB        19.2340   -4.1800  -34.4670 C.3   288  ARG288      0.0348
    130  CG        19.8360   -3.5030  -33.2770 C.3   288  ARG288      0.0492
    131  CD        20.1260   -2.0540  -33.5900 C.3   288  ARG288      0.2205
    132  NE        19.5410   -1.1950  -32.5700 N.pl3 288  ARG288     -0.0865
    133  CZ        20.2310   -0.6220  -31.5970 C.cat 288  ARG288      0.5346
    134  NH1       21.5510   -0.7940  -31.5250 N.pl3 288  ARG288      0.1354
    135  NH2       19.5950    0.1260  -30.7100 N.pl3 288  ARG288      0.1354
    136  N         18.1020   -3.4230  -37.4570 N.am  289  PHE289     -0.1974
    137  CA        17.7520   -3.8550  -38.8030 C.3   289  PHE289      0.1639
    138  C         18.9800   -3.8960  -39.6880 C.2   289  PHE289      0.2290
    139  O         19.8410   -3.0400  -39.5620 O.2   289  PHE289     -0.2864
    140  CB        16.6950   -2.9280  -39.3730 C.3   289  PHE289      0.0560
    141  CG        15.5600   -2.7160  -38.4420 C.ar  289  PHE289     -0.0200
    142  CD1       14.7540   -3.7850  -38.0750 C.ar  289  PHE289     -0.0042
    143  CD2       15.3260   -1.4700  -37.8860 C.ar  289  PHE289     -0.0042
    144  CE1       13.7100   -3.6040  -37.1980 C.ar  289  PHE289     -0.0003
    145  CE2       14.2900   -1.2790  -37.0070 C.ar  289  PHE289     -0.0003
    146  CZ        13.4720   -2.3480  -36.6620 C.ar  289  PHE289     -0.0000
    147  N          5.7960   -4.1880  -28.3900 N.3   329  TYR329     -0.1227
    148  CA         5.7480   -4.9590  -29.6210 C.3   329  TYR329      0.1736
    149  C          7.0070   -5.7970  -29.8850 C.2   329  TYR329      0.2595
    150  O          6.9120   -6.9630  -30.2750 O.2   329  TYR329     -0.2718
    151  CB         5.4450   -4.0180  -30.7960 C.3   329  TYR329      0.0548
    152  CG         5.0190   -4.7060  -32.0670 C.ar  329  TYR329     -0.0200
    153  CD1        5.9170   -5.4560  -32.8070 C.ar  329  TYR329     -0.0009
    154  CD2        3.7170   -4.6050  -32.5330 C.ar  329  TYR329     -0.0009
    155  CE1        5.5290   -6.0920  -33.9840 C.ar  329  TYR329      0.0417
    156  CE2        3.3170   -5.2390  -33.7140 C.ar  329  TYR329      0.0417
    157  CZ         4.2310   -5.9840  -34.4370 C.ar  329  TYR329      0.1957
    158  OH         3.8580   -6.6150  -35.6140 O.3   329  TYR329     -0.2866
    159  N          8.1740   -5.2230  -29.6320 N.am  330  PHE330     -0.1976
    160  CA         9.4520   -5.8430  -30.0120 C.3   330  PHE330      0.1639
    161  C          9.8900   -6.9910  -29.1410 C.2   330  PHE330      0.2290
    162  O         10.6260   -7.8750  -29.5900 O.2   330  PHE330     -0.2864
    163  CB        10.5620   -4.7980  -29.9920 C.3   330  PHE330      0.0560
    164  CG        10.3520   -3.7230  -30.9790 C.ar  330  PHE330     -0.0200
    165  CD1       10.8050   -3.8710  -32.2800 C.ar  330  PHE330     -0.0042
    166  CD2        9.6450   -2.5800  -30.6320 C.ar  330  PHE330     -0.0042
    167  CE1       10.5860   -2.8790  -33.2130 C.ar  330  PHE330     -0.0003
    168  CE2        9.4230   -1.5830  -31.5540 C.ar  330  PHE330     -0.0003
    169  CZ         9.8930   -1.7320  -32.8490 C.ar  330  PHE330     -0.0000
    170  N          9.5980  -10.7440  -29.8230 N.3   333  TYR333     -0.1241
    171  CA        10.3730  -11.2030  -30.9640 C.3   333  TYR333      0.1605
    172  C         11.7790  -11.6390  -30.5780 C.2   333  TYR333      0.2264
    173  O         12.7540  -11.2650  -31.2230 O.2   333  TYR333     -0.2867
    174  CB        10.3990  -10.1490  -32.0780 C.3   333  TYR333      0.0534
    175  CG         9.1320  -10.0950  -32.9390 C.ar  333  TYR333     -0.0201
    176  CD1        8.9520  -10.9810  -34.0010 C.ar  333  TYR333     -0.0009
    177  CD2        8.1280   -9.1410  -32.7040 C.ar  333  TYR333     -0.0009
    178  CE1        7.8120  -10.9350  -34.7900 C.ar  333  TYR333      0.0417
    179  CE2        6.9790   -9.0890  -33.4930 C.ar  333  TYR333      0.0417
    180  CZ         6.8320   -9.9910  -34.5350 C.ar  333  TYR333      0.1957
    181  OH         5.7100   -9.9640  -35.3310 O.3   333  TYR333     -0.2866
    182  N          3.9070   -0.0090  -30.6410 N.3   439  HIS439     -0.1241
    183  CA         4.5130    0.6750  -31.7770 C.3   439  HIS439      0.1621
    184  C          3.6700    0.4800  -33.0440 C.2   439  HIS439      0.2264
    185  O          3.5820   -0.6280  -33.5850 O.2   439  HIS439     -0.2867
    186  CB         5.9380    0.1480  -31.9620 C.3   439  HIS439      0.0745
    187  CG         6.7460    0.8570  -33.0090 C.ar  439  HIS439      0.0817
    188  ND1        7.0810    2.1910  -32.9220 N.ar  439  HIS439     -0.2268
    189  CD2        7.3270    0.3990  -34.1450 C.ar  439  HIS439      0.1154
    190  CE1        7.8150    2.5300  -33.9660 C.ar  439  HIS439      0.1986
    191  NE2        7.9810    1.4600  -34.7230 N.ar  439  HIS439     -0.2212
@<TRIPOS>BOND
     1    68    67    2
     2     1     2    1
     3    67    66    1
     4    69    66    1
     5    69    70    1
     6     2     3    1
     7     2     5    1
     8    50    49    2
     9    72    70   ar
    10    72    74   ar
    11    61    62    2
    12    61    60    1
    13     3     4    2
    14    66    65    1
    15    60    59    1
    16    60    63    1
    17    49    59   am
    18    49    48    1
    19    70    71   ar
    20    74    75   ar
    21     5     6    1
    22    48    47    1
    23    48    51    1
    24    63    64    1
    25    71    73   ar
    26    24    23    2
    27    51    52    1
    28     6     7   ar
    29     6     8   ar
    30     7     9   ar
    31    75    73   ar
    32    75    76    1
    33    38    37    2
    34    35    36    1
    35    23    22    1
    36    53    52   ar
    37    53    55   ar
    38    52    54   ar
    39    92    93    1
    40    13    14    1
    41     9    11   ar
    42     8    10   ar
    43    37    36    1
    44    37    39   am
    45    42    41    2
    46    55    57   ar
    47    22    21    1
    48    22    25    1
    49    45    46    2
    50    45    44    1
    51    40    41    1
    52    40    39    1
    53    16    15    2
    54    41    43   am
    55   100    98   ar
    56   100   101   ar
    57    98    97   ar
    58    54    56   ar
    59    11    10   ar
    60    11    12    1
    61    14    15    1
    62    14    17    1
    63    93    94    1
    64    93    96    1
    65    43    44    1
    66   101   103   ar
    67   101    99   ar
    68    97    96    1
    69    97    99   ar
    70    57    56   ar
    71    57    58    1
    72    25    26    1
    73    77    78    1
    74    94    95    2
    75   103   105   ar
    76    80    79    2
    77    99   102   ar
    78    31    33   ar
    79    31    28   ar
    80    17    18    1
    81   138   139    2
    82   138   137    1
    83    33    34   ar
    84   140   137    1
    85   140   141    1
    86   105   104   ar
    87    26    28   ar
    88    26    27   ar
    89   102   104   ar
    90    28    30   ar
    91    78    79    1
    92    78    81    1
    93    79    86   am
    94   137   136    1
    95    89    88    2
    96    88    87    1
    97    18    19   ar
    98    18    20   ar
    99   141   142   ar
   100   141   143   ar
   101    81    82    1
   102    84    83   ar
   103    34    32   ar
   104   142   144   ar
   105    27    29   ar
   106   143   145   ar
   107    86    87    1
   108    30    32   ar
   109    30    29   ar
   110    90    87    1
   111    90    91    1
   112   136   127   am
   113   144   146   ar
   114    83    82    1
   115    83    85   ar
   116   145   146   ar
   117   128   127    2
   118   127   126    1
   119   158   157    1
   120   181   180    1
   121   126   129    1
   122   126   125    1
   123   178   180   ar
   124   178   176   ar
   125   191   189   ar
   126   191   190   ar
   127   180   179   ar
   128   129   130    1
   129   157   155   ar
   130   157   156   ar
   131   189   187   ar
   132   125   116   am
   133   176   175   ar
   134   155   153   ar
   135   190   188   ar
   136   122   120   ar
   137   122   124   ar
   138   156   154   ar
   139   131   130    1
   140   131   132    1
   141   185   184    2
   142   116   117    2
   143   116   115    1
   144   179   177   ar
   145   120   119   ar
   146   167   169   ar
   147   167   165   ar
   148   184   183    1
   149   187   188   ar
   150   187   186    1
   151   175   177   ar
   152   175   174    1
   153   124   123   ar
   154   169   168   ar
   155   153   152   ar
   156   115   114    1
   157   115   118    1
   158   132   133    2
   159   154   152   ar
   160   165   164   ar
   161   114   108   am
   162   119   118    1
   163   119   121   ar
   164   174   171    1
   165   152   151    1
   166   186   183    1
   167   183   182    1
   168   123   121   ar
   169   133   134    1
   170   133   135    1
   171   168   166   ar
   172   108   107    1
   173   108   109    2
   174   173   172    2
   175   107   106    1
   176   107   110    1
   177   164   166   ar
   178   164   163    1
   179   171   172    1
   180   171   170    1
   181   151   148    1
   182   150   149    2
   183   110   112    1
   184   110   111    1
   185   160   163    1
   186   160   159    1
   187   160   161    1
   188   149   159   am
   189   149   148    1
   190   148   147    1
   191   162   161    2
   192   111   113    1
