@<TRIPOS>MOLECULE
tmp/4b84B03.pdb
 90 82 0 0 0
SMALL
GASTEIGER

@<TRIPOS>ATOM
      1  N         -1.1510  -16.1750  -39.4710 N.3    76  GLY76      -0.1225
      2  CA        -2.5970  -16.0440  -39.4510 C.3    76  GLY76       0.1811
      3  C         -3.1540  -15.1590  -38.3420 C.2    76  GLY76       0.2280
      4  O         -4.3550  -15.1800  -38.0750 O.2    76  GLY76      -0.2866
      5  N         -4.0140  -11.4690  -36.9390 N.3    78  GLU78      -0.1245
      6  CA        -4.2810  -10.1010  -37.3950 C.3    78  GLU78       0.1567
      7  C         -3.2500   -9.0560  -36.9470 C.2    78  GLU78       0.2260
      8  O         -2.9010   -8.1480  -37.7110 O.2    78  GLU78      -0.2867
      9  CB        -5.6870   -9.6530  -36.9690 C.3    78  GLU78       0.0388
     10  CG        -5.9320   -8.1440  -37.0890 C.3    78  GLU78       0.1160
     11  CD        -6.0730   -7.6460  -38.5340 C.2    78  GLU78       0.3649
     12  OE1       -6.1190   -8.4790  -39.4730 O.co2  78  GLU78      -0.2457
     13  OE2       -6.1520   -6.4080  -38.7240 O.co2  78  GLU78      -0.2457
     14  N         -0.2210   -9.7130  -39.2890 N.3    81  GLU81      -0.1231
     15  CA        -0.5060   -9.8160  -40.7080 C.3    81  GLU81       0.1699
     16  C         -0.8420   -8.4610  -41.2830 C.2    81  GLU81       0.2592
     17  O         -0.5430   -8.1630  -42.4420 O.2    81  GLU81      -0.2718
     18  CB        -1.6720  -10.7660  -40.9200 C.3    81  GLU81       0.0402
     19  CG        -1.3990  -12.1560  -40.3800 C.3    81  GLU81       0.1161
     20  CD        -0.4890  -12.9400  -41.2800 C.2    81  GLU81       0.3649
     21  OE1        0.0900  -12.3190  -42.1960 O.co2  81  GLU81      -0.2457
     22  OE2       -0.3660  -14.1710  -41.0850 O.co2  81  GLU81      -0.2457
     23  N         -1.4790   -7.6380  -40.4620 N.am   82  MET82      -0.1979
     24  CA        -1.9080   -6.3280  -40.9010 C.3    82  MET82       0.1605
     25  C         -0.7180   -5.5250  -41.4240 C.2    82  MET82       0.2287
     26  O         -0.8870   -4.5250  -42.1240 O.2    82  MET82      -0.2864
     27  CB        -2.6210   -5.5990  -39.7620 C.3    82  MET82       0.0413
     28  CG        -1.8450   -5.5000  -38.4440 C.3    82  MET82       0.0598
     29  SD        -2.7010   -4.4150  -37.2780 S.3    82  MET82      -0.1393
     30  CE        -2.3910   -2.7930  -38.0110 C.3    82  MET82       0.0692
     31  N          0.2650   -7.5780  -48.8730 N.3    86  ASN86      -0.1240
     32  CA        -1.0650   -7.9850  -49.3110 C.3    86  ASN86       0.1653
     33  C         -1.1890   -7.9550  -50.8310 C.2    86  ASN86       0.2266
     34  O         -2.2820   -7.8390  -51.3700 O.2    86  ASN86      -0.2867
     35  CB        -2.1630   -7.1510  -48.6300 C.3    86  ASN86       0.1155
     36  CG        -2.0770   -5.6720  -48.9670 C.2    86  ASN86       0.2627
     37  OD1       -1.0290   -5.1660  -49.3520 O.2    86  ASN86      -0.2716
     38  ND2       -3.1870   -4.9730  -48.8130 N.am   86  ASN86      -0.0877
     39  N         -4.0670   -2.0740  -45.7880 N.3   128  ASP128     -0.1225
     40  CA        -5.3570   -1.4900  -45.4190 C.3   128  ASP128      0.1805
     41  C         -5.2130   -0.3170  -44.4380 C.2   128  ASP128      0.2597
     42  O         -5.9560    0.6510  -44.5050 O.2   128  ASP128     -0.2718
     43  CB        -6.2660   -2.5580  -44.8300 C.3   128  ASP128      0.1424
     44  CG        -6.6120   -3.6600  -45.8340 C.2   128  ASP128      0.3668
     45  OD1       -6.2530   -3.5390  -47.0300 O.co2 128  ASP128     -0.2456
     46  OD2       -7.2600   -4.6440  -45.4200 O.co2 128  ASP128     -0.2456
     47  N         -4.2430   -0.4030  -43.5390 N.am  129  VAL129     -0.1980
     48  CA        -4.0170    0.6320  -42.5400 C.3   129  VAL129      0.1595
     49  C         -3.6240    1.9620  -43.1570 C.2   129  VAL129      0.2287
     50  O         -3.6030    2.9800  -42.4770 O.2   129  VAL129     -0.2864
     51  CB        -2.8470    0.2690  -41.6000 C.3   129  VAL129      0.0276
     52  CG1       -3.1440    0.7490  -40.2060 C.3   129  VAL129      0.0022
     53  CG2       -2.5770   -1.2210  -41.6090 C.3   129  VAL129      0.0022
     54  N         -3.9370    3.5970  -37.6410 N.3   444  GLU444     -0.1245
     55  CA        -5.3190    3.3690  -38.0220 C.3   444  GLU444      0.1567
     56  C         -6.2210    4.5730  -37.7330 C.2   444  GLU444      0.2260
     57  O         -7.1420    4.8770  -38.4960 O.2   444  GLU444     -0.2867
     58  CB        -5.8430    2.1110  -37.3320 C.3   444  GLU444      0.0388
     59  CG        -5.4960    2.0050  -35.8540 C.3   444  GLU444      0.1160
     60  CD        -5.4960    0.5620  -35.3660 C.2   444  GLU444      0.3649
     61  OE1       -6.5590    0.0450  -34.9510 O.co2 444  GLU444     -0.2457
     62  OE2       -4.4200   -0.0620  -35.4090 O.co2 444  GLU444     -0.2457
     63  N         -9.5730    4.8620  -40.0350 N.3   449  LEU449     -0.1245
     64  CA       -10.1850    3.5480  -40.2150 C.3   449  LEU449      0.1561
     65  C        -11.4760    3.3210  -39.4320 C.2   449  LEU449      0.2260
     66  O        -12.4080    2.7080  -39.9430 O.2   449  LEU449     -0.2867
     67  CB        -9.1770    2.4380  -39.9490 C.3   449  LEU449      0.0270
     68  CG        -8.6090    1.9700  -41.2910 C.3   449  LEU449      0.0019
     69  CD1       -7.7060    3.0510  -41.9130 C.3   449  LEU449      0.0001
     70  CD2       -7.8970    0.6470  -41.1470 C.3   449  LEU449      0.0001
     71  N        -15.4900   -2.2280  -39.2140 N.3   455  LEU455     -0.1245
     72  CA       -14.2770   -2.4940  -38.4440 C.3   455  LEU455      0.1561
     73  C        -14.6050   -2.5900  -36.9520 C.2   455  LEU455      0.2260
     74  O        -13.7350   -2.8670  -36.1220 O.2   455  LEU455     -0.2867
     75  CB       -13.2100   -1.4360  -38.6990 C.3   455  LEU455      0.0270
     76  CG       -12.5700   -1.3080  -40.0860 C.3   455  LEU455      0.0019
     77  CD1      -11.3800   -0.3340  -40.0510 C.3   455  LEU455      0.0001
     78  CD2      -12.1400   -2.6520  -40.6050 C.3   455  LEU455      0.0001
     79  N        -15.1960   -0.6010  -34.5540 N.3   457  TYR457     -0.1241
     80  CA       -14.7500    0.3950  -33.5810 C.3   457  TYR457      0.1605
     81  C        -15.9570    1.0830  -32.9030 C.2   457  TYR457      0.2264
     82  O        -17.0070    1.2410  -33.5070 O.2   457  TYR457     -0.2867
     83  CB       -13.8720    1.4610  -34.2620 C.3   457  TYR457      0.0534
     84  CG       -12.5000    1.0020  -34.7220 C.ar  457  TYR457     -0.0201
     85  CD1      -11.4000    1.0630  -33.8650 C.ar  457  TYR457     -0.0009
     86  CD2      -12.2940    0.5360  -36.0180 C.ar  457  TYR457     -0.0009
     87  CE1      -10.1310    0.6610  -34.2820 C.ar  457  TYR457      0.0417
     88  CE2      -11.0350    0.1280  -36.4440 C.ar  457  TYR457      0.0417
     89  CZ        -9.9570    0.1960  -35.5710 C.ar  457  TYR457      0.1957
     90  OH        -8.7090   -0.2050  -35.9850 O.3   457  TYR457     -0.2866
@<TRIPOS>BOND
     1    34    33    2
     2    33    32    1
     3    37    36    2
     4    32    31    1
     5    32    35    1
     6    36    38   am
     7    36    35    1
     8    45    44   ar
     9    44    46   ar
    10    44    43    1
    11    39    40    1
    12    40    43    1
    13    40    41    1
    14    42    41    2
    15    41    47   am
    16    47    48    1
    17    49    48    1
    18    49    50    2
    19    48    51    1
    20    17    16    2
    21    21    20   ar
    22    26    25    2
    23    69    68    1
    24    53    51    1
    25    51    52    1
    26    25    24    1
    27    68    70    1
    28    68    67    1
    29    16    15    1
    30    16    23   am
    31    20    22   ar
    32    20    19    1
    33    18    15    1
    34    18    19    1
    35    24    23    1
    36    24    27    1
    37    15    14    1
    38    78    76    1
    39    64    63    1
    40    64    67    1
    41    64    65    1
    42    76    77    1
    43    76    75    1
    44    66    65    2
    45    27    28    1
    46    12    11   ar
    47     1     2    1
    48     2     3    1
    49    71    72    1
    50    13    11   ar
    51    75    72    1
    52    11    10    1
    53    57    56    2
    54    72    73    1
    55    28    29    1
    56     3     4    2
    57    55    56    1
    58    55    54    1
    59    55    58    1
    60    30    29    1
    61     8     7    2
    62     6     9    1
    63     6     7    1
    64     6     5    1
    65    58    59    1
    66    10     9    1
    67    73    74    2
    68    88    86   ar
    69    88    89   ar
    70    86    84   ar
    71    90    89    1
    72    59    60    1
    73    89    87   ar
    74    62    60   ar
    75    60    61   ar
    76    84    83    1
    77    84    85   ar
    78    79    80    1
    79    87    85   ar
    80    83    80    1
    81    80    81    1
    82    82    81    2
