@<TRIPOS>MOLECULE
tmp/4b85A00.pdb
 172 172 0 0 0
SMALL
GASTEIGER

@<TRIPOS>ATOM
      1  N         34.7030   27.0990   15.6780 N.3    74  ASP74      -0.1239
      2  CA        34.0650   27.6420   14.4880 C.3    74  ASP74       0.1674
      3  C         33.9110   29.1650   14.5380 C.2    74  ASP74       0.2266
      4  O         33.4390   29.7210   15.5350 O.2    74  ASP74      -0.2867
      5  CB        32.7030   26.9880   14.3020 C.3    74  ASP74       0.1410
      6  CG        32.0090   27.4560   13.0590 C.2    74  ASP74       0.3668
      7  OD1       32.2280   26.8200   12.0080 O.co2  74  ASP74      -0.2456
      8  OD2       31.2570   28.4560   13.1380 O.co2  74  ASP74      -0.2456
      9  N         26.8950   25.3020   19.5800 N.3    86  TRP86      -0.1241
     10  CA        27.7490   24.1390   19.3700 C.3    86  TRP86       0.1605
     11  C         29.1720   24.3810   19.8570 C.2    86  TRP86       0.2264
     12  O         29.9670   23.4490   19.9190 O.2    86  TRP86      -0.2867
     13  CB        27.7660   23.7560   17.8800 C.3    86  TRP86       0.0550
     14  CG        26.3870   23.5540   17.3130 C.ar   86  TRP86       0.0003
     15  CD1       25.7540   24.3480   16.3980 C.ar   86  TRP86       0.0946
     16  CD2       25.4690   22.4920   17.6290 C.ar   86  TRP86       0.0152
     17  NE1       24.5050   23.8420   16.1210 N.ar   86  TRP86      -0.2442
     18  CE2       24.3050   22.7050   16.8650 C.ar   86  TRP86       0.0810
     19  CE3       25.5220   21.3820   18.4820 C.ar   86  TRP86       0.0012
     20  CZ2       23.1980   21.8430   16.9260 C.ar   86  TRP86       0.0191
     21  CZ3       24.4290   20.5250   18.5380 C.ar   86  TRP86       0.0001
     22  CH2       23.2810   20.7610   17.7700 C.ar   86  TRP86       0.0015
     23  N         28.6000   14.5300   18.6310 N.3   120  GLY120     -0.1210
     24  CA        29.2140   14.6940   17.3290 C.3   120  GLY120      0.1956
     25  C         29.9840   16.0010   17.2420 C.2   120  GLY120      0.2612
     26  O         30.2780   16.6570   18.2540 O.2   120  GLY120     -0.2717
     27  N         30.2940   16.3890   16.0150 N.am  121  GLY121     -0.1942
     28  CA        31.1560   17.5230   15.7480 C.3   121  GLY121      0.2014
     29  C         32.3010   17.1490   14.8120 C.2   121  GLY121      0.2639
     30  O         33.4120   17.6770   14.9360 O.2   121  GLY121     -0.2714
     31  N         32.0400   16.2240   13.8930 N.am  122  GLY122     -0.1954
     32  CA        32.9690   15.9280   12.8090 C.3   122  GLY122      0.1869
     33  C         34.2890   15.3150   13.2530 C.2   122  GLY122      0.2309
     34  O         35.2570   15.2830   12.4860 O.2   122  GLY122     -0.2863
     35  N         36.2680   16.6660   15.1310 N.3   124  TYR124     -0.1227
     36  CA        37.2290   17.7510   15.3760 C.3   124  TYR124      0.1736
     37  C         36.7370   18.6740   16.4940 C.2   124  TYR124      0.2596
     38  O         37.4230   19.6160   16.8860 O.2   124  TYR124     -0.2718
     39  CB        37.5030   18.5740   14.0910 C.3   124  TYR124      0.0548
     40  CG        36.3240   19.4340   13.6860 C.ar  124  TYR124     -0.0200
     41  CD1       36.1420   20.7220   14.2150 C.ar  124  TYR124     -0.0009
     42  CD2       35.3830   18.9560   12.7920 C.ar  124  TYR124     -0.0009
     43  CE1       35.0440   21.4970   13.8450 C.ar  124  TYR124      0.0417
     44  CE2       34.2950   19.7170   12.4260 C.ar  124  TYR124      0.0417
     45  CZ        34.1250   20.9810   12.9600 C.ar  124  TYR124      0.1957
     46  OH        33.0270   21.7150   12.5790 O.3   124  TYR124     -0.2866
     47  N         35.5360   18.4230   16.9950 N.am  125  SER125     -0.1952
     48  CA        34.9520   19.3240   17.9820 C.3   125  SER125      0.1924
     49  C         33.8670   18.6490   18.8110 C.2   125  SER125      0.2314
     50  O         33.5190   17.4980   18.5600 O.2   125  SER125     -0.2863
     51  CB        34.3520   20.5450   17.2800 C.3   125  SER125      0.2116
     52  OG        33.3020   20.1540   16.4090 O.3   125  SER125     -0.2180
     53  N         22.8330   18.9650   25.3420 N.3   133  TYR133     -0.1241
     54  CA        23.0530   17.5840   25.7820 C.3   133  TYR133      0.1605
     55  C         22.7840   17.4430   27.2840 C.2   133  TYR133      0.2264
     56  O         23.2270   16.4820   27.9090 O.2   133  TYR133     -0.2867
     57  CB        24.4910   17.1230   25.5060 C.3   133  TYR133      0.0534
     58  CG        25.0190   17.3450   24.0970 C.ar  133  TYR133     -0.0201
     59  CD1       24.2000   17.2030   22.9860 C.ar  133  TYR133     -0.0009
     60  CD2       26.3530   17.6750   23.8850 C.ar  133  TYR133     -0.0009
     61  CE1       24.6960   17.3930   21.6820 C.ar  133  TYR133      0.0417
     62  CE2       26.8570   17.8700   22.5810 C.ar  133  TYR133      0.0417
     63  CZ        26.0260   17.7210   21.4930 C.ar  133  TYR133      0.1957
     64  OH        26.4940   17.9220   20.2050 O.3   133  TYR133     -0.2866
     65  N         24.8910   11.5370   17.7780 N.3   202  GLU202     -0.1231
     66  CA        24.4620   12.2120   16.5650 C.3   202  GLU202      0.1699
     67  C         25.6960   12.5820   15.7340 C.2   202  GLU202      0.2592
     68  O         26.7380   12.9450   16.2760 O.2   202  GLU202     -0.2718
     69  CB        23.6140   13.4400   16.9260 C.3   202  GLU202      0.0402
     70  CG        22.9790   14.1830   15.7420 C.3   202  GLU202      0.1161
     71  CD        23.9040   15.2560   15.1810 C.2   202  GLU202      0.3649
     72  OE1       24.9450   15.5470   15.8250 O.co2 202  GLU202     -0.2457
     73  OE2       23.5860   15.8180   14.1070 O.co2 202  GLU202     -0.2457
     74  N         25.5720   12.4360   14.4210 N.am  203  SER203     -0.1952
     75  CA        26.6240   12.7900   13.4810 C.3   203  SER203      0.1924
     76  C         27.9010   11.9720   13.7380 C.2   203  SER203      0.2314
     77  O         27.8670   10.7420   13.6820 O.2   203  SER203     -0.2863
     78  CB        26.8820   14.2960   13.5480 C.3   203  SER203      0.2116
     79  OG        27.4770   14.7330   12.3410 O.3   203  SER203     -0.2180
     80  N         43.2750   22.1170    9.4350 N.3   280  TRP280     -0.1241
     81  CA        42.4600   22.1820    8.2190 C.3   280  TRP280      0.1605
     82  C         43.2460   22.3190    6.9210 C.2   280  TRP280      0.2264
     83  O         42.6690   22.4230    5.8460 O.2   280  TRP280     -0.2867
     84  CB        41.4680   23.3310    8.3280 C.3   280  TRP280      0.0550
     85  CG        40.4570   23.0350    9.3740 C.ar  280  TRP280      0.0003
     86  CD1       40.3850   23.5640   10.6310 C.ar  280  TRP280      0.0946
     87  CD2       39.3980   22.0860    9.2720 C.ar  280  TRP280      0.0152
     88  NE1       39.3270   23.0120   11.3140 N.ar  280  TRP280     -0.2442
     89  CE2       38.7000   22.1030   10.5000 C.ar  280  TRP280      0.0810
     90  CE3       38.9610   21.2270    8.2550 C.ar  280  TRP280      0.0012
     91  CZ2       37.5840   21.2910   10.7390 C.ar  280  TRP280      0.0191
     92  CZ3       37.8590   20.4230    8.4900 C.ar  280  TRP280      0.0001
     93  CH2       37.1810   20.4610    9.7250 C.ar  280  TRP280      0.0015
     94  N         33.6150   20.0630    1.4660 N.3   288  ILE288     -0.1231
     95  CA        32.8260   20.2070    2.6890 C.3   288  ILE288      0.1692
     96  C         32.4460   18.8170    3.1810 C.2   288  ILE288      0.2592
     97  O         32.5100   17.8420    2.4180 O.2   288  ILE288     -0.2718
     98  CB        31.5460   21.0350    2.4880 C.3   288  ILE288      0.0266
     99  CG1       30.7290   20.4770    1.3340 C.3   288  ILE288      0.0019
    100  CG2       31.8710   22.5160    2.2690 C.3   288  ILE288      0.0020
    101  CD1       29.3750   21.1550    1.2080 C.3   288  ILE288      0.0001
    102  N         32.0600   18.7310    4.4500 N.am  289  PHE289     -0.1976
    103  CA        31.7500   17.4520    5.0870 C.3   289  PHE289      0.1639
    104  C         32.9270   16.4770    4.9810 C.2   289  PHE289      0.2290
    105  O         32.7440   15.2690    4.7980 O.2   289  PHE289     -0.2864
    106  CB        30.4560   16.8490    4.5090 C.3   289  PHE289      0.0560
    107  CG        29.5300   16.2690    5.5580 C.ar  289  PHE289     -0.0200
    108  CD1       30.0190   15.4010    6.5380 C.ar  289  PHE289     -0.0042
    109  CD2       28.1740   16.6000    5.5750 C.ar  289  PHE289     -0.0042
    110  CE1       29.1680   14.8560    7.5280 C.ar  289  PHE289     -0.0003
    111  CE2       27.3030   16.0570    6.5540 C.ar  289  PHE289     -0.0003
    112  CZ        27.8080   15.1870    7.5360 C.ar  289  PHE289     -0.0000
    113  N         36.7240   15.8710    7.1810 N.3   291  PHE291     -0.1241
    114  CA        37.4080   16.3040    8.3970 C.3   291  PHE291      0.1605
    115  C         38.7860   15.6530    8.4070 C.2   291  PHE291      0.2264
    116  O         38.9300   14.4790    8.0310 O.2   291  PHE291     -0.2867
    117  CB        36.5610   15.9080    9.6210 C.3   291  PHE291      0.0534
    118  CG        35.0710   16.1430    9.4180 C.ar  291  PHE291     -0.0203
    119  CD1       34.5610   17.4440    9.3530 C.ar  291  PHE291     -0.0042
    120  CD2       34.1980   15.0770    9.2520 C.ar  291  PHE291     -0.0042
    121  CE1       33.1780   17.6820    9.1470 C.ar  291  PHE291     -0.0003
    122  CE2       32.8110   15.2990    9.0570 C.ar  291  PHE291     -0.0003
    123  CZ        32.3080   16.6090    8.9900 C.ar  291  PHE291     -0.0000
    124  N         22.8560   22.9020    6.3180 N.3   331  TYR331     -0.1227
    125  CA        23.8020   23.5730    7.2070 C.3   331  TYR331      0.1736
    126  C         25.1790   23.7710    6.5780 C.2   331  TYR331      0.2595
    127  O         25.9110   24.6810    6.9410 O.2   331  TYR331     -0.2718
    128  CB        23.9740   22.7100    8.4680 C.3   331  TYR331      0.0548
    129  CG        24.5450   23.4000    9.6910 C.ar  331  TYR331     -0.0200
    130  CD1       25.9070   23.6150    9.8270 C.ar  331  TYR331     -0.0009
    131  CD2       23.7200   23.7900   10.7350 C.ar  331  TYR331     -0.0009
    132  CE1       26.4320   24.2250   10.9570 C.ar  331  TYR331      0.0417
    133  CE2       24.2370   24.4060   11.8770 C.ar  331  TYR331      0.0417
    134  CZ        25.5930   24.6210   11.9780 C.ar  331  TYR331      0.1957
    135  OH        26.1220   25.2270   13.1020 O.3   331  TYR331     -0.2866
    136  N         25.5310   22.9270    5.6190 N.am  332  PHE332     -0.1976
    137  CA        26.9170   22.7900    5.1540 C.3   332  PHE332      0.1639
    138  C         27.2510   23.6490    3.9400 C.2   332  PHE332      0.2290
    139  O         28.4110   23.7690    3.5550 O.2   332  PHE332     -0.2864
    140  CB        27.2260   21.3260    4.8130 C.3   332  PHE332      0.0560
    141  CG        27.4350   20.4480    6.0150 C.ar  332  PHE332     -0.0200
    142  CD1       26.3540   19.9100    6.6990 C.ar  332  PHE332     -0.0042
    143  CD2       28.7160   20.1520    6.4570 C.ar  332  PHE332     -0.0042
    144  CE1       26.5540   19.1000    7.8160 C.ar  332  PHE332     -0.0003
    145  CE2       28.9200   19.3430    7.5620 C.ar  332  PHE332     -0.0003
    146  CZ        27.8420   18.8180    8.2450 C.ar  332  PHE332     -0.0000
    147  N         29.4520   26.8550    4.6820 N.3   335  TYR335     -0.1241
    148  CA        30.8440   26.6740    5.1090 C.3   335  TYR335      0.1605
    149  C         31.8180   26.5530    3.9600 C.2   335  TYR335      0.2264
    150  O         33.0020   26.8920    4.0670 O.2   335  TYR335     -0.2867
    151  CB        30.9560   25.4480    6.0040 C.3   335  TYR335      0.0534
    152  CG        30.5490   25.7640    7.4030 C.ar  335  TYR335     -0.0201
    153  CD1       31.2680   26.6780    8.1440 C.ar  335  TYR335     -0.0009
    154  CD2       29.4240   25.1910    7.9710 C.ar  335  TYR335     -0.0009
    155  CE1       30.9040   26.9910    9.4170 C.ar  335  TYR335      0.0417
    156  CE2       29.0490   25.5010    9.2560 C.ar  335  TYR335      0.0417
    157  CZ        29.7950   26.4020    9.9770 C.ar  335  TYR335      0.1957
    158  OH        29.4340   26.7330   11.2630 O.3   335  TYR335     -0.2866
    159  N         20.8070   19.4560   10.0400 N.3   441  HIS441     -0.1226
    160  CA        21.6230   18.5120   10.7900 C.3   441  HIS441      0.1752
    161  C         21.7560   18.9710   12.2440 C.2   441  HIS441      0.2596
    162  O         22.1710   20.1030   12.4930 O.2   441  HIS441     -0.2718
    163  CB        23.0130   18.5430   10.1530 C.3   441  HIS441      0.0759
    164  CG        23.8840   17.3800   10.5010 C.ar  441  HIS441      0.0818
    165  ND1       23.5220   16.0770   10.2430 N.ar  441  HIS441     -0.2268
    166  CD2       25.1390   17.3350   11.0220 C.ar  441  HIS441      0.1154
    167  CE1       24.5070   15.2700   10.6180 C.ar  441  HIS441      0.1986
    168  NE2       25.4930   16.0070   11.0930 N.ar  441  HIS441     -0.2212
    169  N         21.4040   18.1060   13.1950 N.am  442  GLY442     -0.1957
    170  CA        21.6180   18.3920   14.6080 C.3   442  GLY442      0.1869
    171  C         20.4290   18.9680   15.3490 C.2   442  GLY442      0.2309
    172  O         20.4660   19.0890   16.5700 O.2   442  GLY442     -0.2863
@<TRIPOS>BOND
     1   101    99    1
     2    99    98    1
     3    94    95    1
     4   100    98    1
     5    97    96    2
     6    98    95    1
     7    95    96    1
     8    96   102   am
     9   139   138    2
    10   138   137    1
    11   149   150    2
    12   149   148    1
    13   102   103    1
    14   106   103    1
    15   106   107    1
    16   147   148    1
    17   105   104    2
    18   140   137    1
    19   140   141    1
    20   104   103    1
    21   148   151    1
    22   137   136    1
    23   107   109   ar
    24   107   108   ar
    25   109   111   ar
    26   136   126   am
    27    83    82    2
    28   151   152    1
    29   141   143   ar
    30   141   142   ar
    31   124   125    1
    32   143   145   ar
    33   108   110   ar
    34   111   112   ar
    35   126   127    2
    36   126   125    1
    37   142   144   ar
    38    82    81    1
    39   113   114    1
    40   125   128    1
    41   152   154   ar
    42   152   153   ar
    43   110   112   ar
    44   145   146   ar
    45   144   146   ar
    46   154   156   ar
    47   116   115    2
    48   153   155   ar
    49    81    84    1
    50    81    80    1
    51    90    92   ar
    52    90    87   ar
    53    84    85    1
    54   114   115    1
    55   114   117    1
    56   128   129    1
    57    92    93   ar
    58   123   122   ar
    59   123   121   ar
    60   122   120   ar
    61   121   119   ar
    62   120   118   ar
    63   156   157   ar
    64    87    85   ar
    65    87    89   ar
    66   119   118   ar
    67    85    86   ar
    68   155   157   ar
    69   118   117    1
    70   129   130   ar
    71   129   131   ar
    72    93    91   ar
    73   130   132   ar
    74   157   158    1
    75   159   160    1
    76   163   164    1
    77   163   160    1
    78   165   164   ar
    79   165   167   ar
    80    89    91   ar
    81    89    88   ar
    82   164   166   ar
    83   167   168   ar
    84    86    88   ar
    85   131   133   ar
    86   160   161    1
    87   132   134   ar
    88   166   168   ar
    89   133   134   ar
    90   134   135    1
    91     7     6   ar
    92   161   162    2
    93   161   169   am
    94    79    78    1
    95    44    42   ar
    96    44    45   ar
    97    34    33    2
    98    46    45    1
    99    42    40   ar
   100    32    33    1
   101    32    31    1
   102    45    43   ar
   103     6     8   ar
   104     6     5    1
   105   169   170    1
   106    75    78    1
   107    75    76    1
   108    75    74    1
   109    77    76    2
   110    40    39    1
   111    40    41   ar
   112    43    41   ar
   113    31    29   am
   114    39    36    1
   115    73    71   ar
   116     5     2    1
   117    74    67   am
   118     2     3    1
   119     2     1    1
   120     3     4    2
   121   170   171    1
   122    29    30    2
   123    29    28    1
   124    35    36    1
   125    71    70    1
   126    71    72   ar
   127   171   172    2
   128    36    37    1
   129    67    68    2
   130    67    66    1
   131    70    69    1
   132    28    27    1
   133    27    25   am
   134    17    15   ar
   135    17    18   ar
   136    15    14   ar
   137    52    51    1
   138    37    38    2
   139    37    47   am
   140    66    69    1
   141    66    65    1
   142    18    20   ar
   143    18    16   ar
   144    20    22   ar
   145    47    48    1
   146    25    24    1
   147    25    26    2
   148    51    48    1
   149    14    16   ar
   150    14    13    1
   151    24    23    1
   152    16    19   ar
   153    22    21   ar
   154    13    10    1
   155    48    49    1
   156    19    21   ar
   157    50    49    2
   158    10     9    1
   159    10    11    1
   160    11    12    2
   161    64    63    1
   162    63    61   ar
   163    63    62   ar
   164    61    59   ar
   165    62    60   ar
   166    59    58   ar
   167    60    58   ar
   168    58    57    1
   169    53    54    1
   170    57    54    1
   171    54    55    1
   172    55    56    2
