@<TRIPOS>MOLECULE
tmp/4b8lA00.pdb
 166 157 0 0 0
SMALL
GASTEIGER

@<TRIPOS>ATOM
      1  N         21.5320   14.4250   30.3630 N.3    13  LEU13      -0.1231
      2  CA        21.0210   13.3870   29.4780 C.3    13  LEU13       0.1693
      3  C         22.1510   12.6790   28.7300 C.2    13  LEU13       0.2593
      4  O         21.9300   11.6620   28.0710 O.2    13  LEU13      -0.2718
      5  CB        20.0000   13.9680   28.4930 C.3    13  LEU13       0.0284
      6  CG        18.7730   14.6470   29.1090 C.3    13  LEU13       0.0019
      7  CD1       17.9560   15.3760   28.0520 C.3    13  LEU13       0.0001
      8  CD2       17.9160   13.6410   29.8590 C.3    13  LEU13       0.0001
      9  N         23.3630   13.2170   28.8340 N.am   14  GLY14      -0.1942
     10  CA        24.5260   12.5790   28.2250 C.3    14  GLY14       0.2014
     11  C         25.4310   13.5440   27.4910 C.2    14  GLY14       0.2639
     12  O         24.9670   14.5310   26.9230 O.2    14  GLY14      -0.2714
     13  N         26.7290   13.2450   27.5000 N.am   15  LYS15      -0.1963
     14  CA        27.7360   14.0950   26.8700 C.3    15  LYS15       0.1728
     15  C         27.7080   13.9910   25.3460 C.2    15  LYS15       0.2617
     16  O         27.1060   13.0790   24.7830 O.2    15  LYS15      -0.2715
     17  CB        29.1380   13.7490   27.3850 C.3    15  LYS15       0.0311
     18  CG        29.2680   13.6990   28.9010 C.3    15  LYS15       0.0038
     19  CD        30.7270   13.8360   29.3430 C.3    15  LYS15       0.0206
     20  CE        31.6320   12.7670   28.7230 C.3    15  LYS15       0.1093
     21  NZ        31.3410   11.3910   29.2270 N.3    15  LYS15      -0.1314
     22  N         28.3680   14.9380   24.6880 N.am   16  GLY16      -0.1940
     23  CA        28.4710   14.9470   23.2340 C.3    16  GLY16       0.2014
     24  C         29.8140   15.4960   22.7900 C.2    16  GLY16       0.2639
     25  O         30.7390   15.6290   23.5960 O.2    16  GLY16      -0.2714
     26  N         29.9190   15.8250   21.5050 N.am   17  LYS17      -0.1963
     27  CA        31.1740   16.3230   20.9450 C.3    17  LYS17       0.1728
     28  C         31.6350   17.6310   21.5880 C.2    17  LYS17       0.2616
     29  O         32.8330   17.8460   21.7730 O.2    17  LYS17      -0.2715
     30  CB        31.0590   16.5090   19.4260 C.3    17  LYS17       0.0311
     31  CG        30.9500   15.2120   18.6340 C.3    17  LYS17       0.0038
     32  CD        30.9890   15.4570   17.1230 C.3    17  LYS17       0.0206
     33  CE        32.4110   15.4000   16.5590 C.3    17  LYS17       0.1093
     34  NZ        33.2670   16.5470   16.9800 N.3    17  LYS17      -0.1314
     35  N         30.6880   18.4990   21.9340 N.am   18  PHE18      -0.1960
     36  CA        31.0390   19.8590   22.3340 C.3    18  PHE18       0.1771
     37  C         30.4900   20.2930   23.6920 C.2    18  PHE18       0.2620
     38  O         30.7920   21.3890   24.1660 O.2    18  PHE18      -0.2715
     39  CB        30.6070   20.8490   21.2510 C.3    18  PHE18       0.0574
     40  CG        30.8890   20.3750   19.8520 C.ar   18  PHE18      -0.0200
     41  CD1       32.1950   20.2630   19.3930 C.ar   18  PHE18      -0.0042
     42  CD2       29.8480   20.0310   18.9990 C.ar   18  PHE18      -0.0042
     43  CE1       32.4580   19.8250   18.1070 C.ar   18  PHE18      -0.0003
     44  CE2       30.1020   19.5940   17.7090 C.ar   18  PHE18      -0.0003
     45  CZ        31.4110   19.4900   17.2620 C.ar   18  PHE18      -0.0000
     46  N         29.6880   19.4400   24.3180 N.am   19  GLY19      -0.1954
     47  CA        29.1690   19.7450   25.6480 C.3    19  GLY19       0.1869
     48  C         28.0480   18.8350   26.1090 C.2    19  GLY19       0.2309
     49  O         27.6690   17.8880   25.4180 O.2    19  GLY19      -0.2863
     50  N         24.1640   17.7490   27.4760 N.3    21  VAL21      -0.1245
     51  CA        22.7540   17.9920   27.2480 C.3    21  VAL21       0.1561
     52  C         22.0180   17.8000   28.5640 C.2    21  VAL21       0.2260
     53  O         22.1310   16.7490   29.1940 O.2    21  VAL21      -0.2867
     54  CB        22.1850   17.0230   26.1950 C.3    21  VAL21       0.0252
     55  CG1       20.6720   17.1650   26.0950 C.3    21  VAL21       0.0019
     56  CG2       22.8430   17.2600   24.8420 C.3    21  VAL21       0.0019
     57  N         15.1360   20.2030   26.2490 N.3    34  ALA34      -0.1245
     58  CA        16.5190   19.7800   26.4180 C.3    34  ALA34       0.1562
     59  C         17.4670   20.9310   26.1270 C.2    34  ALA34       0.2260
     60  O         17.3950   21.5510   25.0640 O.2    34  ALA34      -0.2867
     61  CB        16.8300   18.6040   25.5170 C.3    34  ALA34       0.0290
     62  N         21.0740   21.8890   25.2050 N.3    36  LYS36      -0.1245
     63  CA        22.3840   21.4940   24.7090 C.3    36  LYS36       0.1561
     64  C         23.3720   22.6180   24.9840 C.2    36  LYS36       0.2260
     65  O         23.2370   23.7190   24.4530 O.2    36  LYS36      -0.2867
     66  CB        22.3290   21.1850   23.2130 C.3    36  LYS36       0.0271
     67  CG        23.4940   20.3480   22.7040 C.3    36  LYS36       0.0035
     68  CD        23.1650   19.7110   21.3620 C.3    36  LYS36       0.0206
     69  CE        24.2800   18.7920   20.8960 C.3    36  LYS36       0.1093
     70  NZ        24.1160   18.4010   19.4670 N.3    36  LYS36      -0.1314
     71  N         13.8340   17.1640   14.9420 N.3    68  LEU68      -0.1245
     72  CA        13.9970   17.7090   16.2820 C.3    68  LEU68       0.1561
     73  C         13.9670   19.2340   16.2430 C.2    68  LEU68       0.2260
     74  O         14.6430   19.8640   15.4300 O.2    68  LEU68      -0.2867
     75  CB        15.2910   17.2180   16.9250 C.3    68  LEU68       0.0270
     76  CG        15.3380   17.4150   18.4400 C.3    68  LEU68       0.0019
     77  CD1       14.4620   16.3840   19.1380 C.3    68  LEU68       0.0001
     78  CD2       16.7660   17.3430   18.9450 C.3    68  LEU68       0.0001
     79  N         16.4160   22.8800   22.7540 N.3    84  LEU84      -0.1231
     80  CA        15.9860   21.8150   21.8600 C.3    84  LEU84       0.1693
     81  C         14.7610   21.0860   22.3910 C.2    84  LEU84       0.2592
     82  O         14.5790   20.9450   23.6040 O.2    84  LEU84      -0.2718
     83  CB        17.1200   20.8130   21.6380 C.3    84  LEU84       0.0284
     84  CG        18.3870   21.3080   20.9420 C.3    84  LEU84       0.0019
     85  CD1       19.4360   20.2150   20.9620 C.3    84  LEU84       0.0001
     86  CD2       18.0940   21.7420   19.5160 C.3    84  LEU84       0.0001
     87  N         13.9250   20.6270   21.4670 N.am   85  GLU85      -0.1966
     88  CA        12.7720   19.8090   21.8050 C.3    85  GLU85       0.1733
     89  C         13.2320   18.5590   22.5490 C.2    85  GLU85       0.2616
     90  O         14.1990   17.9110   22.1510 O.2    85  GLU85      -0.2715
     91  CB        12.0190   19.4260   20.5310 C.3    85  GLU85       0.0429
     92  CG        10.8930   18.4370   20.7270 C.3    85  GLU85       0.1163
     93  CD        10.3880   17.8710   19.4140 C.2    85  GLU85       0.3649
     94  OE1       10.8270   18.3460   18.3420 O.co2  85  GLU85      -0.2457
     95  OE2        9.5520   16.9440   19.4540 O.co2  85  GLU85      -0.2457
     96  N         12.5480   18.2310   23.6380 N.am   86  PHE86      -0.1960
     97  CA        12.8970   17.0500   24.4160 C.3    86  PHE86       0.1771
     98  C         12.4300   15.7680   23.7190 C.2    86  PHE86       0.2619
     99  O         11.2640   15.6440   23.3350 O.2    86  PHE86      -0.2715
    100  CB        12.3270   17.1550   25.8360 C.3    86  PHE86       0.0574
    101  CG        12.5730   15.9380   26.6850 C.ar   86  PHE86      -0.0200
    102  CD1       13.8400   15.3780   26.7760 C.ar   86  PHE86      -0.0042
    103  CD2       11.5380   15.3620   27.4070 C.ar   86  PHE86      -0.0042
    104  CE1       14.0660   14.2570   27.5610 C.ar   86  PHE86      -0.0003
    105  CE2       11.7580   14.2450   28.1930 C.ar   86  PHE86      -0.0003
    106  CZ        13.0220   13.6920   28.2720 C.ar   86  PHE86      -0.0000
    107  N         13.3570   14.8290   23.5430 N.am   87  ALA87      -0.1977
    108  CA        13.0440   13.5220   22.9750 C.3    87  ALA87       0.1597
    109  C         12.9390   12.4930   24.0990 C.2    87  ALA87       0.2287
    110  O         13.9540   11.9790   24.5770 O.2    87  ALA87      -0.2864
    111  CB        14.1000   13.1120   21.9590 C.3    87  ALA87       0.0319
    112  N         14.7170    8.8980   24.3270 N.3    90  GLY90      -0.1210
    113  CA        16.1580    8.8490   24.1160 C.3    90  GLY90       0.1956
    114  C         16.5230    8.6650   22.6600 C.2    90  GLY90       0.2611
    115  O         15.7220    8.9620   21.7700 O.2    90  GLY90      -0.2717
    116  N         17.7310    8.1680   22.4160 N.am   91  GLU91      -0.1979
    117  CA        18.2020    7.9990   21.0480 C.3    91  GLU91       0.1602
    118  C         17.9730    6.5890   20.5120 C.2    91  GLU91       0.2287
    119  O         17.8310    5.6310   21.2730 O.2    91  GLU91      -0.2864
    120  CB        19.6690    8.4250   20.9000 C.3    91  GLU91       0.0415
    121  CG        20.6810    7.3470   21.2320 C.3    91  GLU91       0.1163
    122  CD        21.9880    7.5390   20.4850 C.2    91  GLU91       0.3649
    123  OE1       22.0780    8.4950   19.6830 O.co2  91  GLU91      -0.2457
    124  OE2       22.9200    6.7330   20.6960 O.co2  91  GLU91      -0.2457
    125  N         20.7030    3.3070   20.7060 N.3    94  LYS94      -0.1245
    126  CA        20.6880    2.4880   21.9170 C.3    94  LYS94       0.1561
    127  C         19.5300    1.4920   21.9160 C.2    94  LYS94       0.2260
    128  O         19.6310    0.4060   22.4880 O.2    94  LYS94      -0.2867
    129  CB        20.6420    3.3710   23.1660 C.3    94  LYS94       0.0271
    130  CG        21.8450    4.2910   23.2980 C.3    94  LYS94       0.0035
    131  CD        21.9370    4.9430   24.6710 C.3    94  LYS94       0.0206
    132  CE        23.2440    5.7260   24.8110 C.3    94  LYS94       0.1093
    133  NZ        23.3130    6.5390   26.0630 N.3    94  LYS94      -0.1314
    134  N         22.6370    7.0380   15.2240 N.3   134  GLU134     -0.1231
    135  CA        23.1870    7.9380   16.2330 C.3   134  GLU134      0.1699
    136  C         22.6530    9.3610   16.1100 C.2   134  GLU134      0.2592
    137  O         22.7690   10.1570   17.0390 O.2   134  GLU134     -0.2718
    138  CB        24.7170    7.9530   16.1550 C.3   134  GLU134      0.0402
    139  CG        25.3690    6.5860   16.3330 C.3   134  GLU134      0.1161
    140  CD        25.4860    5.8090   15.0300 C.2   134  GLU134      0.3649
    141  OE1       24.4520    5.5590   14.3710 O.co2 134  GLU134     -0.2457
    142  OE2       26.6240    5.4550   14.6580 O.co2 134  GLU134     -0.2457
    143  N         22.0720    9.6730   14.9590 N.am  135  ASN135     -0.1974
    144  CA        21.5570   11.0080   14.6910 C.3   135  ASN135      0.1688
    145  C         20.0390   11.0210   14.7180 C.2   135  ASN135      0.2292
    146  O         19.4070   11.8770   14.1020 O.2   135  ASN135     -0.2864
    147  CB        22.0530   11.4970   13.3290 C.3   135  ASN135      0.1181
    148  CG        23.5560   11.3590   13.1730 C.2   135  ASN135      0.2629
    149  OD1       24.3160   11.6210   14.1060 O.2   135  ASN135     -0.2716
    150  ND2       23.9920   10.9470   11.9880 N.am  135  ASN135     -0.0877
    151  N         16.5490   10.5390   17.2590 N.3   137  LEU137     -0.1245
    152  CA        15.9200   10.4440   18.5680 C.3   137  LEU137      0.1561
    153  C         14.4840    9.9480   18.4250 C.2   137  LEU137      0.2260
    154  O         13.9880    9.7870   17.3110 O.2   137  LEU137     -0.2867
    155  CB        15.9470   11.8040   19.2610 C.3   137  LEU137      0.0270
    156  CG        17.3370   12.3440   19.5920 C.3   137  LEU137      0.0019
    157  CD1       17.3010   13.8440   19.8020 C.3   137  LEU137      0.0001
    158  CD2       17.8950   11.6450   20.8160 C.3   137  LEU137      0.0001
    159  N         20.5740   15.9560   14.9450 N.3   148  ASP148     -0.1239
    160  CA        21.5940   16.9370   14.5710 C.3   148  ASP148      0.1674
    161  C         21.8490   16.9640   13.0640 C.2   148  ASP148      0.2266
    162  O         21.8520   15.9210   12.4040 O.2   148  ASP148     -0.2867
    163  CB        22.8950   16.6630   15.3390 C.3   148  ASP148      0.1410
    164  CG        23.0540   15.1940   15.7150 C.2   148  ASP148      0.3668
    165  OD1       23.0510   14.3350   14.8040 O.co2 148  ASP148     -0.2456
    166  OD2       23.1640   14.8980   16.9260 O.co2 148  ASP148     -0.2456
@<TRIPOS>BOND
     1   150   148   am
     2   162   161    2
     3   161   160    1
     4   148   147    1
     5   148   149    2
     6   147   144    1
     7   146   145    2
     8   141   140   ar
     9   160   159    1
    10   160   163    1
    11   142   140   ar
    12   144   145    1
    13   144   143    1
    14   165   164   ar
    15    71    72    1
    16   143   136   am
    17   140   139    1
    18   134   135    1
    19   163   164    1
    20    74    73    2
    21   164   166   ar
    22   136   135    1
    23   136   137    2
    24   138   135    1
    25   138   139    1
    26    73    72    1
    27    72    75    1
    28    33    34    1
    29    33    32    1
    30    75    76    1
    31    32    31    1
    32   151   152    1
    33    45    44   ar
    34    45    43   ar
    35   154   153    2
    36    44    42   ar
    37    43    41   ar
    38    94    93   ar
    39   153   152    1
    40    76    78    1
    41    76    77    1
    42   152   155    1
    43    31    30    1
    44    42    40   ar
    45   155   156    1
    46    41    40   ar
    47    93    95   ar
    48    93    92    1
    49    30    27    1
    50    70    69    1
    51    86    84    1
    52   156   157    1
    53   156   158    1
    54   123   122   ar
    55    40    39    1
    56   122   124   ar
    57   122   121    1
    58   118   117    1
    59   118   119    2
    60    91    92    1
    61    91    88    1
    62   125   126    1
    63    69    68    1
    64   120   117    1
    65   120   121    1
    66    84    85    1
    67    84    83    1
    68    27    26    1
    69    27    28    1
    70   117   116    1
    71    39    36    1
    72    68    67    1
    73    87    88    1
    74    87    81   am
    75    26    24   am
    76    28    29    2
    77    28    35   am
    78    83    80    1
    79   115   114    2
    80    88    89    1
    81    80    81    1
    82    80    79    1
    83   127   126    1
    84   127   128    2
    85   126   129    1
    86    35    36    1
    87   111   108    1
    88    90    89    2
    89    36    37    1
    90    81    82    2
    91   116   114   am
    92    89    96   am
    93   114   113    1
    94    67    66    1
    95    24    23    1
    96    24    25    2
    97   108   107    1
    98   108   109    1
    99   129   130    1
   100    66    63    1
   101    23    22    1
   102   130   131    1
   103    99    98    2
   104   107    98   am
   105    96    97    1
   106    37    38    2
   107    37    46   am
   108    98    97    1
   109   109   110    2
   110   113   112    1
   111    46    47    1
   112    97   100    1
   113    65    64    2
   114   131   132    1
   115    22    15   am
   116    63    64    1
   117    63    62    1
   118    16    15    2
   119   132   133    1
   120    56    54    1
   121    60    59    2
   122    15    14    1
   123    49    48    2
   124    61    58    1
   125    47    48    1
   126   100   101    1
   127    55    54    1
   128    59    58    1
   129    54    51    1
   130    57    58    1
   131   101   102   ar
   132   101   103   ar
   133   102   104   ar
   134    14    17    1
   135    14    13    1
   136    12    11    2
   137    51    50    1
   138    51    52    1
   139    17    18    1
   140   103   105   ar
   141    11    13   am
   142    11    10    1
   143   104   106   ar
   144     7     6    1
   145     4     3    2
   146   105   106   ar
   147    10     9    1
   148     5     6    1
   149     5     2    1
   150    52    53    2
   151    20    21    1
   152    20    19    1
   153     3     9   am
   154     3     2    1
   155    18    19    1
   156     6     8    1
   157     2     1    1
