@<TRIPOS>MOLECULE
tmp/4b8mA00.pdb
 198 185 0 0 0
SMALL
GASTEIGER

@<TRIPOS>ATOM
      1  N         15.9150    4.9580   -4.9590 N.3    11  ARG11      -0.1245
      2  CA        15.0740    3.8720   -5.4670 C.3    11  ARG11       0.1563
      3  C         13.7770    3.7710   -4.6680 C.2    11  ARG11       0.2260
      4  O         13.7340    4.2040   -3.5130 O.2    11  ARG11      -0.2867
      5  CB        15.8220    2.5280   -5.4300 C.3    11  ARG11       0.0307
      6  CG        16.3220    2.1060   -4.0560 C.3    11  ARG11       0.0489
      7  CD        17.0800    0.7920   -4.1410 C.3    11  ARG11       0.2205
      8  NE        17.8770    0.5440   -2.9430 N.pl3  11  ARG11      -0.0865
      9  CZ        17.4130   -0.0190   -1.8280 C.cat  11  ARG11       0.5346
     10  NH1       16.1410   -0.3960   -1.7380 N.pl3  11  ARG11       0.1354
     11  NH2       18.2220   -0.2060   -0.7950 N.pl3  11  ARG11       0.1354
     12  N         11.1150    2.1540   -2.2740 N.3    13  LEU13      -0.1231
     13  CA        11.1610    1.1850   -1.1870 C.3    13  LEU13       0.1693
     14  C          9.8530    0.4050   -1.1290 C.2    13  LEU13       0.2593
     15  O          9.8510   -0.8060   -0.9120 O.2    13  LEU13      -0.2718
     16  CB        11.4600    1.8770    0.1490 C.3    13  LEU13       0.0284
     17  CG        12.8820    2.4250    0.3320 C.3    13  LEU13       0.0019
     18  CD1       12.9810    3.3240    1.5660 C.3    13  LEU13       0.0001
     19  CD2       13.9320    1.3050    0.3860 C.3    13  LEU13       0.0001
     20  N          8.7430    1.0990   -1.3510 N.am   14  GLY14      -0.1942
     21  CA         7.4340    0.4620   -1.3350 C.3    14  GLY14       0.2014
     22  C          6.3790    1.2560   -2.0670 C.2    14  GLY14       0.2638
     23  O          6.4520    2.4840   -2.1400 O.2    14  GLY14      -0.2714
     24  N          5.4100    0.5380   -2.6310 N.am   15  LYS15      -0.1977
     25  CA         4.2210    1.1400   -3.2260 C.3    15  LYS15       0.1596
     26  C          3.1910    1.3910   -2.1350 C.2    15  LYS15       0.2287
     27  O          3.1550    0.6810   -1.1240 O.2    15  LYS15      -0.2864
     28  CB         3.6190    0.2180   -4.2920 C.3    15  LYS15       0.0298
     29  CG         4.3090    0.2760   -5.6480 C.3    15  LYS15       0.0038
     30  CD         3.5440   -0.5210   -6.6990 C.3    15  LYS15       0.0206
     31  CE         4.1860   -0.3800   -8.0760 C.3    15  LYS15       0.1093
     32  NZ         3.3780   -1.0170   -9.1600 N.3    15  LYS15      -0.1314
     33  N          7.0380    5.2360   -1.4470 N.3    21  VAL21      -0.1245
     34  CA         8.1240    5.6270   -0.5520 C.3    21  VAL21       0.1561
     35  C          9.4510    5.3740   -1.2670 C.2    21  VAL21       0.2260
     36  O          9.6270    4.3340   -1.9090 O.2    21  VAL21      -0.2867
     37  CB         8.0820    4.8460    0.7910 C.3    21  VAL21       0.0252
     38  CG1        9.1160    5.3930    1.7690 C.3    21  VAL21       0.0019
     39  CG2        6.6980    4.9240    1.4130 C.3    21  VAL21       0.0019
     40  N         13.9960    8.3210    4.1260 N.3    34  ALA34      -0.1245
     41  CA        12.9310    7.8590    3.2690 C.3    34  ALA34       0.1562
     42  C         12.0240    9.0460    2.9460 C.2    34  ALA34       0.2260
     43  O         11.8370    9.9490    3.7740 O.2    34  ALA34      -0.2867
     44  CB        12.1610    6.7400    3.9460 C.3    34  ALA34       0.0290
     45  N          8.2030    9.6640    1.6940 N.3    36  LYS36      -0.1245
     46  CA         6.8780    9.1940    1.3480 C.3    36  LYS36       0.1561
     47  C          6.1960   10.2810    0.5370 C.2    36  LYS36       0.2260
     48  O          6.0550   11.4030    1.0040 O.2    36  LYS36      -0.2867
     49  CB         6.0510    8.8970    2.5950 C.3    36  LYS36       0.0271
     50  CG         4.7160    8.2490    2.2800 C.3    36  LYS36       0.0035
     51  CD         4.0420    7.7290    3.5430 C.3    36  LYS36       0.0206
     52  CE         3.1140    6.5780    3.2220 C.3    36  LYS36       0.1093
     53  NZ         2.7980    5.7920    4.4540 N.3    36  LYS36      -0.1314
     54  N         -2.4920   11.8370   11.3400 N.3    55  GLU55      -0.1245
     55  CA        -1.3010   10.9780   11.3620 C.3    55  GLU55       0.1567
     56  C         -0.0120   11.7920   11.3940 C.2    55  GLU55       0.2260
     57  O          0.9230   11.4580   12.1270 O.2    55  GLU55      -0.2867
     58  CB        -1.2730   10.0340   10.1550 C.3    55  GLU55       0.0388
     59  CG        -2.3200    8.9390   10.1880 C.3    55  GLU55       0.1160
     60  CD        -2.1960    7.9690    9.0320 C.2    55  GLU55       0.3649
     61  OE1       -1.0820    7.4640    8.7840 O.co2  55  GLU55      -0.2457
     62  OE2       -3.2250    7.6880    8.3820 O.co2  55  GLU55      -0.2457
     63  N          2.6170   11.6670   14.5440 N.3    59  GLN59      -0.1245
     64  CA         3.9610   11.1660   14.3030 C.3    59  GLN59       0.1566
     65  C          5.0710   12.2280   14.3300 C.2    59  GLN59       0.2260
     66  O          6.1830   11.9450   14.7940 O.2    59  GLN59      -0.2867
     67  CB         4.0220   10.3700   13.0100 C.3    59  GLN59       0.0367
     68  CG         5.3310    9.6060   12.8390 C.3    59  GLN59       0.0905
     69  CD         5.2060    8.4650   11.8590 C.2    59  GLN59       0.2608
     70  OE1        4.1850    8.3240   11.1820 O.2    59  GLN59      -0.2717
     71  NE2        6.2440    7.6380   11.7770 N.am   59  GLN59      -0.0878
     72  N          9.5870    5.4130   14.4910 N.3    68  LEU68      -0.1245
     73  CA        10.1130    5.9410   13.2420 C.3    68  LEU68       0.1561
     74  C          9.9060    7.4550   13.2170 C.2    68  LEU68       0.2260
     75  O          8.7890    7.9500   13.3890 O.2    68  LEU68      -0.2867
     76  CB         9.4370    5.2740   12.0450 C.3    68  LEU68       0.0270
     77  CG        10.2060    5.4890   10.7320 C.3    68  LEU68       0.0019
     78  CD1       11.3920    4.5140   10.6420 C.3    68  LEU68       0.0001
     79  CD2        9.2730    5.3360    9.5420 C.3    68  LEU68       0.0001
     80  N          9.6290   11.2970   11.9490 N.3    70  MET70      -0.1245
     81  CA         9.2540   12.1590   10.8320 C.3    70  MET70       0.1570
     82  C          9.9820   13.4750   11.0630 C.2    70  MET70       0.2261
     83  O          9.6620   14.2250   11.9980 O.2    70  MET70      -0.2867
     84  CB         7.7330   12.3460   10.7380 C.3    70  MET70       0.0387
     85  CG         7.2570   13.1090    9.4610 C.3    70  MET70       0.0595
     86  SD         5.4660   13.3210    9.3850 S.3    70  MET70      -0.1393
     87  CE         4.9260   11.6560    9.0380 C.3    70  MET70       0.0692
     88  N          6.6780   13.4110    2.8450 N.3    82  LEU82      -0.1245
     89  CA         7.0030   13.2040    4.2500 C.3    82  LEU82       0.1561
     90  C          8.4390   12.7210    4.3740 C.2    82  LEU82       0.2260
     91  O          8.8160   11.7310    3.7560 O.2    82  LEU82      -0.2867
     92  CB         6.0270   12.2100    4.8970 C.3    82  LEU82       0.0270
     93  CG         4.5270   12.4680    4.6530 C.3    82  LEU82       0.0019
     94  CD1        3.6930   11.3860    5.3190 C.3    82  LEU82       0.0001
     95  CD2        4.0920   13.8610    5.1280 C.3    82  LEU82       0.0001
     96  N         11.0330   10.9510    6.3310 N.3    84  LEU84      -0.1231
     97  CA        10.9900    9.9010    7.3460 C.3    84  LEU84       0.1693
     98  C         12.3610    9.2730    7.5590 C.2    84  LEU84       0.2592
     99  O         13.1690    9.1670    6.6360 O.2    84  LEU84      -0.2718
    100  CB        10.0240    8.7900    6.9160 C.3    84  LEU84       0.0284
    101  CG         8.5640    9.1770    6.6470 C.3    84  LEU84       0.0019
    102  CD1        7.8610    8.0440    5.9670 C.3    84  LEU84       0.0001
    103  CD2        7.8630    9.5640    7.9410 C.3    84  LEU84       0.0001
    104  N         12.5950    8.8380    8.7880 N.am   85  GLU85      -0.1966
    105  CA        13.7420    8.0090    9.1200 C.3    85  GLU85       0.1733
    106  C         13.8030    6.7610    8.2400 C.2    85  GLU85       0.2616
    107  O         12.7910    6.0880    8.0430 O.2    85  GLU85      -0.2715
    108  CB        13.6280    7.5990   10.5960 C.3    85  GLU85       0.0429
    109  CG        14.7930    6.7710   11.1250 C.3    85  GLU85       0.1163
    110  CD        14.5620    6.3040   12.5520 C.2    85  GLU85       0.3649
    111  OE1       13.5790    6.7650   13.1710 O.co2  85  GLU85      -0.2457
    112  OE2       15.3620    5.4690   13.0470 O.co2  85  GLU85      -0.2457
    113  N         14.9880    6.4500    7.7130 N.am   86  PHE86      -0.1960
    114  CA        15.1760    5.2180    6.9540 C.3    86  PHE86       0.1771
    115  C         15.4990    4.0540    7.8950 C.2    86  PHE86       0.2619
    116  O         16.4090    4.1450    8.7160 O.2    86  PHE86      -0.2715
    117  CB        16.2650    5.3980    5.8790 C.3    86  PHE86       0.0574
    118  CG        16.6040    4.1360    5.1260 C.ar   86  PHE86      -0.0200
    119  CD1       15.6160    3.4070    4.4600 C.ar   86  PHE86      -0.0042
    120  CD2       17.9250    3.6820    5.0680 C.ar   86  PHE86      -0.0042
    121  CE1       15.9410    2.2310    3.7620 C.ar   86  PHE86      -0.0003
    122  CE2       18.2530    2.5160    4.3770 C.ar   86  PHE86      -0.0003
    123  CZ        17.2640    1.8000    3.7160 C.ar   86  PHE86      -0.0000
    124  N         14.7200    2.9850    7.7830 N.am   87  ALA87      -0.1964
    125  CA        14.9030    1.7810    8.5910 C.3    87  ALA87       0.1713
    126  C         15.5610    0.7190    7.7210 C.2    87  ALA87       0.2458
    127  O         14.8850    0.0380    6.9360 O.2    87  ALA87      -0.2730
    128  CB        13.5720    1.3020    9.1440 C.3    87  ALA87       0.0333
    129  N         16.8940    0.5950    7.8460 N.am   88  PRO88      -0.2716
    130  CA        17.7340   -0.1270    6.8840 C.3    88  PRO88       0.1536
    131  C         17.4220   -1.6070    6.7620 C.2    88  PRO88       0.2598
    132  O         17.6280   -2.1830    5.6880 O.2    88  PRO88      -0.2715
    133  CB        19.1580    0.0800    7.4230 C.3    88  PRO88       0.0310
    134  CG        19.0590    1.2240    8.3610 C.3    88  PRO88       0.0237
    135  CD        17.6910    1.1850    8.9330 C.3    88  PRO88       0.0939
    136  N         16.9160   -2.2130    7.8400 N.am   89  ARG89      -0.1964
    137  CA        16.5890   -3.6400    7.8300 C.3    89  ARG89       0.1729
    138  C         15.1420   -3.9540    7.4060 C.2    89  ARG89       0.2617
    139  O         14.7620   -5.1150    7.2780 O.2    89  ARG89      -0.2715
    140  CB        16.9490   -4.3080    9.1690 C.3    89  ARG89       0.0348
    141  CG        18.4470   -4.5320    9.3770 C.3    89  ARG89       0.0492
    142  CD        18.7110   -5.5850   10.4590 C.3    89  ARG89       0.2205
    143  NE        20.0890   -5.5510   10.9520 N.pl3  89  ARG89      -0.0865
    144  CZ        20.5470   -6.2740   11.9790 C.cat  89  ARG89       0.5346
    145  NH1       19.7450   -7.1070   12.6390 N.pl3  89  ARG89       0.1354
    146  NH2       21.8190   -6.1670   12.3500 N.pl3  89  ARG89       0.1354
    147  N         14.3460   -2.9150    7.1780 N.am   90  GLY90      -0.1940
    148  CA        13.0480   -3.0740    6.5320 C.3    90  GLY90       0.2014
    149  C         11.9200   -3.5960    7.4000 C.2    90  GLY90       0.2638
    150  O         11.9010   -3.3850    8.6150 O.2    90  GLY90      -0.2714
    151  N         10.9900   -4.3000    6.7600 N.am   91  GLU91      -0.1977
    152  CA         9.7400   -4.7280    7.3870 C.3    91  GLU91       0.1602
    153  C          9.9300   -5.8800    8.3730 C.2    91  GLU91       0.2287
    154  O         10.4840   -6.9270    8.0260 O.2    91  GLU91      -0.2864
    155  CB         8.7280   -5.1340    6.3090 C.3    91  GLU91       0.0415
    156  CG         8.3890   -4.0160    5.3360 C.3    91  GLU91       0.1163
    157  CD         7.2120   -3.1580    5.7720 C.2    91  GLU91       0.3649
    158  OE1        6.7980   -3.2090    6.9540 O.co2  91  GLU91      -0.2457
    159  OE2        6.6840   -2.4260    4.9080 O.co2  91  GLU91      -0.2457
    160  N          8.2030   -9.1650    7.2190 N.3    94  LYS94      -0.1245
    161  CA         8.9680   -9.9620    6.2370 C.3    94  LYS94       0.1561
    162  C          9.9570  -10.9030    6.9100 C.2    94  LYS94       0.2260
    163  O         10.1560  -12.0370    6.4610 O.2    94  LYS94      -0.2867
    164  CB         9.7130   -9.0590    5.2500 C.3    94  LYS94       0.0271
    165  CG         8.8440   -8.5190    4.1270 C.3    94  LYS94       0.0035
    166  CD         9.6520   -7.6360    3.1910 C.3    94  LYS94       0.0206
    167  CE         8.7340   -6.7800    2.3270 C.3    94  LYS94       0.1093
    168  NZ         9.4740   -5.6320    1.7210 N.3    94  LYS94      -0.1314
    169  N          9.8910  -14.9500    7.0350 N.3    98  LYS98      -0.1245
    170  CA        11.1130  -15.6240    6.6060 C.3    98  LYS98       0.1561
    171  C         11.5730  -16.6790    7.6140 C.2    98  LYS98       0.2260
    172  O         12.0290  -17.7470    7.2220 O.2    98  LYS98      -0.2867
    173  CB        12.2090  -14.5820    6.3690 C.3    98  LYS98       0.0271
    174  CG        13.5180  -15.0930    5.7640 C.3    98  LYS98       0.0035
    175  CD        14.0840  -14.0470    4.7980 C.3    98  LYS98       0.0206
    176  CE        14.2150  -12.6790    5.4670 C.3    98  LYS98       0.1093
    177  NZ        13.6790  -11.5830    4.5970 N.3    98  LYS98      -0.1314
    178  N          8.9490   -1.5360   11.6940 N.3   137  LEU137     -0.1245
    179  CA        10.1650   -1.6520   10.8890 C.3   137  LEU137      0.1561
    180  C         11.3740   -1.9500   11.7750 C.2   137  LEU137      0.2260
    181  O         11.2620   -1.9780   13.0040 O.2   137  LEU137     -0.2867
    182  CB        10.4010   -0.3900   10.0520 C.3   137  LEU137      0.0270
    183  CG         9.3070    0.0320    9.0630 C.3   137  LEU137      0.0019
    184  CD1        9.6610    1.3770    8.4200 C.3   137  LEU137      0.0001
    185  CD2        9.0690   -1.0320    8.0130 C.3   137  LEU137      0.0001
    186  N          6.1630    2.2780   12.9630 N.3   147  ALA147     -0.1231
    187  CA         6.2780    2.9910   11.6930 C.3   147  ALA147      0.1694
    188  C          5.0050    3.7020   11.2530 C.2   147  ALA147      0.2592
    189  O          5.0840    4.7690   10.6380 O.2   147  ALA147     -0.2718
    190  CB         6.7470    2.0370   10.6020 C.3   147  ALA147      0.0304
    191  N          3.8560    3.1060   11.5810 N.am  148  ASP148     -0.1974
    192  CA         2.5350    3.4840   11.0590 C.3   148  ASP148      0.1709
    193  C          1.6490    3.9450   12.2190 C.2   148  ASP148      0.2293
    194  O          1.5720    3.2660   13.2360 O.2   148  ASP148     -0.2864
    195  CB         1.9180    2.2560   10.3780 C.3   148  ASP148      0.1436
    196  CG         0.6590    2.5750    9.5820 C.2   148  ASP148      0.3671
    197  OD1       -0.3840    2.9110   10.1900 O.co2 148  ASP148     -0.2456
    198  OD2        0.7050    2.4420    8.3380 O.co2 148  ASP148     -0.2456
@<TRIPOS>BOND
     1    32    31    1
     2    31    30    1
     3    30    29    1
     4    29    28    1
     5     2     5    1
     6     2     1    1
     7     2     3    1
     8     5     6    1
     9     3     4    2
    10    28    25    1
    11     7     6    1
    12     7     8    1
    13    25    24    1
    14    25    26    1
    15     8     9    2
    16    24    22   am
    17    12    13    1
    18    23    22    2
    19    26    27    2
    20    22    21    1
    21    36    35    2
    22     9    10    1
    23     9    11    1
    24    33    34    1
    25    20    21    1
    26    20    14   am
    27    35    34    1
    28    13    14    1
    29    13    16    1
    30    14    15    2
    31    34    37    1
    32    16    17    1
    33    17    19    1
    34    17    18    1
    35    47    48    2
    36    47    46    1
    37    37    39    1
    38    37    38    1
    39    46    45    1
    40    46    49    1
    41   168   167    1
    42    50    49    1
    43    50    51    1
    44   167   166    1
    45    88    89    1
    46    42    41    1
    47    42    43    2
    48   166   165    1
    49    52    51    1
    50    52    53    1
    51    41    44    1
    52    41    40    1
    53   123   121   ar
    54   123   122   ar
    55    91    90    2
    56   121   119   ar
    57   165   164    1
    58    89    90    1
    59    89    92    1
    60   122   120   ar
    61   119   118   ar
    62   177   176    1
    63    93    92    1
    64    93    95    1
    65    93    94    1
    66   175   176    1
    67   175   174    1
    68   159   157   ar
    69   120   118   ar
    70   118   117    1
    71   164   161    1
    72   156   157    1
    73   156   155    1
    74   132   131    2
    75   174   173    1
    76   157   158   ar
    77   117   114    1
    78   102   101    1
    79   161   162    1
    80   161   160    1
    81   155   152    1
    82    96    97    1
    83   173   170    1
    84   163   162    2
    85   148   147    1
    86   148   149    1
    87   170   169    1
    88   170   171    1
    89    99    98    2
    90   101   100    1
    91   101   103    1
    92   151   152    1
    93   151   149   am
    94   131   130    1
    95   131   136   am
    96   130   133    1
    97   130   129    1
    98   100    97    1
    99   127   126    2
   100   114   113    1
   101   114   115    1
   102   147   138   am
   103   172   171    2
   104   139   138    2
   105    97    98    1
   106   152   153    1
   107   149   150    2
   108   138   137    1
   109   133   134    1
   110    98   104   am
   111   113   106   am
   112   126   129   am
   113   126   125    1
   114   124   115   am
   115   124   125    1
   116   137   136    1
   117   137   140    1
   118   129   135    1
   119   115   116    2
   120   185   183    1
   121   154   153    2
   122   107   106    2
   123   106   105    1
   124   198   196   ar
   125   134   135    1
   126    62    60   ar
   127   184   183    1
   128   125   128    1
   129    61    60   ar
   130   104   105    1
   131    60    59    1
   132    87    86    1
   133   183   182    1
   134   105   108    1
   135   140   141    1
   136   141   142    1
   137    86    85    1
   138    85    84    1
   139    79    77    1
   140   196   197   ar
   141   196   195    1
   142   182   179    1
   143    58    59    1
   144    58    55    1
   145   195   192    1
   146   142   143    1
   147   108   109    1
   148   190   187    1
   149   189   188    2
   150    78    77    1
   151    77    76    1
   152    84    81    1
   153    81    82    1
   154    81    80    1
   155   179   178    1
   156   179   180    1
   157   143   144    2
   158   192   191    1
   159   192   193    1
   160    82    83    2
   161   109   110    1
   162    70    69    2
   163   188   191   am
   164   188   187    1
   165    54    55    1
   166    55    56    1
   167    56    57    2
   168   187   186    1
   169   180   181    2
   170    71    69   am
   171    69    68    1
   172   144   146    1
   173   144   145    1
   174    76    73    1
   175   193   194    2
   176   110   112   ar
   177   110   111   ar
   178    68    67    1
   179    67    64    1
   180    74    73    1
   181    74    75    2
   182    73    72    1
   183    64    65    1
   184    64    63    1
   185    65    66    2
