@<TRIPOS>MOLECULE
tmp/4b8nB00.pdb
 176 172 0 0 0
SMALL
GASTEIGER

@<TRIPOS>ATOM
      1  N         -1.9750   29.9330   -0.2130 N.3    31  VAL31      -0.1245
      2  CA        -2.2350   28.4980   -0.3660 C.3    31  VAL31       0.1561
      3  C         -1.5590   27.7950    0.7800 C.2    31  VAL31       0.2260
      4  O         -0.4390   28.1520    1.1430 O.2    31  VAL31      -0.2867
      5  CB        -1.6690   27.9550   -1.6990 C.3    31  VAL31       0.0252
      6  CG1       -1.8620   26.4530   -1.8040 C.3    31  VAL31       0.0019
      7  CG2       -2.3250   28.6460   -2.8800 C.3    31  VAL31       0.0019
      8  N          0.2910   24.5690    2.1000 N.3    33  ILE33      -0.1245
      9  CA         1.0310   23.4110    1.6420 C.3    33  ILE33       0.1561
     10  C          1.7670   22.8140    2.8240 C.2    33  ILE33       0.2260
     11  O          2.5860   23.4890    3.4460 O.2    33  ILE33      -0.2867
     12  CB         2.0310   23.7620    0.5180 C.3    33  ILE33       0.0252
     13  CG1        1.2770   24.2240   -0.7320 C.3    33  ILE33       0.0019
     14  CG2        2.9140   22.5510    0.2060 C.3    33  ILE33       0.0019
     15  CD1        2.1100   25.0190   -1.7200 C.3    33  ILE33       0.0001
     16  N          1.4870   29.8800    2.4260 N.3    38  TYR38      -0.1241
     17  CA         2.3620   30.6360    1.5140 C.3    38  TYR38       0.1605
     18  C          1.5780   31.6920    0.7620 C.2    38  TYR38       0.2264
     19  O          0.5040   31.4140    0.2290 O.2    38  TYR38      -0.2867
     20  CB         2.9910   29.7200    0.4530 C.3    38  TYR38       0.0534
     21  CG         3.8920   28.6530    1.0190 C.ar   38  TYR38      -0.0201
     22  CD1        3.3730   27.4380    1.4840 C.ar   38  TYR38      -0.0009
     23  CD2        5.2700   28.8650    1.1060 C.ar   38  TYR38      -0.0009
     24  CE1        4.2130   26.4630    2.0140 C.ar   38  TYR38       0.0417
     25  CE2        6.1110   27.8910    1.6220 C.ar   38  TYR38       0.0417
     26  CZ         5.5830   26.7030    2.0820 C.ar   38  TYR38       0.1957
     27  OH         6.4450   25.7580    2.6020 O.3    38  TYR38      -0.2866
     28  N          1.4020   33.1350   -2.5630 N.3    40  LEU40      -0.1245
     29  CA         1.9050   32.8200   -3.9080 C.3    40  LEU40       0.1561
     30  C          1.6010   33.8830   -4.9620 C.2    40  LEU40       0.2260
     31  O          1.8490   33.6960   -6.1610 O.2    40  LEU40      -0.2867
     32  CB         1.4110   31.4410   -4.3570 C.3    40  LEU40       0.0270
     33  CG         1.9150   30.2990   -3.4530 C.3    40  LEU40       0.0019
     34  CD1        1.3680   28.9460   -3.9230 C.3    40  LEU40       0.0001
     35  CD2        3.4450   30.2950   -3.4030 C.3    40  LEU40       0.0001
     36  N          4.6430   34.7620   -7.1010 N.3    43  PHE43      -0.1241
     37  CA         5.1500   33.6030   -7.8310 C.3    43  PHE43       0.1605
     38  C          4.2650   33.2040   -9.0180 C.2    43  PHE43       0.2264
     39  O          4.7490   32.6600  -10.0260 O.2    43  PHE43      -0.2867
     40  CB         5.3300   32.4240   -6.8740 C.3    43  PHE43       0.0534
     41  CG         5.7490   31.1520   -7.5450 C.ar   43  PHE43      -0.0203
     42  CD1        6.9450   31.0840   -8.2450 C.ar   43  PHE43      -0.0042
     43  CD2        4.9630   30.0000   -7.4390 C.ar   43  PHE43      -0.0042
     44  CE1        7.3280   29.9130   -8.8740 C.ar   43  PHE43      -0.0003
     45  CE2        5.3550   28.8180   -8.0490 C.ar   43  PHE43      -0.0003
     46  CZ         6.5390   28.7780   -8.7660 C.ar   43  PHE43      -0.0000
     47  N          5.1420   30.4750  -12.1940 N.3    47  HIS47      -0.1227
     48  CA         4.8930   29.0370  -11.9760 C.3    47  HIS47       0.1737
     49  C          4.9640   28.2230  -13.2400 C.2    47  HIS47       0.2438
     50  O          4.1900   28.4530  -14.1780 O.2    47  HIS47      -0.2733
     51  CB         3.5470   28.8280  -11.2850 C.3    47  HIS47       0.0758
     52  CG         3.2390   27.3800  -10.9520 C.ar   47  HIS47       0.0818
     53  ND1        2.0480   26.8020  -11.2450 N.ar   47  HIS47      -0.2268
     54  CD2        3.9940   26.4130  -10.2990 C.ar   47  HIS47       0.1154
     55  CE1        2.0570   25.5240  -10.8130 C.ar   47  HIS47       0.1986
     56  NE2        3.2460   25.2910  -10.2280 N.ar   47  HIS47      -0.2212
     57  N          5.9010   27.2520  -13.2930 N.am   48  PRO48      -0.2718
     58  CA         6.0300   26.4630  -14.5150 C.3    48  PRO48       0.1535
     59  C          4.7910   25.6360  -14.8320 C.2    48  PRO48       0.2599
     60  O          4.5800   25.3250  -15.9950 O.2    48  PRO48      -0.2715
     61  CB         7.2280   25.5530  -14.2270 C.3    48  PRO48       0.0310
     62  CG         8.0280   26.3280  -13.2370 C.3    48  PRO48       0.0237
     63  CD         6.9840   26.9390  -12.3410 C.3    48  PRO48       0.0939
     64  N          3.9760   25.3100  -13.8230 N.am   49  GLY49      -0.1955
     65  CA         2.6980   24.6240  -14.0580 C.3    49  GLY49       0.1869
     66  C          1.5340   25.5420  -14.4230 C.2    49  GLY49       0.2309
     67  O          0.4060   25.0780  -14.5580 O.2    49  GLY49      -0.2863
     68  N         -3.5730   26.4320  -12.2320 N.3    53  ALA53      -0.1231
     69  CA        -3.3520   25.3100  -11.3220 C.3    53  ALA53       0.1694
     70  C         -3.2300   25.7940   -9.8800 C.2    53  ALA53       0.2591
     71  O         -3.7410   25.1490   -8.9640 O.2    53  ALA53      -0.2718
     72  CB        -2.1350   24.4930  -11.7430 C.3    53  ALA53       0.0304
     73  N         -2.5750   26.9460   -9.6860 N.am   54  ILE54      -0.1980
     74  CA        -2.4450   27.5410   -8.3550 C.3    54  ILE54       0.1595
     75  C         -3.7270   28.2770   -7.9360 C.2    54  ILE54       0.2287
     76  O         -4.1840   28.1520   -6.8090 O.2    54  ILE54      -0.2864
     77  CB        -1.1880   28.4550   -8.2630 C.3    54  ILE54       0.0276
     78  CG1        0.0960   27.6080   -8.3730 C.3    54  ILE54       0.0022
     79  CG2       -1.1640   29.2480   -6.9610 C.3    54  ILE54       0.0022
     80  CD1        1.3710   28.4340   -8.3980 C.3    54  ILE54       0.0001
     81  N         -6.3980   26.4410   -6.1920 N.3    57  PHE57      -0.1241
     82  CA        -6.2950   26.2050   -4.7460 C.3    57  PHE57       0.1605
     83  C         -6.1800   27.4600   -3.8920 C.2    57  PHE57       0.2264
     84  O         -5.8300   27.3740   -2.7200 O.2    57  PHE57      -0.2867
     85  CB        -5.1090   25.2820   -4.4510 C.3    57  PHE57       0.0534
     86  CG        -5.2620   23.9100   -5.0290 C.ar   57  PHE57      -0.0203
     87  CD1       -4.9630   23.6730   -6.3540 C.ar   57  PHE57      -0.0042
     88  CD2       -5.7550   22.8610   -4.2510 C.ar   57  PHE57      -0.0042
     89  CE1       -5.1150   22.4160   -6.8990 C.ar   57  PHE57      -0.0003
     90  CE2       -5.8940   21.5930   -4.7900 C.ar   57  PHE57      -0.0003
     91  CZ        -5.5760   21.3770   -6.1170 C.ar   57  PHE57      -0.0000
     92  N         -3.4790   22.6860   -0.5730 N.3    62  ALA62      -0.1245
     93  CA        -3.0970   22.0270   -1.8330 C.3    62  ALA62       0.1562
     94  C         -2.1060   20.8860   -1.6260 C.2    62  ALA62       0.2260
     95  O         -1.4820   20.4260   -2.5780 O.2    62  ALA62      -0.2867
     96  CB        -2.5100   23.0480   -2.8040 C.3    62  ALA62       0.0290
     97  N         -2.1530   17.3340   -3.6770 N.3    65  GLU65      -0.1231
     98  CA        -1.9380   17.6180   -5.1020 C.3    65  GLU65       0.1699
     99  C         -0.5660   18.2310   -5.3840 C.2    65  GLU65       0.2592
    100  O          0.0400   17.9530   -6.4160 O.2    65  GLU65      -0.2718
    101  CB        -3.0350   18.5560   -5.6170 C.3    65  GLU65       0.0402
    102  CG        -4.4480   17.9970   -5.4880 C.3    65  GLU65       0.1161
    103  CD        -5.1070   18.2540   -4.1460 C.2    65  GLU65       0.3649
    104  OE1       -4.4330   18.6190   -3.1620 O.co2  65  GLU65      -0.2457
    105  OE2       -6.3350   18.0740   -4.0540 O.co2  65  GLU65      -0.2457
    106  N         -0.0670   19.0690   -4.4720 N.am   66  PHE66      -0.1976
    107  CA         1.3100   19.5540   -4.5940 C.3    66  PHE66       0.1639
    108  C          2.2710   18.3680   -4.4660 C.2    66  PHE66       0.2290
    109  O          3.1810   18.2190   -5.2890 O.2    66  PHE66      -0.2864
    110  CB         1.6200   20.6270   -3.5380 C.3    66  PHE66       0.0560
    111  CG         3.0600   21.0680   -3.5200 C.ar   66  PHE66      -0.0200
    112  CD1        3.9910   20.4100   -2.7110 C.ar   66  PHE66      -0.0042
    113  CD2        3.4880   22.1550   -4.2870 C.ar   66  PHE66      -0.0042
    114  CE1        5.3220   20.8100   -2.6810 C.ar   66  PHE66      -0.0003
    115  CE2        4.8290   22.5600   -4.2620 C.ar   66  PHE66      -0.0003
    116  CZ         5.7400   21.8810   -3.4560 C.ar   66  PHE66      -0.0000
    117  N          2.8460   16.1100   -7.5250 N.3    69  LEU69      -0.1231
    118  CA         3.4920   16.7010   -8.6950 C.3    69  LEU69       0.1693
    119  C          4.9000   17.2730   -8.4700 C.2    69  LEU69       0.2592
    120  O          5.6140   17.5110   -9.4360 O.2    69  LEU69      -0.2718
    121  CB         2.5860   17.7690   -9.3260 C.3    69  LEU69       0.0284
    122  CG         1.1990   17.3110   -9.8010 C.3    69  LEU69       0.0019
    123  CD1        0.2380   18.4900   -9.8120 C.3    69  LEU69       0.0001
    124  CD2        1.2580   16.6480  -11.1710 C.3    69  LEU69       0.0001
    125  N          5.2960   17.5100   -7.2180 N.am   70  HIS70      -0.1962
    126  CA         6.5710   18.2090   -6.9550 C.3    70  HIS70       0.1772
    127  C          7.4370   17.5140   -5.9520 C.2    70  HIS70       0.2462
    128  O          6.9310   17.0090   -4.9420 O.2    70  HIS70      -0.2730
    129  CB         6.3530   19.6270   -6.4080 C.3    70  HIS70       0.0785
    130  CG         5.2910   20.4250   -7.1080 C.ar   70  HIS70       0.0821
    131  ND1        3.9770   20.1410   -6.9960 N.ar   70  HIS70      -0.2267
    132  CD2        5.3810   21.5580   -7.8880 C.ar   70  HIS70       0.1154
    133  CE1        3.2680   21.0360   -7.6850 C.ar   70  HIS70       0.1986
    134  NE2        4.1290   21.9160   -8.2260 N.ar   70  HIS70      -0.2212
    135  N          8.7680   17.5320   -6.1670 N.am   71  PRO71      -0.2727
    136  CA         9.6260   17.2440   -5.0130 C.3    71  PRO71       0.1402
    137  C          9.5820   18.4470   -4.0640 C.2    71  PRO71       0.2269
    138  O          9.3280   19.5610   -4.5110 O.2    71  PRO71      -0.2865
    139  CB        11.0170   17.0760   -5.6260 C.3    71  PRO71       0.0296
    140  CG        10.9740   17.8590   -6.9030 C.3    71  PRO71       0.0237
    141  CD         9.5350   17.9120   -7.3690 C.3    71  PRO71       0.0939
    142  N         11.3700   22.3340   -4.3980 N.3    74  VAL74      -0.1231
    143  CA        10.9210   23.5090   -5.1780 C.3    74  VAL74       0.1692
    144  C         10.5580   24.6820   -4.2600 C.2    74  VAL74       0.2591
    145  O         10.7160   25.8490   -4.6370 O.2    74  VAL74      -0.2718
    146  CB         9.7500   23.1990   -6.1530 C.3    74  VAL74       0.0266
    147  CG1       10.1630   22.1360   -7.1510 C.3    74  VAL74       0.0020
    148  CG2        8.4820   22.7910   -5.3890 C.3    74  VAL74       0.0020
    149  N         10.0790   24.3690   -3.0520 N.am   75  LEU75      -0.1980
    150  CA         9.6400   25.3970   -2.1180 C.3    75  LEU75       0.1596
    151  C         10.8130   26.3200   -1.7540 C.2    75  LEU75       0.2287
    152  O         10.6550   27.5360   -1.7040 O.2    75  LEU75      -0.2864
    153  CB         9.0120   24.7740   -0.8560 C.3    75  LEU75       0.0297
    154  CG         7.7100   23.9730   -1.0770 C.3    75  LEU75       0.0022
    155  CD1        7.3320   23.1800    0.1720 C.3    75  LEU75       0.0001
    156  CD2        6.5480   24.8760   -1.4990 C.3    75  LEU75       0.0001
    157  N         12.1230   28.4210   -5.4580 N.3    78  TYR78      -0.1227
    158  CA        11.3760   29.3300   -6.3010 C.3    78  TYR78       0.1736
    159  C         10.7580   30.4940   -5.5400 C.2    78  TYR78       0.2595
    160  O         10.2670   31.4460   -6.1480 O.2    78  TYR78      -0.2718
    161  CB        10.2770   28.5620   -7.0460 C.3    78  TYR78       0.0548
    162  CG        10.7890   27.7380   -8.1880 C.ar   78  TYR78      -0.0200
    163  CD1       11.2700   26.4480   -7.9800 C.ar   78  TYR78      -0.0009
    164  CD2       10.7760   28.2480   -9.4980 C.ar   78  TYR78      -0.0009
    165  CE1       11.7640   25.6880   -9.0240 C.ar   78  TYR78       0.0417
    166  CE2       11.2650   27.4990  -10.5550 C.ar   78  TYR78       0.0417
    167  CZ        11.7490   26.2130  -10.3080 C.ar   78  TYR78       0.1957
    168  OH        12.2230   25.4620  -11.3460 O.3    78  TYR78      -0.2866
    169  N         10.7920   30.4170   -4.2190 N.am   79  LEU79      -0.1980
    170  CA        10.0150   31.3260   -3.3850 C.3    79  LEU79       0.1596
    171  C         10.9080   32.1810   -2.5150 C.2    79  LEU79       0.2287
    172  O         11.8600   31.6820   -1.9300 O.2    79  LEU79      -0.2864
    173  CB         9.0870   30.5110   -2.4870 C.3    79  LEU79       0.0297
    174  CG         8.0130   29.6220   -3.1480 C.3    79  LEU79       0.0022
    175  CD1        7.1310   28.9940   -2.0720 C.3    79  LEU79       0.0001
    176  CD2        7.1540   30.4110   -4.1330 C.3    79  LEU79       0.0001
@<TRIPOS>BOND
     1    60    59    2
     2    59    58    1
     3    59    64   am
     4    67    66    2
     5    58    61    1
     6    58    57    1
     7    66    65    1
     8    61    62    1
     9    50    49    2
    10    65    64    1
    11    57    49   am
    12    57    63    1
    13    49    48    1
    14    62    63    1
    15    68    69    1
    16    47    48    1
    17    48    51    1
    18    72    69    1
    19   168   167    1
    20    69    70    1
    21    51    52    1
    22    53    52   ar
    23    53    55   ar
    24   124   122    1
    25    52    54   ar
    26    55    56   ar
    27   166   167   ar
    28   166   164   ar
    29   167   165   ar
    30    54    56   ar
    31    39    38    2
    32    70    73   am
    33    70    71    2
    34   123   122    1
    35   122   121    1
    36    73    74    1
    37   164   162   ar
    38   120   119    2
    39   121   118    1
    40   165   163   ar
    41    38    37    1
    42    44    46   ar
    43    44    42   ar
    44    46    45   ar
    45   118   119    1
    46   118   117    1
    47   119   125   am
    48    80    78    1
    49    78    77    1
    50    74    77    1
    51    74    75    1
    52    77    79    1
    53    42    41   ar
    54   134   132   ar
    55   134   133   ar
    56   162   163   ar
    57   162   161    1
    58    45    43   ar
    59    75    76    2
    60   132   130   ar
    61    37    36    1
    62    37    40    1
    63   133   131   ar
    64    41    43   ar
    65    41    40    1
    66   141   140    1
    67   141   135    1
    68   125   126    1
    69   147   146    1
    70   130   131   ar
    71   130   129    1
    72   161   158    1
    73   126   129    1
    74   126   127    1
    75   140   139    1
    76    89    87   ar
    77    89    91   ar
    78   100    99    2
    79    87    86   ar
    80   158   159    1
    81   158   157    1
    82    81    82    1
    83   135   127   am
    84   135   136    1
    85    31    30    2
    86   146   148    1
    87   146   143    1
    88   160   159    2
    89    91    90   ar
    90   127   128    2
    91   139   136    1
    92   101   102    1
    93   101    98    1
    94   159   169   am
    95   102   103    1
    96    99    98    1
    97    99   106   am
    98   109   108    2
    99   143   142    1
   100   143   144    1
   101    98    97    1
   102    86    85    1
   103    86    88   ar
   104   136   137    1
   105    30    29    1
   106    90    88   ar
   107    82    85    1
   108    82    83    1
   109   145   144    2
   110   107   106    1
   111   107   108    1
   112   107   110    1
   113   138   137    2
   114    32    29    1
   115    32    33    1
   116   113   115   ar
   117   113   111   ar
   118   115   116   ar
   119   144   149   am
   120   169   170    1
   121   103   105   ar
   122   103   104   ar
   123   176   174    1
   124    34    33    1
   125    29    28    1
   126    83    84    2
   127   110   111    1
   128   111   112   ar
   129   116   114   ar
   130    33    35    1
   131   170   171    1
   132   170   173    1
   133   174   173    1
   134   174   175    1
   135   149   150    1
   136     7     5    1
   137    96    93    1
   138   112   114   ar
   139    95    94    2
   140   171   172    2
   141   150   151    1
   142   150   153    1
   143    93    94    1
   144    93    92    1
   145     6     5    1
   146   151   152    2
   147    15    13    1
   148     5     2    1
   149   156   154    1
   150   154   153    1
   151   154   155    1
   152    13    12    1
   153     2     1    1
   154     2     3    1
   155    14    12    1
   156    19    18    2
   157    20    21    1
   158    20    17    1
   159    12     9    1
   160    18    17    1
   161     3     4    2
   162    21    23   ar
   163    21    22   ar
   164    23    25   ar
   165    22    24   ar
   166    17    16    1
   167    25    26   ar
   168     9     8    1
   169     9    10    1
   170    24    26   ar
   171    26    27    1
   172    10    11    2
