@<TRIPOS>MOLECULE
tmp/4b8rA02.pdb
 114 103 0 0 0
SMALL
GASTEIGER

@<TRIPOS>ATOM
      1  N         49.2710   17.3340  -30.3960 N.3    38  ASN38      -0.1240
      2  CA        50.2580   16.5810  -29.6830 C.3    38  ASN38       0.1653
      3  C         49.7520   15.3950  -28.8330 C.2    38  ASN38       0.2266
      4  O         48.9810   15.5380  -27.8940 O.2    38  ASN38      -0.2867
      5  CB        51.2020   17.5090  -28.8420 C.3    38  ASN38       0.1155
      6  CG        50.3970   18.4500  -27.8900 C.2    38  ASN38       0.2627
      7  OD1       49.2420   18.7970  -28.1380 O.2    38  ASN38      -0.2716
      8  ND2       50.9940   18.7520  -26.7560 N.am   38  ASN38      -0.0877
      9  N         51.5460   11.6280  -27.2630 N.3    40  ASN40      -0.1240
     10  CA        52.7850   10.8070  -27.0930 C.3    40  ASN40       0.1653
     11  C         52.5330    9.8200  -25.9380 C.2    40  ASN40       0.2266
     12  O         51.3330    9.5380  -25.5770 O.2    40  ASN40      -0.2867
     13  CB        53.9990   11.6770  -26.8290 C.3    40  ASN40       0.1155
     14  CG        53.7980   12.5700  -25.5620 C.2    40  ASN40       0.2627
     15  OD1       53.2930   13.6140  -25.6960 O.2    40  ASN40      -0.2716
     16  ND2       54.2100   12.1240  -24.3790 N.am   40  ASN40      -0.0877
     17  N         53.8000    8.7680  -22.1050 N.3    42  ASP42      -0.1239
     18  CA        54.5560    9.1840  -20.8930 C.3    42  ASP42       0.1674
     19  C         54.9380    7.9410  -20.0670 C.2    42  ASP42       0.2266
     20  O         54.0520    7.2240  -19.6300 O.2    42  ASP42      -0.2867
     21  CB        53.5740   10.0320  -20.0500 C.3    42  ASP42       0.1410
     22  CG        53.5070   11.4970  -20.5870 C.2    42  ASP42       0.3668
     23  OD1       54.3450   11.8380  -21.4360 O.co2  42  ASP42      -0.2456
     24  OD2       52.6510   12.2610  -20.0900 O.co2  42  ASP42      -0.2456
     25  N         62.5880   19.9250  -18.5230 N.3    96  GLU96      -0.1245
     26  CA        62.3820   18.9810  -19.6390 C.3    96  GLU96       0.1567
     27  C         63.4530   19.2190  -20.6580 C.2    96  GLU96       0.2260
     28  O         63.5900   20.3570  -21.1590 O.2    96  GLU96      -0.2867
     29  CB        60.9500   19.1060  -20.1780 C.3    96  GLU96       0.0388
     30  CG        60.7130   18.2840  -21.4610 C.3    96  GLU96       0.1160
     31  CD        59.2740   18.2750  -21.9250 C.2    96  GLU96       0.3649
     32  OE1       58.3910   18.7260  -21.1860 O.co2  96  GLU96      -0.2457
     33  OE2       59.0250   17.8240  -23.0640 O.co2  96  GLU96      -0.2457
     34  N         51.3210    5.8870  -19.3270 N.3   117  ARG117     -0.1245
     35  CA        50.0280    6.5250  -19.5740 C.3   117  ARG117      0.1563
     36  C         50.1180    7.3930  -20.8410 C.2   117  ARG117      0.2260
     37  O         51.2010    7.7210  -21.3200 O.2   117  ARG117     -0.2867
     38  CB        49.5610    7.3550  -18.3560 C.3   117  ARG117      0.0307
     39  CG        50.4740    8.5520  -18.1310 C.3   117  ARG117      0.0489
     40  CD        50.0740    9.3000  -16.8210 C.3   117  ARG117      0.2205
     41  NE        50.9480   10.4740  -16.5210 N.pl3 117  ARG117     -0.0865
     42  CZ        50.9400   11.1530  -15.3770 C.cat 117  ARG117      0.5346
     43  NH1       50.0730   10.8190  -14.4270 N.pl3 117  ARG117      0.1354
     44  NH2       51.7560   12.1950  -15.1980 N.pl3 117  ARG117      0.1354
     45  N         50.2990   10.4970  -23.1410 N.3   119  GLY119     -0.1210
     46  CA        50.8380   11.8220  -22.9410 C.3   119  GLY119      0.1956
     47  C         50.4100   12.7930  -24.0380 C.2   119  GLY119      0.2612
     48  O         49.8060   12.3850  -25.0360 O.2   119  GLY119     -0.2717
     49  N         50.7390   14.0780  -23.8770 N.am  120  GLY120     -0.1942
     50  CA        50.4610   15.0660  -24.9150 C.3   120  GLY120      0.2014
     51  C         49.1050   15.6630  -24.5950 C.2   120  GLY120      0.2638
     52  O         48.1610   14.9690  -24.1320 O.2   120  GLY120     -0.2714
     53  N         48.9340   16.9800  -24.8740 N.am  121  GLN121     -0.1977
     54  CA        47.6770   17.6300  -24.5090 C.3   121  GLN121      0.1601
     55  C         46.4710   17.0950  -25.2390 C.2   121  GLN121      0.2287
     56  O         45.4300   16.9260  -24.6410 O.2   121  GLN121     -0.2864
     57  CB        47.8330   19.1730  -24.7630 C.3   121  GLN121      0.0394
     58  CG        48.8880   19.7890  -23.7990 C.3   121  GLN121      0.0908
     59  CD        49.3420   21.0990  -24.3810 C.2   121  GLN121      0.2608
     60  OE1       50.2030   21.1730  -25.2990 O.2   121  GLN121     -0.2717
     61  NE2       48.6880   22.1450  -23.9550 N.am  121  GLN121     -0.0878
     62  N         45.8420   13.3340  -23.8220 N.3   124  ILE124     -0.1245
     63  CA        45.2200   13.2800  -22.4900 C.3   124  ILE124      0.1561
     64  C         43.7750   13.7170  -22.5350 C.2   124  ILE124      0.2260
     65  O         42.9150   13.1670  -21.8650 O.2   124  ILE124     -0.2867
     66  CB        46.0480   14.1140  -21.4730 C.3   124  ILE124      0.0252
     67  CG1       47.4440   13.4810  -21.2820 C.3   124  ILE124      0.0019
     68  CG2       45.3540   14.1810  -20.1260 C.3   124  ILE124      0.0019
     69  CD1       48.3930   14.3750  -20.5290 C.3   124  ILE124      0.0001
     70  N         58.1080   10.1500  -23.5040 N.3   184  HIS184     -0.1241
     71  CA        58.7040   11.1640  -22.6120 C.3   184  HIS184      0.1621
     72  C         58.8730   10.4790  -21.2410 C.2   184  HIS184      0.2264
     73  O         57.9180   10.0270  -20.6820 O.2   184  HIS184     -0.2867
     74  CB        57.7180   12.3050  -22.4330 C.3   184  HIS184      0.0745
     75  CG        57.3970   13.0720  -23.7090 C.ar  184  HIS184      0.0817
     76  ND1       56.8370   14.3110  -23.6750 N.ar  184  HIS184     -0.2268
     77  CD2       57.4720   12.7040  -25.1000 C.ar  184  HIS184      0.1154
     78  CE1       56.6090   14.7810  -24.9630 C.ar  184  HIS184      0.1986
     79  NE2       56.9850   13.7970  -25.8450 N.ar  184  HIS184     -0.2212
     80  N         59.4790   10.5400  -17.4930 N.3   186  ILE186     -0.1245
     81  CA        59.1450   11.4930  -16.4260 C.3   186  ILE186      0.1561
     82  C         59.6730   10.9130  -15.1060 C.2   186  ILE186      0.2260
     83  O         59.1120    9.9290  -14.5600 O.2   186  ILE186     -0.2867
     84  CB        57.6270   11.6550  -16.3280 C.3   186  ILE186      0.0252
     85  CG1       57.0540   12.1180  -17.6910 C.3   186  ILE186      0.0019
     86  CG2       57.3200   12.6830  -15.2420 C.3   186  ILE186      0.0019
     87  CD1       55.5560   12.2870  -17.7130 C.3   186  ILE186      0.0001
     88  N         61.9170   15.7110  -16.9900 N.3   207  ILE207     -0.1245
     89  CA        61.3860   15.0150  -18.1840 C.3   207  ILE207      0.1561
     90  C         62.4860   14.8400  -19.2140 C.2   207  ILE207      0.2260
     91  O         63.1560   15.8240  -19.6020 O.2   207  ILE207     -0.2867
     92  CB        60.1530   15.6580  -18.7700 C.3   207  ILE207      0.0252
     93  CG1       59.0040   15.5560  -17.7830 C.3   207  ILE207      0.0019
     94  CG2       59.7350   14.9590  -20.0910 C.3   207  ILE207      0.0019
     95  CD1       57.7690   16.4220  -18.1090 C.3   207  ILE207      0.0001
     96  N         49.6950   16.7710  -12.6280 N.3   447  VAL447     -0.1231
     97  CA        49.9390   16.9560  -14.0930 C.3   447  VAL447      0.1692
     98  C         48.6850   16.6460  -14.9310 C.2   447  VAL447      0.2592
     99  O         47.8530   15.8610  -14.4690 O.2   447  VAL447     -0.2718
    100  CB        51.1750   16.1260  -14.5650 C.3   447  VAL447      0.0266
    101  CG1       51.0250   15.5570  -15.9910 C.3   447  VAL447      0.0020
    102  CG2       52.4640   16.9430  -14.3600 C.3   447  VAL447      0.0020
    103  N         48.5460   17.2620  -16.1250 N.am  448  GLY448     -0.1957
    104  CA        47.3150   17.2300  -16.9010 C.3   448  GLY448      0.1869
    105  C         46.1430   18.1210  -16.4240 C.2   448  GLY448      0.2309
    106  O         45.0500   18.0690  -16.9950 O.2   448  GLY448     -0.2863
    107  N         45.0400   21.4380  -18.7380 N.3   451  ASP451     -0.1239
    108  CA        44.2230   20.9610  -19.8960 C.3   451  ASP451      0.1674
    109  C         42.8610   20.5050  -19.5100 C.2   451  ASP451      0.2266
    110  O         41.8800   20.8690  -20.2220 O.2   451  ASP451     -0.2867
    111  CB        44.9930   19.8290  -20.6560 C.3   451  ASP451      0.1410
    112  CG        46.2990   20.3760  -21.2200 C.2   451  ASP451      0.3668
    113  OD1       46.2440   21.2150  -22.1510 O.co2 451  ASP451     -0.2456
    114  OD2       47.3670   20.0960  -20.6350 O.co2 451  ASP451     -0.2456
@<TRIPOS>BOND
     1     1     2    1
     2     2     5    1
     3     2     3    1
     4     5     6    1
     5     3     4    2
     6     7     6    2
     7     6     8   am
     8     9    10    1
     9    10    13    1
    10    10    11    1
    11    13    14    1
    12    11    12    2
    13    79    77   ar
    14    79    78   ar
    15    15    14    2
    16    14    16   am
    17    60    59    2
    18    55    56    2
    19    55    54    1
    20    77    75   ar
    21    48    47    2
    22    78    76   ar
    23    50    51    1
    24    50    49    1
    25    53    51   am
    26    53    54    1
    27    57    54    1
    28    57    58    1
    29    51    52    2
    30    59    61   am
    31    59    58    1
    32    47    49   am
    33    47    46    1
    34    62    63    1
    35    75    76   ar
    36    75    74    1
    37    70    71    1
    38    45    46    1
    39    33    31   ar
    40    71    74    1
    41    71    72    1
    42    64    63    1
    43    64    65    2
    44    63    66    1
    45   113   112   ar
    46    17    18    1
    47    31    30    1
    48    31    32   ar
    49    66    67    1
    50    66    68    1
    51    30    29    1
    52    23    22   ar
    53    37    36    2
    54    67    69    1
    55    72    73    2
    56   112   111    1
    57   112   114   ar
    58    28    27    2
    59    18    19    1
    60    18    21    1
    61    36    35    1
    62    27    26    1
    63   111   108    1
    64    22    24   ar
    65    22    21    1
    66   110   109    2
    67    29    26    1
    68    94    92    1
    69    19    20    2
    70   108   109    1
    71   108   107    1
    72    26    25    1
    73    91    90    2
    74    35    34    1
    75    35    38    1
    76    90    89    1
    77    92    89    1
    78    92    93    1
    79    38    39    1
    80    89    88    1
    81    39    40    1
    82    95    93    1
    83    87    85    1
    84    85    84    1
    85    80    81    1
    86   106   105    2
    87   104   105    1
    88   104   103    1
    89    40    41    1
    90    41    42    2
    91    81    84    1
    92    81    82    1
    93    84    86    1
    94   103    98   am
    95   101   100    1
    96    42    44    1
    97    42    43    1
    98    82    83    2
    99    98    99    2
   100    98    97    1
   101   100   102    1
   102   100    97    1
   103    97    96    1
