@<TRIPOS>MOLECULE
tmp/4b8rA06.pdb
 86 83 0 0 0
SMALL
GASTEIGER

@<TRIPOS>ATOM
      1  N         52.8540    3.5060  -17.2610 N.3   116  LEU116     -0.1231
      2  CA        52.7350    4.0610  -18.5960 C.3   116  LEU116      0.1693
      3  C         51.3630    4.6720  -18.7610 C.2   116  LEU116      0.2592
      4  O         50.3360    4.0480  -18.4030 O.2   116  LEU116     -0.2718
      5  CB        52.9330    2.9170  -19.6480 C.3   116  LEU116      0.0284
      6  CG        53.5990    3.3100  -20.9200 C.3   116  LEU116      0.0019
      7  CD1       54.9960    3.7550  -20.6520 C.3   116  LEU116      0.0001
      8  CD2       53.7180    2.0750  -21.8260 C.3   116  LEU116      0.0001
      9  N         51.3210    5.8870  -19.3270 N.am  117  ARG117     -0.1966
     10  CA        50.0280    6.5250  -19.5740 C.3   117  ARG117      0.1729
     11  C         50.1180    7.3930  -20.8410 C.2   117  ARG117      0.2616
     12  O         51.2010    7.7210  -21.3200 O.2   117  ARG117     -0.2715
     13  CB        49.5610    7.3550  -18.3560 C.3   117  ARG117      0.0348
     14  CG        50.4740    8.5520  -18.1310 C.3   117  ARG117      0.0492
     15  CD        50.0740    9.3000  -16.8210 C.3   117  ARG117      0.2205
     16  NE        50.9480   10.4740  -16.5210 N.pl3 117  ARG117     -0.0865
     17  CZ        50.9400   11.1530  -15.3770 C.cat 117  ARG117      0.5346
     18  NH1       50.0730   10.8190  -14.4270 N.pl3 117  ARG117      0.1354
     19  NH2       51.7560   12.1950  -15.1980 N.pl3 117  ARG117      0.1354
     20  N         48.9580    7.7080  -21.4060 N.am  118  ILE118     -0.1977
     21  CA        48.8960    8.5940  -22.5990 C.3   118  ILE118      0.1596
     22  C         49.5280    9.9250  -22.2270 C.2   118  ILE118      0.2287
     23  O         49.2830   10.4080  -21.0820 O.2   118  ILE118     -0.2864
     24  CB        47.4270    8.7790  -23.0740 C.3   118  ILE118      0.0276
     25  CG1       47.3430    9.3740  -24.4720 C.3   118  ILE118      0.0022
     26  CG2       46.5730    9.6490  -22.1970 C.3   118  ILE118      0.0022
     27  CD1       47.2910    8.3170  -25.5170 C.3   118  ILE118      0.0001
     28  N         41.3130   10.9220  -23.7300 N.3   127  ASN127     -0.1240
     29  CA        40.8690   10.0390  -22.6780 C.3   127  ASN127      0.1653
     30  C         39.8190   10.6780  -21.7590 C.2   127  ASN127      0.2266
     31  O         38.8660    9.9830  -21.3270 O.2   127  ASN127     -0.2867
     32  CB        42.0610    9.4970  -21.8630 C.3   127  ASN127      0.1155
     33  CG        42.6860    8.2910  -22.5550 C.2   127  ASN127      0.2627
     34  OD1       42.1280    7.8030  -23.5280 O.2   127  ASN127     -0.2716
     35  ND2       43.8460    7.8520  -22.1170 N.am  127  ASN127     -0.0877
     36  N         47.2980    1.6160  -27.4930 N.3   150  GLU150     -0.1231
     37  CA        46.5560    0.9100  -26.3950 C.3   150  GLU150      0.1699
     38  C         46.5450    1.7020  -25.1020 C.2   150  GLU150      0.2592
     39  O         46.0170    1.2470  -24.0990 O.2   150  GLU150     -0.2718
     40  CB        47.2050   -0.5030  -26.1200 C.3   150  GLU150      0.0402
     41  CG        46.7460   -1.3970  -27.2850 C.3   150  GLU150      0.1161
     42  CD        47.2850   -2.8280  -27.2130 C.2   150  GLU150      0.3649
     43  OE1       48.2150   -3.0790  -26.3760 O.co2 150  GLU150     -0.2457
     44  OE2       46.7550   -3.6480  -27.9960 O.co2 150  GLU150     -0.2457
     45  N         47.0530    2.9270  -25.1550 N.am  151  LEU151     -0.1966
     46  CA        47.0050    3.8370  -23.9930 C.3   151  LEU151      0.1728
     47  C         45.6740    4.6040  -24.0100 C.2   151  LEU151      0.2616
     48  O         45.3150    5.2340  -22.9960 O.2   151  LEU151     -0.2715
     49  CB        48.2510    4.7730  -23.9210 C.3   151  LEU151      0.0311
     50  CG        49.5190    4.0620  -23.4550 C.3   151  LEU151      0.0022
     51  CD1       50.7280    4.9100  -23.6420 C.3   151  LEU151      0.0001
     52  CD2       49.4110    3.4930  -22.0100 C.3   151  LEU151      0.0001
     53  N         44.9250    4.5540  -25.1240 N.am  152  PHE152     -0.1960
     54  CA        43.6270    5.1890  -25.1640 C.3   152  PHE152      0.1771
     55  C         42.5800    4.3380  -24.4480 C.2   152  PHE152      0.2619
     56  O         42.6060    3.1390  -24.6010 O.2   152  PHE152     -0.2715
     57  CB        43.1960    5.4130  -26.6100 C.3   152  PHE152      0.0574
     58  CG        43.9290    6.5260  -27.2900 C.ar  152  PHE152     -0.0200
     59  CD1       43.5570    7.8840  -27.0640 C.ar  152  PHE152     -0.0042
     60  CD2       45.0120    6.2460  -28.1410 C.ar  152  PHE152     -0.0042
     61  CE1       44.2480    8.9060  -27.7470 C.ar  152  PHE152     -0.0003
     62  CE2       45.7290    7.2940  -28.7910 C.ar  152  PHE152     -0.0003
     63  CZ        45.3200    8.6140  -28.6040 C.ar  152  PHE152     -0.0000
     64  N         41.6830    4.9310  -23.6750 N.am  153  VAL153     -0.1963
     65  CA        40.6720    4.1100  -22.8990 C.3   153  VAL153      0.1727
     66  C         39.5170    3.7400  -23.7920 C.2   153  VAL153      0.2616
     67  O         39.3560    4.3070  -24.8870 O.2   153  VAL153     -0.2715
     68  CB        40.1580    4.8440  -21.6380 C.3   153  VAL153      0.0290
     69  CG1       41.2860    5.0340  -20.6180 C.3   153  VAL153      0.0023
     70  CG2       39.5730    6.2270  -22.0290 C.3   153  VAL153      0.0023
     71  N         38.6510    2.8150  -23.3460 N.am  154  ASP154     -0.1971
     72  CA        37.4740    2.5340  -24.1280 C.3   154  ASP154      0.1709
     73  C         36.4860    3.6860  -24.1860 C.2   154  ASP154      0.2293
     74  O         36.3270    4.3900  -23.2200 O.2   154  ASP154     -0.2864
     75  CB        36.6390    1.3660  -23.4610 C.3   154  ASP154      0.1436
     76  CG        37.3880    0.0530  -23.4080 C.2   154  ASP154      0.3671
     77  OD1       37.9590   -0.3750  -24.4270 O.co2 154  ASP154     -0.2456
     78  OD2       37.4270   -0.5450  -22.3140 O.co2 154  ASP154     -0.2456
     79  N         43.6820    9.7810  -11.7430 N.3   387  ASN387     -0.1240
     80  CA        43.1370    9.7920  -13.0770 C.3   387  ASN387      0.1653
     81  C         41.6360    9.4360  -13.0680 C.2   387  ASN387      0.2266
     82  O         41.2100    8.4960  -12.3950 O.2   387  ASN387     -0.2867
     83  CB        43.9040    8.8310  -13.9630 C.3   387  ASN387      0.1155
     84  CG        44.1250    9.4010  -15.3400 C.2   387  ASN387      0.2627
     85  OD1       45.2380    9.3630  -15.8530 O.2   387  ASN387     -0.2716
     86  ND2       43.0700   10.0050  -15.9230 N.am  387  ASN387     -0.0877
@<TRIPOS>BOND
     1    62    63   ar
     2    62    60   ar
     3    63    61   ar
     4    60    58   ar
     5    44    42   ar
     6    61    59   ar
     7    36    37    1
     8    58    59   ar
     9    58    57    1
    10    41    42    1
    11    41    40    1
    12    42    43   ar
    13    57    54    1
    14    37    40    1
    15    37    38    1
    16    27    25    1
    17    54    53    1
    18    54    55    1
    19    45    38   am
    20    45    46    1
    21    53    47   am
    22    38    39    2
    23    67    66    2
    24    56    55    2
    25    25    24    1
    26    55    64   am
    27    77    76   ar
    28    73    72    1
    29    73    74    2
    30    72    75    1
    31    72    71    1
    32    47    46    1
    33    47    48    2
    34    46    49    1
    35    49    50    1
    36    66    71   am
    37    66    65    1
    38    28    29    1
    39    64    65    1
    40    51    50    1
    41    34    33    2
    42    75    76    1
    43    50    52    1
    44    76    78   ar
    45    24    21    1
    46    24    26    1
    47    65    68    1
    48    29    32    1
    49    29    30    1
    50    21    22    1
    51    21    20    1
    52    33    35   am
    53    33    32    1
    54    22    23    2
    55    70    68    1
    56     8     6    1
    57    30    31    2
    58    68    69    1
    59    20    11   am
    60    12    11    2
    61     6     7    1
    62     6     5    1
    63    11    10    1
    64     5     2    1
    65    10     9    1
    66    10    13    1
    67     9     3   am
    68     3     2    1
    69     3     4    2
    70     2     1    1
    71    13    14    1
    72    14    15    1
    73    15    16    1
    74    16    17    2
    75    86    84   am
    76    85    84    2
    77    17    19    1
    78    17    18    1
    79    84    83    1
    80    83    80    1
    81    80    81    1
    82    80    79    1
    83    81    82    2
