@<TRIPOS>MOLECULE
tmp/4b8rA01.pdb
 80 73 0 0 0
SMALL
GASTEIGER

@<TRIPOS>ATOM
      1  N         48.9340   16.9800  -24.8740 N.3   121  GLN121     -0.1245
      2  CA        47.6770   17.6300  -24.5090 C.3   121  GLN121      0.1566
      3  C         46.4710   17.0950  -25.2390 C.2   121  GLN121      0.2260
      4  O         45.4300   16.9260  -24.6410 O.2   121  GLN121     -0.2867
      5  CB        47.8330   19.1730  -24.7630 C.3   121  GLN121      0.0367
      6  CG        48.8880   19.7890  -23.7990 C.3   121  GLN121      0.0905
      7  CD        49.3420   21.0990  -24.3810 C.2   121  GLN121      0.2608
      8  OE1       50.2030   21.1730  -25.2990 O.2   121  GLN121     -0.2717
      9  NE2       48.6880   22.1450  -23.9550 N.am  121  GLN121     -0.0878
     10  N         44.9350   26.3490  -26.7430 N.3   279  GLU279     -0.1245
     11  CA        45.6590   26.2640  -25.4750 C.3   279  GLU279      0.1567
     12  C         46.9680   27.0100  -25.6200 C.2   279  GLU279      0.2260
     13  O         47.8890   26.5680  -26.2710 O.2   279  GLU279     -0.2867
     14  CB        45.9230   24.7440  -25.0890 C.3   279  GLU279      0.0388
     15  CG        44.6210   23.9190  -25.0130 C.3   279  GLU279      0.1160
     16  CD        43.6550   24.3240  -23.9000 C.2   279  GLU279      0.3649
     17  OE1       43.6090   25.5290  -23.4820 O.co2 279  GLU279     -0.2457
     18  OE2       42.8580   23.4440  -23.4540 O.co2 279  GLU279     -0.2457
     19  N         49.8980   27.6570  -24.3780 N.3   281  ALA281     -0.1245
     20  CA        50.9450   27.2690  -23.4270 C.3   281  ALA281      0.1562
     21  C         52.1280   28.2230  -23.6760 C.2   281  ALA281      0.2260
     22  O         52.2660   28.7430  -24.7570 O.2   281  ALA281     -0.2867
     23  CB        51.3730   25.7710  -23.6750 C.3   281  ALA281      0.0290
     24  N         42.6750   29.5600  -24.0370 N.3   303  GLY303     -0.1210
     25  CA        42.8200   29.1880  -22.6110 C.3   303  GLY303      0.1956
     26  C         44.2340   29.5490  -22.1590 C.2   303  GLY303      0.2612
     27  O         45.1980   29.3630  -22.8950 O.2   303  GLY303     -0.2717
     28  N         44.3720   30.1080  -20.9500 N.am  304  LEU304     -0.1965
     29  CA        45.6650   30.5440  -20.4810 C.3   304  LEU304      0.1728
     30  C         45.7050   30.7070  -18.9450 C.2   304  LEU304      0.2616
     31  O         44.6680   30.8370  -18.2880 O.2   304  LEU304     -0.2715
     32  CB        46.2350   31.7710  -21.1770 C.3   304  LEU304      0.0311
     33  CG        45.1900   32.7920  -21.6890 C.3   304  LEU304      0.0022
     34  CD1       44.5120   33.4930  -20.4830 C.3   304  LEU304      0.0001
     35  CD2       45.9200   33.8620  -22.5410 C.3   304  LEU304      0.0001
     36  N         46.9010   30.5990  -18.3690 N.am  305  ASN305     -0.1972
     37  CA        47.0560   30.7590  -16.9040 C.3   305  ASN305      0.1688
     38  C         47.8790   32.0110  -16.6870 C.2   305  ASN305      0.2292
     39  O         48.1070   32.7860  -17.6190 O.2   305  ASN305     -0.2864
     40  CB        47.6990   29.4790  -16.2180 C.3   305  ASN305      0.1181
     41  CG        49.1750   29.2210  -16.6920 C.2   305  ASN305      0.2629
     42  OD1       49.8370   30.1250  -17.1980 O.2   305  ASN305     -0.2716
     43  ND2       49.6440   27.9320  -16.6100 N.am  305  ASN305     -0.0877
     44  N         51.2030   32.1900  -18.5990 N.3   308  GLU308     -0.1245
     45  CA        50.9880   32.3060  -20.0820 C.3   308  GLU308      0.1567
     46  C         50.4030   33.6680  -20.4660 C.2   308  GLU308      0.2260
     47  O         50.7700   34.2710  -21.4990 O.2   308  GLU308     -0.2867
     48  CB        49.9810   31.1380  -20.4730 C.3   308  GLU308      0.0388
     49  CG        50.6920   29.7530  -20.3380 C.3   308  GLU308      0.1160
     50  CD        49.6910   28.6170  -20.1760 C.2   308  GLU308      0.3649
     51  OE1       48.4750   28.8920  -20.0820 O.co2 308  GLU308     -0.2457
     52  OE2       50.0960   27.4400  -20.1290 O.co2 308  GLU308     -0.2457
     53  N         42.7880   30.7900  -15.9260 N.3   352  HIS352     -0.1241
     54  CA        42.7190   29.9550  -14.7490 C.3   352  HIS352      0.1621
     55  C         43.9490   30.0270  -13.9420 C.2   352  HIS352      0.2264
     56  O         45.0270   30.0570  -14.4600 O.2   352  HIS352     -0.2867
     57  CB        42.3920   28.4760  -15.0780 C.3   352  HIS352      0.0745
     58  CG        43.4110   27.8060  -16.0580 C.ar  352  HIS352      0.0817
     59  ND1       44.5430   27.1760  -15.6440 N.ar  352  HIS352     -0.2268
     60  CD2       43.4460   27.7600  -17.4670 C.ar  352  HIS352      0.1154
     61  CE1       45.2550   26.7670  -16.7220 C.ar  352  HIS352      0.1986
     62  NE2       44.6050   27.1330  -17.8250 N.ar  352  HIS352     -0.2212
     63  N         45.7640   21.7120  -15.9560 N.3   450  GLY450     -0.1210
     64  CA        45.5050   22.8720  -16.7980 C.3   450  GLY450      0.1956
     65  C         44.6800   22.5180  -18.0140 C.2   450  GLY450      0.2611
     66  O         43.7190   23.1910  -18.3130 O.2   450  GLY450     -0.2717
     67  N         45.0400   21.4380  -18.7380 N.am  451  ASP451     -0.1973
     68  CA        44.2230   20.9610  -19.8960 C.3   451  ASP451      0.1709
     69  C         42.8610   20.5050  -19.5100 C.2   451  ASP451      0.2293
     70  O         41.8800   20.8690  -20.2220 O.2   451  ASP451     -0.2864
     71  CB        44.9930   19.8290  -20.6560 C.3   451  ASP451      0.1436
     72  CG        46.2990   20.3760  -21.2200 C.2   451  ASP451      0.3671
     73  OD1       46.2440   21.2150  -22.1510 O.co2 451  ASP451     -0.2456
     74  OD2       47.3670   20.0960  -20.6350 O.co2 451  ASP451     -0.2456
     75  N         40.7490   23.7430  -18.9050 N.3   454  SER454     -0.1217
     76  CA        40.4900   24.5190  -20.0770 C.3   454  SER454      0.1889
     77  C         39.5600   23.7880  -21.0320 C.2   454  SER454      0.2288
     78  O         38.5790   24.3520  -21.5450 O.2   454  SER454     -0.2866
     79  CB        41.8700   24.8800  -20.6680 C.3   454  SER454      0.2089
     80  OG        41.8540   25.9960  -21.5410 O.3   454  SER454     -0.2183
@<TRIPOS>BOND
     1    10    11    1
     2    13    12    2
     3    12    11    1
     4    11    14    1
     5     8     7    2
     6     3     4    2
     7     3     2    1
     8    14    15    1
     9    15    16    1
    10     1     2    1
    11     5     2    1
    12     5     6    1
    13    22    21    2
    14     7     9   am
    15     7     6    1
    16    19    20    1
    17    24    25    1
    18    16    17   ar
    19    16    18   ar
    20    21    20    1
    21    23    20    1
    22    27    26    2
    23    25    26    1
    24    35    33    1
    25    26    28   am
    26    73    72   ar
    27    33    32    1
    28    33    34    1
    29    78    77    2
    30    80    79    1
    31    47    46    2
    32    72    71    1
    33    72    74   ar
    34    32    29    1
    35    77    76    1
    36    28    29    1
    37    79    76    1
    38    71    68    1
    39    29    30    1
    40    48    49    1
    41    48    45    1
    42    46    45    1
    43    49    50    1
    44    70    69    2
    45    50    52   ar
    46    50    51   ar
    47    45    44    1
    48    76    75    1
    49    68    69    1
    50    68    67    1
    51    30    36   am
    52    30    31    2
    53    67    65   am
    54    36    37    1
    55    66    65    2
    56    65    64    1
    57    62    60   ar
    58    62    61   ar
    59    39    38    2
    60    60    58   ar
    61    42    41    2
    62    37    38    1
    63    37    40    1
    64    64    63    1
    65    61    59   ar
    66    41    43   am
    67    41    40    1
    68    58    59   ar
    69    58    57    1
    70    53    54    1
    71    57    54    1
    72    54    55    1
    73    56    55    2
