@<TRIPOS>MOLECULE
tmp/4b8sA01.pdb
 162 153 0 0 0
SMALL
GASTEIGER

@<TRIPOS>ATOM
      1  N         54.4320   20.7270  -15.6070 N.3   202  GLU202     -0.1245
      2  CA        54.5660   19.5630  -14.7280 C.3   202  GLU202      0.1567
      3  C         54.4190   19.9960  -13.2710 C.2   202  GLU202      0.2260
      4  O         55.0640   20.9700  -12.8460 O.2   202  GLU202     -0.2867
      5  CB        55.9340   18.8880  -14.9320 C.3   202  GLU202      0.0388
      6  CG        57.1670   19.6940  -14.4690 C.3   202  GLU202      0.1160
      7  CD        57.7080   20.6910  -15.4960 C.2   202  GLU202      0.3649
      8  OE1       57.1100   20.8260  -16.5860 O.co2 202  GLU202     -0.2457
      9  OE2       58.7410   21.3510  -15.2190 O.co2 202  GLU202     -0.2457
     10  N         52.7070   18.4490   -8.9980 N.3   204  ARG204     -0.1245
     11  CA        52.1350   17.4130   -8.1300 C.3   204  ARG204      0.1563
     12  C         51.0780   17.9410   -7.1690 C.2   204  ARG204      0.2260
     13  O         51.1540   19.0690   -6.7060 O.2   204  ARG204     -0.2867
     14  CB        53.2440   16.6830   -7.3450 C.3   204  ARG204      0.0307
     15  CG        53.8300   17.4170   -6.1480 C.3   204  ARG204      0.0489
     16  CD        54.5250   18.7080   -6.5460 C.3   204  ARG204      0.2205
     17  NE        55.2380   19.3560   -5.4410 N.pl3 204  ARG204     -0.0865
     18  CZ        54.6550   20.0140   -4.4360 C.cat 204  ARG204      0.5346
     19  NH1       53.3220   20.1270   -4.3750 N.pl3 204  ARG204      0.1354
     20  NH2       55.4100   20.5630   -3.4830 N.pl3 204  ARG204      0.1354
     21  N         60.5770   31.9210   -2.4430 N.3   304  ASN304     -0.1240
     22  CA        60.2050   32.0800   -3.8600 C.3   304  ASN304      0.1653
     23  C         59.3640   33.3360   -4.0750 C.2   304  ASN304      0.2266
     24  O         59.2190   34.1560   -3.1660 O.2   304  ASN304     -0.2867
     25  CB        59.4830   30.8420   -4.4070 C.3   304  ASN304      0.1155
     26  CG        58.1650   30.5350   -3.6820 C.2   304  ASN304      0.2627
     27  OD1       57.4640   31.4220   -3.1790 O.2   304  ASN304     -0.2716
     28  ND2       57.8160   29.2700   -3.6520 N.am  304  ASN304     -0.0877
     29  N         56.0750   33.5930   -1.7580 N.3   307  GLU307     -0.1245
     30  CA        56.5490   33.8180   -0.4120 C.3   307  GLU307      0.1567
     31  C         57.0520   35.2470   -0.2090 C.2   307  GLU307      0.2260
     32  O         56.6920   35.9120    0.7850 O.2   307  GLU307     -0.2867
     33  CB        57.6100   32.7880   -0.0480 C.3   307  GLU307      0.0388
     34  CG        56.9800   31.4260    0.0850 C.3   307  GLU307      0.1160
     35  CD        57.9100   30.2850   -0.2630 C.2   307  GLU307      0.3649
     36  OE1       59.0900   30.5390   -0.5290 O.co2 307  GLU307     -0.2457
     37  OE2       57.4560   29.1160   -0.2700 O.co2 307  GLU307     -0.2457
     38  N         64.5790   32.0180   -4.9940 N.3   351  HIS351     -0.1226
     39  CA        64.6180   31.1440   -6.1730 C.3   351  HIS351      0.1752
     40  C         63.3190   31.2380   -6.8980 C.2   351  HIS351      0.2597
     41  O         62.2740   31.3950   -6.2730 O.2   351  HIS351     -0.2718
     42  CB        64.9300   29.6910   -5.7920 C.3   351  HIS351      0.0759
     43  CG        63.9060   29.0710   -4.8720 C.ar  351  HIS351      0.0818
     44  ND1       64.0130   29.1220   -3.5080 N.ar  351  HIS351     -0.2268
     45  CD2       62.7130   28.4160   -5.1480 C.ar  351  HIS351      0.1154
     46  CE1       62.9530   28.5150   -2.9530 C.ar  351  HIS351      0.1986
     47  NE2       62.1590   28.0740   -3.9560 N.ar  351  HIS351     -0.2212
     48  N         63.3720   31.1430   -8.2230 N.am  352  THR352     -0.1939
     49  CA        62.1760   31.1190   -9.0620 C.3   352  THR352      0.2028
     50  C         62.4920   30.2080  -10.2550 C.2   352  THR352      0.2642
     51  O         63.5290   29.5350  -10.2440 O.2   352  THR352     -0.2714
     52  CB        61.7120   32.5560   -9.4490 C.3   352  THR352      0.1808
     53  OG1       60.4140   32.5040  -10.0510 O.3   352  THR352     -0.2208
     54  CG2       62.7020   33.2940  -10.3910 C.3   352  THR352      0.0379
     55  N         61.6070   30.1490  -11.2510 N.am  353  TYR353     -0.1959
     56  CA        61.8930   29.3960  -12.4800 C.3   353  TYR353      0.1771
     57  C         62.9340   30.1730  -13.2810 C.2   353  TYR353      0.2620
     58  O         62.7140   31.3260  -13.6580 O.2   353  TYR353     -0.2715
     59  CB        60.6230   29.1920  -13.3350 C.3   353  TYR353      0.0574
     60  CG        60.4800   27.8340  -14.0510 C.ar  353  TYR353     -0.0198
     61  CD1       60.3630   26.6410  -13.3180 C.ar  353  TYR353     -0.0009
     62  CD2       60.4060   27.7520  -15.4520 C.ar  353  TYR353     -0.0009
     63  CE1       60.2170   25.4110  -13.9460 C.ar  353  TYR353      0.0417
     64  CE2       60.2540   26.5270  -16.0930 C.ar  353  TYR353      0.0417
     65  CZ        60.1590   25.3540  -15.3370 C.ar  353  TYR353      0.1957
     66  OH        59.9920   24.1170  -15.9510 O.3   353  TYR353     -0.2866
     67  N         64.0800   29.5480  -13.5090 N.am  354  GLY354     -0.1954
     68  CA        65.0710   30.0920  -14.4490 C.3   354  GLY354      0.1869
     69  C         66.2510   30.8590  -13.8700 C.2   354  GLY354      0.2309
     70  O         67.2410   31.0570  -14.5650 O.2   354  GLY354     -0.2863
     71  N         68.2420   32.2340   -9.7320 N.3   356  TYR356     -0.1241
     72  CA        68.2600   32.4860   -8.2730 C.3   356  TYR356      0.1605
     73  C         68.9020   33.8450   -7.9570 C.2   356  TYR356      0.2264
     74  O         69.6610   34.3960   -8.7640 O.2   356  TYR356     -0.2867
     75  CB        69.0480   31.4340   -7.4920 C.3   356  TYR356      0.0534
     76  CG        68.7490   29.9780   -7.7670 C.ar  356  TYR356     -0.0201
     77  CD1       67.4670   29.5340   -8.0910 C.ar  356  TYR356     -0.0009
     78  CD2       69.7640   29.0400   -7.6830 C.ar  356  TYR356     -0.0009
     79  CE1       67.2110   28.1860   -8.3130 C.ar  356  TYR356      0.0417
     80  CE2       69.5330   27.7090   -7.9230 C.ar  356  TYR356      0.0417
     81  CZ        68.2560   27.2810   -8.2360 C.ar  356  TYR356      0.1957
     82  OH        68.0560   25.9470   -8.4880 O.3   356  TYR356     -0.2866
     83  N         69.5560   20.9030   -8.1070 N.3   378  ALA378     -0.1231
     84  CA        68.1410   20.9580   -8.4370 C.3   378  ALA378      0.1694
     85  C         67.9260   20.2500   -9.7570 C.2   378  ALA378      0.2591
     86  O         67.0710   19.3930   -9.8630 O.2   378  ALA378     -0.2718
     87  CB        67.6680   22.3950   -8.5210 C.3   378  ALA378      0.0304
     88  N         68.7180   20.5920  -10.7560 N.am  379  ALA379     -0.1980
     89  CA        68.5790   19.9590  -12.0620 C.3   379  ALA379      0.1597
     90  C         68.7570   18.4400  -11.9820 C.2   379  ALA379      0.2287
     91  O         67.9720   17.6930  -12.5720 O.2   379  ALA379     -0.2864
     92  CB        69.5520   20.5590  -13.0610 C.3   379  ALA379      0.0319
     93  N         65.7550   16.8020  -10.4550 N.3   382  ALA382     -0.1245
     94  CA        64.6680   16.7250  -11.4390 C.3   382  ALA382      0.1562
     95  C         64.8650   15.5950  -12.4760 C.2   382  ALA382      0.2260
     96  O         63.9010   14.8930  -12.8270 O.2   382  ALA382     -0.2867
     97  CB        64.4520   18.0700  -12.1270 C.3   382  ALA382      0.0290
     98  N         69.6520   29.5490  -14.0740 N.3   436  THR436     -0.1203
     99  CA        69.6120   28.1470  -13.6560 C.3   436  THR436      0.1994
    100  C         69.4740   27.1310  -14.7820 C.2   436  THR436      0.2618
    101  O         69.4240   27.4730  -15.9710 O.2   436  THR436     -0.2717
    102  CB        68.5140   27.9070  -12.6160 C.3   436  THR436      0.1784
    103  OG1       67.2570   28.2240  -13.1990 O.3   436  THR436     -0.2211
    104  CG2       68.7420   28.7720  -11.3740 C.3   436  THR436      0.0376
    105  N         69.4310   25.8600  -14.3860 N.am  437  LYS437     -0.1965
    106  CA        69.3120   24.7380  -15.3290 C.3   437  LYS437      0.1728
    107  C         67.9650   24.0520  -15.1830 C.2   437  LYS437      0.2616
    108  O         67.7690   23.2620  -14.2730 O.2   437  LYS437     -0.2715
    109  CB        70.4620   23.7580  -15.1310 C.3   437  LYS437      0.0311
    110  CG        71.7740   24.3510  -15.6040 C.3   437  LYS437      0.0038
    111  CD        72.9250   23.3700  -15.4800 C.3   437  LYS437      0.0206
    112  CE        74.2380   24.0010  -15.9260 C.3   437  LYS437      0.1093
    113  NZ        74.3540   24.0690  -17.4120 N.3   437  LYS437     -0.1314
    114  N         67.0430   24.3810  -16.0860 N.am  438  ILE438     -0.1963
    115  CA        65.6670   23.8860  -16.0560 C.3   438  ILE438      0.1727
    116  C         65.6050   22.5680  -16.8250 C.2   438  ILE438      0.2616
    117  O         65.9450   22.5120  -18.0170 O.2   438  ILE438     -0.2715
    118  CB        64.6950   24.9230  -16.7120 C.3   438  ILE438      0.0290
    119  CG1       64.7040   26.2840  -15.9680 C.3   438  ILE438      0.0022
    120  CG2       63.2770   24.3520  -16.8860 C.3   438  ILE438      0.0023
    121  CD1       64.2200   26.1980  -14.5390 C.3   438  ILE438      0.0001
    122  N         65.1740   21.5030  -16.1520 N.am  439  VAL439     -0.1977
    123  CA        65.0580   20.2040  -16.8160 C.3   439  VAL439      0.1596
    124  C         63.7050   20.0910  -17.4970 C.2   439  VAL439      0.2287
    125  O         62.6670   20.1670  -16.8410 O.2   439  VAL439     -0.2864
    126  CB        65.2690   19.0460  -15.8240 C.3   439  VAL439      0.0276
    127  CG1       64.9970   17.6940  -16.4800 C.3   439  VAL439      0.0022
    128  CG2       66.6770   19.1090  -15.2620 C.3   439  VAL439      0.0022
    129  N         61.2200   16.3790  -16.2830 N.3   442  PRO442     -0.2116
    130  CA        61.7100   15.8920  -15.0020 C.3   442  PRO442      0.1372
    131  C         61.0560   14.5720  -14.5950 C.2   442  PRO442      0.2244
    132  O         59.8800   14.3610  -14.8700 O.2   442  PRO442     -0.2868
    133  CB        61.3380   17.0150  -14.0220 C.3   442  PRO442      0.0268
    134  CG        60.2470   17.7730  -14.6830 C.3   442  PRO442      0.0207
    135  CD        60.3810   17.5830  -16.1620 C.3   442  PRO442      0.0892
    136  N         58.8090   16.2040   -9.3370 N.3   445  THR445     -0.1218
    137  CA        58.9040   17.6180   -8.9360 C.3   445  THR445      0.1862
    138  C         59.0430   17.8300   -7.4310 C.2   445  THR445      0.2287
    139  O         59.4130   18.9090   -6.9860 O.2   445  THR445     -0.2866
    140  CB        57.7300   18.4700   -9.4570 C.3   445  THR445      0.1770
    141  OG1       56.4970   17.9770   -8.9230 O.3   445  THR445     -0.2211
    142  CG2       57.6520   18.4170  -10.9700 C.3   445  THR445      0.0375
    143  N         62.3650   19.7510   -4.9780 N.3   448  ILE448     -0.1231
    144  CA        63.3610   20.5330   -5.7260 C.3   448  ILE448      0.1692
    145  C         63.7590   21.7450   -4.9010 C.2   448  ILE448      0.2592
    146  O         64.9540   22.0460   -4.7390 O.2   448  ILE448     -0.2718
    147  CB        62.8920   20.9760   -7.1260 C.3   448  ILE448      0.0266
    148  CG1       62.2810   19.8090   -7.9170 C.3   448  ILE448      0.0019
    149  CG2       64.0490   21.6000   -7.9020 C.3   448  ILE448      0.0020
    150  CD1       63.2760   18.8620   -8.5290 C.3   448  ILE448      0.0001
    151  N         62.7590   22.4250   -4.3570 N.am  449  GLY449     -0.1957
    152  CA        63.0120   23.5790   -3.5160 C.3   449  GLY449      0.1869
    153  C         63.9570   23.2600   -2.3820 C.2   449  GLY449      0.2309
    154  O         64.9050   23.9890   -2.1540 O.2   449  GLY449     -0.2863
    155  N         67.4390   23.1110   -3.3920 N.3   452  ILE452     -0.1245
    156  CA        67.9850   24.4160   -3.7690 C.3   452  ILE452      0.1561
    157  C         68.5120   25.1830   -2.5540 C.2   452  ILE452      0.2260
    158  O         69.6760   25.5910   -2.5040 O.2   452  ILE452     -0.2867
    159  CB        66.9340   25.2480   -4.5450 C.3   452  ILE452      0.0252
    160  CG1       66.7210   24.6460   -5.9350 C.3   452  ILE452      0.0019
    161  CG2       67.3550   26.6990   -4.6300 C.3   452  ILE452      0.0019
    162  CD1       65.5200   25.1810   -6.6670 C.3   452  ILE452      0.0001
@<TRIPOS>BOND
     1   117   116    2
     2   124   125    2
     3   124   123    1
     4   113   112    1
     5   120   118    1
     6   116   122   am
     7   116   115    1
     8   123   122    1
     9   123   126    1
    10   118   115    1
    11   118   119    1
    12     8     7   ar
    13   127   126    1
    14   129   135    1
    15   129   130    1
    16   135   134    1
    17    64    62   ar
    18    64    65   ar
    19   114   115    1
    20   114   107   am
    21   101   100    2
    22   119   121    1
    23    66    65    1
    24   112   111    1
    25   126   128    1
    26     1     2    1
    27   110   111    1
    28   110   109    1
    29     7     9   ar
    30     7     6    1
    31    62    60   ar
    32    65    63   ar
    33   106   107    1
    34   106   109    1
    35   106   105    1
    36   107   108    2
    37   130   131    1
    38   130   133    1
    39     5     2    1
    40     5     6    1
    41   132   131    2
    42   100   105   am
    43   100    99    1
    44     2     3    1
    45   134   133    1
    46    70    69    2
    47    68    69    1
    48    68    67    1
    49    98    99    1
    50    60    59    1
    51    60    61   ar
    52    63    61   ar
    53    58    57    2
    54    99   102    1
    55    67    57   am
    56    59    56    1
    57    57    56    1
    58     3     4    2
    59   103   102    1
    60    92    89    1
    61    96    95    2
    62   102   104    1
    63    91    90    2
    64    56    55    1
    65    95    94    1
    66    97    94    1
    67    89    90    1
    68    89    88    1
    69    94    93    1
    70    55    50   am
    71   142   140    1
    72    88    85   am
    73    54    52    1
    74    50    51    2
    75    50    49    1
    76    53    52    1
    77    86    85    2
    78    85    84    1
    79    71    72    1
    80   140   137    1
    81   140   141    1
    82    52    49    1
    83   136   137    1
    84    49    48    1
    85    10    11    1
    86   137   138    1
    87    74    73    2
    88   150   148    1
    89    87    84    1
    90    82    81    1
    91    84    83    1
    92    79    81   ar
    93    79    77   ar
    94    72    73    1
    95    72    75    1
    96    81    80   ar
    97    48    40   am
    98    11    14    1
    99    11    12    1
   100    77    76   ar
   101    80    78   ar
   102   148   147    1
   103   149   147    1
   104    76    78   ar
   105    76    75    1
   106   138   139    2
   107    14    15    1
   108    12    13    2
   109   147   144    1
   110    40    41    2
   111    40    39    1
   112   162   160    1
   113    16    15    1
   114    16    17    1
   115    39    42    1
   116    39    38    1
   117   160   159    1
   118    42    43    1
   119   144   143    1
   120   144   145    1
   121    17    18    2
   122    45    43   ar
   123    45    47   ar
   124   145   146    2
   125   145   151   am
   126    43    44   ar
   127   161   159    1
   128   159   156    1
   129    18    19    1
   130    18    20    1
   131    25    22    1
   132    25    26    1
   133   151   152    1
   134    23    22    1
   135    23    24    2
   136    47    46   ar
   137    22    21    1
   138   156   155    1
   139   156   157    1
   140    26    28   am
   141    26    27    2
   142   152   153    1
   143    44    46   ar
   144   157   158    2
   145   153   154    2
   146    29    30    1
   147    36    35   ar
   148    30    31    1
   149    30    33    1
   150    37    35   ar
   151    35    34    1
   152    31    32    2
   153    33    34    1
