@<TRIPOS>MOLECULE
tmp/4b8uB00.pdb
 99 100 0 0 0
SMALL
GASTEIGER

@<TRIPOS>ATOM
      1  N        -44.4750   52.2400    2.7230 N.3    68  HIS68      -0.1241
      2  CA       -43.2080   52.7050    3.2740 C.3    68  HIS68       0.1621
      3  C        -42.1450   51.6400    3.1690 C.2    68  HIS68       0.2264
      4  O        -41.9090   50.9120    4.1430 O.2    68  HIS68      -0.2867
      5  CB       -43.4260   53.1260    4.7330 C.3    68  HIS68       0.0745
      6  CG       -42.2130   53.7470    5.3970 C.ar   68  HIS68       0.0817
      7  ND1      -41.2560   53.0050    5.9890 N.ar   68  HIS68      -0.2268
      8  CD2      -41.8330   55.0810    5.5670 C.ar   68  HIS68       0.1154
      9  CE1      -40.3110   53.8130    6.4970 C.ar   68  HIS68       0.1986
     10  NE2      -40.6680   55.0890    6.2540 N.ar   68  HIS68      -0.2212
     11  N        -40.2140   48.5320    4.8410 N.3    74  VAL74      -0.1231
     12  CA       -39.5800   48.5120    6.1530 C.3    74  VAL74       0.1692
     13  C        -40.4620   49.2890    7.1260 C.2    74  VAL74       0.2592
     14  O        -40.9710   50.3730    6.8030 O.2    74  VAL74      -0.2718
     15  CB       -38.1600   49.1270    6.1470 C.3    74  VAL74       0.0266
     16  CG1      -38.1520   50.5460    5.5620 C.3    74  VAL74       0.0020
     17  CG2      -37.5990   49.0900    7.5610 C.3    74  VAL74       0.0020
     18  N        -40.5810   48.7870    8.3480 N.am   75  MET75      -0.1966
     19  CA       -41.3570   49.5210    9.3600 C.3    75  MET75       0.1721
     20  C        -40.7550   50.8990    9.5740 C.2    75  MET75       0.2458
     21  O        -39.5500   51.0410    9.6020 O.2    75  MET75      -0.2730
     22  CB       -41.3990   48.7850   10.6950 C.3    75  MET75       0.0427
     23  CG       -42.3740   49.3930   11.6900 C.3    75  MET75       0.0599
     24  SD       -42.4310   48.5160   13.2640 S.3    75  MET75      -0.1393
     25  CE       -43.9190   49.2120   13.9920 C.3    75  MET75       0.0692
     26  N        -41.5920   51.9230    9.6900 N.am   76  PRO76      -0.2716
     27  CA       -41.0650   53.2580    9.9430 C.3    76  PRO76       0.1536
     28  C        -40.4820   53.3530   11.3400 C.2    76  PRO76       0.2599
     29  O        -41.0620   52.8330   12.2850 O.2    76  PRO76      -0.2715
     30  CB       -42.2950   54.1400    9.8330 C.3    76  PRO76       0.0310
     31  CG       -43.2190   53.4150    8.9150 C.3    76  PRO76       0.0237
     32  CD       -42.9660   51.9530    9.1580 C.3    76  PRO76       0.0939
     33  N        -39.3280   53.9840   11.4480 N.am   77  GLY77      -0.1955
     34  CA       -38.7170   54.1680   12.7170 C.3    77  GLY77       0.1869
     35  C        -39.6060   54.9670   13.6360 C.2    77  GLY77       0.2309
     36  O        -39.7060   54.6600   14.8160 O.2    77  GLY77      -0.2863
     37  N        -31.7010   59.7310   19.7040 N.3   109  VAL109     -0.1231
     38  CA       -32.3810   58.5810   19.1610 C.3   109  VAL109      0.1692
     39  C        -31.5080   58.0180   18.0780 C.2   109  VAL109      0.2592
     40  O        -30.9250   58.7730   17.3000 O.2   109  VAL109     -0.2718
     41  CB       -33.6960   58.9880   18.5190 C.3   109  VAL109      0.0266
     42  CG1      -34.2770   57.8570   17.6960 C.3   109  VAL109      0.0020
     43  CG2      -34.6480   59.4050   19.5980 C.3   109  VAL109      0.0020
     44  N        -31.4160   56.6950   18.0110 N.am  110  LYS110     -0.1966
     45  CA       -30.5890   56.0580   17.0060 C.3   110  LYS110      0.1728
     46  C        -31.3690   54.9260   16.3440 C.2   110  LYS110      0.2616
     47  O        -32.0150   54.1090   17.0170 O.2   110  LYS110     -0.2715
     48  CB       -29.2980   55.5240   17.6340 C.3   110  LYS110      0.0311
     49  CG       -28.3420   56.6010   18.0890 C.3   110  LYS110      0.0038
     50  CD       -27.1000   55.9960   18.7780 C.3   110  LYS110      0.0206
     51  CE       -25.9310   56.9700   18.8120 C.3   110  LYS110      0.1093
     52  NZ       -24.6230   56.4190   19.2850 N.3   110  LYS110     -0.1314
     53  N        -31.2780   54.8720   15.0190 N.am  111  PHE111     -0.1960
     54  CA       -31.7530   53.7320   14.2640 C.3   111  PHE111      0.1771
     55  C        -30.5540   53.0360   13.6200 C.2   111  PHE111      0.2620
     56  O        -29.8420   53.6310   12.8420 O.2   111  PHE111     -0.2715
     57  CB       -32.7060   54.2050   13.1740 C.3   111  PHE111      0.0574
     58  CG       -33.8670   55.0200   13.6800 C.ar  111  PHE111     -0.0200
     59  CD1      -34.6710   54.5380   14.6920 C.ar  111  PHE111     -0.0042
     60  CD2      -34.2130   56.2230   13.0810 C.ar  111  PHE111     -0.0042
     61  CE1      -35.8020   55.2280   15.1020 C.ar  111  PHE111     -0.0003
     62  CE2      -35.3300   56.9320   13.5090 C.ar  111  PHE111     -0.0003
     63  CZ       -36.1310   56.4310   14.5120 C.ar  111  PHE111     -0.0000
     64  N        -30.3760   51.7550   13.8950 N.am  112  PHE112     -0.1960
     65  CA       -29.2780   51.0330   13.2960 C.3   112  PHE112      0.1771
     66  C        -29.6660   49.6270   12.8420 C.2   112  PHE112      0.2620
     67  O        -28.8310   48.7020   12.8150 O.2   112  PHE112     -0.2715
     68  CB       -28.1090   50.9880   14.3010 C.3   112  PHE112      0.0574
     69  CG       -28.5350   50.7410   15.7010 C.ar  112  PHE112     -0.0200
     70  CD1      -28.9790   51.7850   16.4900 C.ar  112  PHE112     -0.0042
     71  CD2      -28.6040   49.4470   16.1930 C.ar  112  PHE112     -0.0042
     72  CE1      -29.4320   51.5410   17.7630 C.ar  112  PHE112     -0.0003
     73  CE2      -29.0370   49.1950   17.4890 C.ar  112  PHE112     -0.0003
     74  CZ       -29.4390   50.2430   18.2770 C.ar  112  PHE112     -0.0000
     75  N        -30.9490   49.4270   12.5910 N.am  113  GLY113     -0.1940
     76  CA       -31.4190   48.2270   11.9240 C.3   113  GLY113      0.2014
     77  C        -32.8220   48.4860   11.4590 C.2   113  GLY113      0.2638
     78  O        -33.3140   49.6020   11.5750 O.2   113  GLY113     -0.2714
     79  N        -33.4940   47.4550   10.9800 N.am  114  GLN114     -0.1977
     80  CA       -34.8060   47.6400   10.4020 C.3   114  GLN114      0.1601
     81  C        -35.7130   46.4570   10.6380 C.2   114  GLN114      0.2287
     82  O        -35.2720   45.4010   10.9820 O.2   114  GLN114     -0.2864
     83  CB       -34.6690   47.9160    8.9180 C.3   114  GLN114      0.0394
     84  CG       -33.7780   46.9430    8.2000 C.3   114  GLN114      0.0908
     85  CD       -33.4660   47.3150    6.7540 C.2   114  GLN114      0.2608
     86  OE1      -33.8670   48.3610    6.2360 O.2   114  GLN114     -0.2717
     87  NE2      -32.7130   46.4600    6.1160 N.am  114  GLN114     -0.0878
     88  N        -33.1500   49.8280   17.4420 N.3   151  TYR151     -0.1241
     89  CA       -33.2500   51.2730   17.8070 C.3   151  TYR151      0.1605
     90  C        -32.9130   51.5280   19.2500 C.2   151  TYR151      0.2264
     91  O        -33.1610   50.6670   20.0810 O.2   151  TYR151     -0.2867
     92  CB       -34.6500   51.8330   17.6500 C.3   151  TYR151      0.0534
     93  CG       -35.3980   51.5160   16.3970 C.ar  151  TYR151     -0.0201
     94  CD1      -34.7600   51.1990   15.2190 C.ar  151  TYR151     -0.0009
     95  CD2      -36.7650   51.5790   16.3880 C.ar  151  TYR151     -0.0009
     96  CE1      -35.4830   50.8890   14.0790 C.ar  151  TYR151      0.0417
     97  CE2      -37.4840   51.3280   15.2510 C.ar  151  TYR151      0.0417
     98  CZ       -36.8380   50.9780   14.1040 C.ar  151  TYR151      0.1957
     99  OH       -37.5960   50.7420   12.9900 O.3   151  TYR151     -0.2866
@<TRIPOS>BOND
     1     1     2    1
     2     3     2    1
     3     3     4    2
     4     2     5    1
     5     5     6    1
     6    11    12    1
     7     6     8   ar
     8     6     7   ar
     9    16    15    1
    10     8    10   ar
    11     7     9   ar
    12    87    85   am
    13    15    12    1
    14    15    17    1
    15    12    13    1
    16    86    85    2
    17    10     9   ar
    18    85    84    1
    19    14    13    2
    20    13    18   am
    21    84    83    1
    22    18    19    1
    23    31    32    1
    24    31    30    1
    25    83    80    1
    26    32    26    1
    27    19    20    1
    28    19    22    1
    29    20    21    2
    30    20    26   am
    31    26    27    1
    32    30    27    1
    33    27    28    1
    34    80    81    1
    35    80    79    1
    36    81    82    2
    37    22    23    1
    38    79    77   am
    39    28    33   am
    40    28    29    2
    41    33    34    1
    42    77    78    2
    43    77    76    1
    44    23    24    1
    45    76    75    1
    46    75    66   am
    47    34    35    1
    48    67    66    2
    49    56    55    2
    50    66    65    1
    51    99    98    1
    52    60    62   ar
    53    60    58   ar
    54    57    58    1
    55    57    54    1
    56    24    25    1
    57    65    64    1
    58    65    68    1
    59    62    63   ar
    60    55    64   am
    61    55    54    1
    62    35    36    2
    63    58    59   ar
    64    96    98   ar
    65    96    94   ar
    66    98    97   ar
    67    54    53    1
    68    68    69    1
    69    63    61   ar
    70    59    61   ar
    71    53    46   am
    72    94    93   ar
    73    97    95   ar
    74    69    71   ar
    75    69    70   ar
    76    71    73   ar
    77    46    45    1
    78    46    47    2
    79    95    93   ar
    80    93    92    1
    81    70    72   ar
    82    45    48    1
    83    45    44    1
    84    40    39    2
    85    88    89    1
    86    73    74   ar
    87    48    49    1
    88    92    89    1
    89    42    41    1
    90    72    74   ar
    91    89    90    1
    92    44    39   am
    93    39    38    1
    94    49    50    1
    95    41    38    1
    96    41    43    1
    97    50    51    1
    98    51    52    1
    99    38    37    1
   100    90    91    2
