@<TRIPOS>MOLECULE
tmp/4b8yA00.pdb
 165 164 0 0 0
SMALL
GASTEIGER

@<TRIPOS>ATOM
      1  N         -8.1970    5.8310    4.7190 N.3    31  THR31      -0.1218
      2  CA        -8.6310    6.4730    5.9670 C.3    31  THR31       0.1862
      3  C        -10.1340    6.3050    6.1860 C.2    31  THR31       0.2287
      4  O        -10.5780    6.1080    7.3160 O.2    31  THR31      -0.2866
      5  CB        -8.3210    7.9900    5.9510 C.3    31  THR31       0.1770
      6  OG1       -6.9010    8.1700    5.9470 O.3    31  THR31      -0.2211
      7  CG2       -8.9030    8.7200    7.1880 C.3    31  THR31       0.0375
      8  N         -4.2390   -1.4160    1.3750 N.3    49  GLN49      -0.1245
      9  CA        -3.6220   -1.0990    2.6680 C.3    49  GLN49       0.1566
     10  C         -4.4230   -1.5790    3.8840 C.2    49  GLN49       0.2260
     11  O         -3.8300   -1.8580    4.9300 O.2    49  GLN49      -0.2867
     12  CB        -3.3260    0.3940    2.8230 C.3    49  GLN49       0.0367
     13  CG        -2.5130    0.6900    4.0870 C.3    49  GLN49       0.0905
     14  CD        -2.1500    2.1680    4.2540 C.2    49  GLN49       0.2608
     15  OE1       -1.8740    2.8650    3.2840 O.2    49  GLN49      -0.2717
     16  NE2       -2.1340    2.6340    5.4950 N.am   49  GLN49      -0.0878
     17  N         -2.7360    2.2220   -5.3050 N.3    68  ASP68      -0.1239
     18  CA        -2.8240    3.5790   -5.8360 C.3    68  ASP68       0.1674
     19  C         -2.6880    3.5850   -7.3490 C.2    68  ASP68       0.2266
     20  O         -1.8730    2.8560   -7.9130 O.2    68  ASP68      -0.2867
     21  CB        -1.7620    4.4800   -5.1950 C.3    68  ASP68       0.1410
     22  CG        -2.0270    4.7320   -3.7150 C.2    68  ASP68       0.3668
     23  OD1       -3.2010    4.6300   -3.2880 O.co2  68  ASP68      -0.2456
     24  OD2       -1.0620    5.0420   -2.9850 O.co2  68  ASP68      -0.2456
     25  N         -8.1490   10.9230   -1.4790 N.3    85  TYR85      -0.1227
     26  CA        -7.5560   12.1000   -0.8290 C.3    85  TYR85       0.1736
     27  C         -7.3630   13.2830   -1.7960 C.2    85  TYR85       0.2596
     28  O         -7.1650   13.0790   -2.9990 O.2    85  TYR85      -0.2718
     29  CB        -6.1680   11.7880   -0.2540 C.3    85  TYR85       0.0548
     30  CG        -6.1480   10.7230    0.8100 C.ar   85  TYR85      -0.0200
     31  CD1       -6.7800   10.9090    2.0550 C.ar   85  TYR85      -0.0009
     32  CD2       -5.4660    9.5450    0.5830 C.ar   85  TYR85      -0.0009
     33  CE1       -6.7490    9.8730    3.0390 C.ar   85  TYR85       0.0417
     34  CE2       -5.4490    8.5230    1.5170 C.ar   85  TYR85       0.0417
     35  CZ        -6.0730    8.6970    2.7440 C.ar   85  TYR85       0.1957
     36  OH        -5.9920    7.6810    3.6420 O.3    85  TYR85      -0.2866
     37  N         -7.3080   14.5050   -1.2550 N.am   86  SER86      -0.1938
     38  CA        -6.8950   15.6860   -2.0520 C.3    86  SER86       0.2055
     39  C         -5.4970   15.5720   -2.7000 C.2    86  SER86       0.2643
     40  O         -5.1860   16.3050   -3.6330 O.2    86  SER86      -0.2714
     41  CB        -6.9090   16.9380   -1.1700 C.3    86  SER86       0.2130
     42  OG        -5.9500   16.7840   -0.1400 O.3    86  SER86      -0.2179
     43  N         -4.6560   14.6610   -2.2160 N.am   87  THR87      -0.1950
     44  CA        -3.2970   14.5290   -2.7390 C.3    87  THR87       0.1897
     45  C         -3.2020   13.4680   -3.8520 C.2    87  THR87       0.2313
     46  O         -2.1140   13.2500   -4.3840 O.2    87  THR87      -0.2863
     47  CB        -2.3420   14.0660   -1.6350 C.3    87  THR87       0.1794
     48  OG1       -2.8580   12.8370   -1.0770 O.3    87  THR87      -0.2208
     49  CG2       -2.2220   15.1360   -0.5470 C.3    87  THR87       0.0378
     50  N         -9.8250   16.3950    1.8110 N.3   104  ASP104     -0.1225
     51  CA        -8.5760   16.9730    2.2870 C.3   104  ASP104      0.1805
     52  C         -8.3690   16.4700    3.7180 C.2   104  ASP104      0.2598
     53  O         -9.0880   16.9050    4.6310 O.2   104  ASP104     -0.2718
     54  CB        -8.6920   18.5040    2.2530 C.3   104  ASP104      0.1424
     55  CG        -7.3540   19.2020    2.4100 C.2   104  ASP104      0.3668
     56  OD1       -6.3290   18.5310    2.6800 O.co2 104  ASP104     -0.2456
     57  OD2       -7.3220   20.4390    2.2700 O.co2 104  ASP104     -0.2456
     58  N         -7.4220   15.5440    3.9040 N.am  105  TYR105     -0.1962
     59  CA        -7.3410   14.7540    5.1480 C.3   105  TYR105      0.1771
     60  C         -7.3120   15.6520    6.3800 C.2   105  TYR105      0.2619
     61  O         -8.0190   15.4410    7.3890 O.2   105  TYR105     -0.2715
     62  CB        -6.1310   13.7980    5.1670 C.3   105  TYR105      0.0574
     63  CG        -5.9410   13.1670    6.5480 C.ar  105  TYR105     -0.0198
     64  CD1       -6.6880   12.0550    6.9340 C.ar  105  TYR105     -0.0009
     65  CD2       -5.0720   13.7260    7.4860 C.ar  105  TYR105     -0.0009
     66  CE1       -6.5520   11.5010    8.2160 C.ar  105  TYR105      0.0417
     67  CE2       -4.9370   13.1690    8.7690 C.ar  105  TYR105      0.0417
     68  CZ        -5.6960   12.0710    9.1320 C.ar  105  TYR105      0.1957
     69  OH        -5.5770   11.5160   10.4110 O.3   105  TYR105     -0.2866
     70  N         -6.5170   16.6890    6.2690 N.am  106  ASN106     -0.1972
     71  CA        -6.2520   17.5310    7.4080 C.3   106  ASN106      0.1688
     72  C         -7.3840   18.5260    7.7010 C.2   106  ASN106      0.2292
     73  O         -7.3180   19.2970    8.6500 O.2   106  ASN106     -0.2864
     74  CB        -4.8790   18.1730    7.2860 C.3   106  ASN106      0.1181
     75  CG        -4.8830   19.4210    6.4360 C.2   106  ASN106      0.2629
     76  OD1       -5.8010   19.6550    5.6520 O.2   106  ASN106     -0.2716
     77  ND2       -3.8340   20.2220    6.5700 N.am  106  ASN106     -0.0877
     78  N          9.0620    6.3890   10.0280 N.3   161  PHE161     -0.1241
     79  CA         8.4090    6.6940    8.7660 C.3   161  PHE161      0.1605
     80  C          9.4880    6.8610    7.7170 C.2   161  PHE161      0.2264
     81  O         10.3420    7.7210    7.8580 O.2   161  PHE161     -0.2867
     82  CB         7.5570    7.9760    8.8800 C.3   161  PHE161      0.0534
     83  CG         6.8520    8.3410    7.6040 C.ar  161  PHE161     -0.0203
     84  CD1        5.6250    7.7660    7.2840 C.ar  161  PHE161     -0.0042
     85  CD2        7.4300    9.2340    6.7000 C.ar  161  PHE161     -0.0042
     86  CE1        4.9650    8.1020    6.0910 C.ar  161  PHE161     -0.0003
     87  CE2        6.7850    9.5710    5.5080 C.ar  161  PHE161     -0.0003
     88  CZ         5.5510    9.0030    5.2000 C.ar  161  PHE161     -0.0000
     89  N          9.7160    9.7380   13.2700 N.3   166  TYR166     -0.1241
     90  CA         8.6300   10.7400   13.2500 C.3   166  TYR166      0.1605
     91  C          7.8560   10.8410   14.5480 C.2   166  TYR166      0.2264
     92  O          7.7860    9.8740   15.3140 O.2   166  TYR166     -0.2867
     93  CB         7.6280   10.4750   12.1160 C.3   166  TYR166      0.0534
     94  CG         8.0750   11.0420   10.7530 C.ar  166  TYR166     -0.0201
     95  CD1        9.3500   10.7870   10.2420 C.ar  166  TYR166     -0.0009
     96  CD2        7.2110   11.8260    9.9930 C.ar  166  TYR166     -0.0009
     97  CE1        9.7410   11.3000    8.9830 C.ar  166  TYR166      0.0417
     98  CE2        7.5880   12.3380    8.7560 C.ar  166  TYR166      0.0417
     99  CZ         8.8390   12.0850    8.2610 C.ar  166  TYR166      0.1957
    100  OH         9.1750   12.6140    7.0200 O.3   166  TYR166     -0.2866
    101  N          3.9450   12.8310   16.0220 N.3   168  TYR168     -0.1241
    102  CA         2.6260   13.2380   15.5430 C.3   168  TYR168      0.1605
    103  C          1.9080   14.1120   16.5540 C.2   168  TYR168      0.2264
    104  O          2.1490   14.0190   17.7650 O.2   168  TYR168     -0.2867
    105  CB         1.7470   12.0020   15.1970 C.3   168  TYR168      0.0534
    106  CG         2.4430   11.1680   14.1250 C.ar  168  TYR168     -0.0201
    107  CD1        2.3130   11.4950   12.7820 C.ar  168  TYR168     -0.0009
    108  CD2        3.2780   10.1240   14.4680 C.ar  168  TYR168     -0.0009
    109  CE1        2.9830   10.7730   11.7910 C.ar  168  TYR168      0.0417
    110  CE2        3.9930    9.4070   13.4710 C.ar  168  TYR168      0.0417
    111  CZ         3.8180    9.7450   12.1490 C.ar  168  TYR168      0.1957
    112  OH         4.4680    9.0650   11.1440 O.3   168  TYR168     -0.2866
    113  N         -3.1010   12.4510   13.4960 N.3   172  TRP172     -0.1241
    114  CA        -2.4320   11.9180   12.3090 C.3   172  TRP172      0.1605
    115  C         -2.1940   10.4270   12.5100 C.2   172  TRP172      0.2264
    116  O         -1.1550    9.9100   12.1040 O.2   172  TRP172     -0.2867
    117  CB        -1.0940   12.6450   12.0290 C.3   172  TRP172      0.0550
    118  CG        -0.8740   12.8600   10.5220 C.ar  172  TRP172      0.0003
    119  CD1       -0.2760   11.9890    9.6510 C.ar  172  TRP172      0.0946
    120  CD2       -1.3480   13.9630    9.7290 C.ar  172  TRP172      0.0152
    121  NE1       -0.2910   12.5180    8.3620 N.ar  172  TRP172     -0.2442
    122  CE2       -0.9420   13.7250    8.3850 C.ar  172  TRP172      0.0810
    123  CE3       -2.0300   15.1520   10.0260 C.ar  172  TRP172      0.0012
    124  CZ2       -1.2240   14.6180    7.3510 C.ar  172  TRP172      0.0191
    125  CZ3       -2.3000   16.0610    8.9790 C.ar  172  TRP172      0.0001
    126  CH2       -1.8990   15.7830    7.6660 C.ar  172  TRP172      0.0015
    127  N         -1.5810    6.6780   14.4140 N.3   174  ARG174     -0.1245
    128  CA        -0.5500    6.1030   15.2820 C.3   174  ARG174      0.1563
    129  C         -1.0330    6.1000   16.7430 C.2   174  ARG174      0.2260
    130  O         -0.2430    5.9350   17.6550 O.2   174  ARG174     -0.2867
    131  CB         0.8330    6.7850   15.1410 C.3   174  ARG174      0.0307
    132  CG         1.5610    6.4600   13.8250 C.3   174  ARG174      0.0489
    133  CD         0.9950    7.2560   12.6540 C.3   174  ARG174      0.2205
    134  NE         1.7900    7.1070   11.4270 N.pl3 174  ARG174     -0.0865
    135  CZ         1.4800    7.6600   10.2590 C.cat 174  ARG174      0.5346
    136  NH1        0.4030    8.4430   10.1580 N.pl3 174  ARG174      0.1354
    137  NH2        2.2640    7.4400    9.1990 N.pl3 174  ARG174      0.1354
    138  N          2.2330   16.6220   12.1680 N.3   200  TRP200     -0.1241
    139  CA         3.1810   15.5000   12.1120 C.3   200  TRP200      0.1605
    140  C          4.5820   16.0740   11.9100 C.2   200  TRP200      0.2264
    141  O          4.7120   17.1690   11.3790 O.2   200  TRP200     -0.2867
    142  CB         2.8320   14.5900   10.9140 C.3   200  TRP200      0.0550
    143  CG         2.8210   15.3090    9.5640 C.ar  200  TRP200      0.0003
    144  CD1        1.7470   15.9090    8.9700 C.ar  200  TRP200      0.0946
    145  CD2        3.9260   15.4920    8.6680 C.ar  200  TRP200      0.0152
    146  NE1        2.1060   16.4350    7.7490 N.ar  200  TRP200     -0.2442
    147  CE2        3.4430   16.2110    7.5470 C.ar  200  TRP200      0.0810
    148  CE3        5.2730   15.1320    8.7070 C.ar  200  TRP200      0.0012
    149  CZ2        4.2570   16.5690    6.4820 C.ar  200  TRP200      0.0191
    150  CZ3        6.0930   15.4770    7.6250 C.ar  200  TRP200      0.0001
    151  CH2        5.5780   16.1920    6.5300 C.ar  200  TRP200      0.0015
    152  N         -2.3890    2.8590   12.3350 N.3   254  TRP254     -0.1241
    153  CA        -2.3050    3.9450   11.3680 C.3   254  TRP254      0.1605
    154  C         -3.6670    4.6400   11.2430 C.2   254  TRP254      0.2264
    155  O         -3.7120    5.8430   10.9810 O.2   254  TRP254     -0.2867
    156  CB        -1.8760    3.4010    9.9920 C.3   254  TRP254      0.0550
    157  CG        -1.5920    4.4270    8.9000 C.ar  254  TRP254      0.0003
    158  CD1       -0.4010    5.0680    8.6500 C.ar  254  TRP254      0.0946
    159  CD2       -2.5050    4.8700    7.8780 C.ar  254  TRP254      0.0152
    160  NE1       -0.5310    5.8880    7.5560 N.ar  254  TRP254     -0.2442
    161  CE2       -1.8080    5.7990    7.0680 C.ar  254  TRP254      0.0810
    162  CE3       -3.8490    4.5840    7.5820 C.ar  254  TRP254      0.0012
    163  CZ2       -2.4010    6.4330    5.9520 C.ar  254  TRP254      0.0191
    164  CZ3       -4.4470    5.2250    6.4870 C.ar  254  TRP254      0.0001
    165  CH2       -3.7010    6.1290    5.6700 C.ar  254  TRP254      0.0015
@<TRIPOS>BOND
     1    20    19    2
     2    19    18    1
     3    18    17    1
     4    18    21    1
     5    21    22    1
     6    46    45    2
     7    45    44    1
     8    22    23   ar
     9    22    24   ar
    10    40    39    2
    11    28    27    2
    12    44    43    1
    13    44    47    1
    14    39    43   am
    15    39    38    1
    16    38    37    1
    17    38    41    1
    18    27    37   am
    19    27    26    1
    20    47    48    1
    21    47    49    1
    22    25    26    1
    23    41    42    1
    24    26    29    1
    25    29    30    1
    26    32    30   ar
    27    32    34   ar
    28    30    31   ar
    29     8     9    1
    30    34    35   ar
    31    50    51    1
    32    31    33   ar
    33    54    51    1
    34    54    55    1
    35    57    55   ar
    36    51    52    1
    37    55    56   ar
    38     9    12    1
    39     9    10    1
    40    35    33   ar
    41    35    36    1
    42    12    13    1
    43    15    14    2
    44    52    58   am
    45    52    53    2
    46    10    11    2
    47    58    59    1
    48    13    14    1
    49    14    16   am
    50     1     2    1
    51    59    62    1
    52    59    60    1
    53    62    63    1
    54    88    87   ar
    55    88    86   ar
    56    87    85   ar
    57    76    75    2
    58   165   163   ar
    59   165   164   ar
    60     6     5    1
    61     5     2    1
    62     5     7    1
    63   163   161   ar
    64     2     3    1
    65    86    84   ar
    66     3     4    2
    67    70    60   am
    68    70    71    1
    69    60    61    2
    70    75    77   am
    71    75    74    1
    72   149   151   ar
    73   149   147   ar
    74   164   162   ar
    75   151   150   ar
    76    63    64   ar
    77    63    65   ar
    78    85    83   ar
    79    64    66   ar
    80   100    99    1
    81   161   160   ar
    82   161   159   ar
    83    84    83   ar
    84    74    71    1
    85   124   126   ar
    86   124   122   ar
    87    71    72    1
    88    65    67   ar
    89   147   146   ar
    90   147   145   ar
    91   160   158   ar
    92   162   159   ar
    93    83    82    1
    94   150   148   ar
    95   126   125   ar
    96    72    73    2
    97    80    81    2
    98    80    79    1
    99   146   144   ar
   100   159   157   ar
   101    66    68   ar
   102    99    98   ar
   103    99    97   ar
   104   121   122   ar
   105   121   119   ar
   106   122   120   ar
   107   158   157   ar
   108   145   148   ar
   109   145   143   ar
   110    98    96   ar
   111    79    82    1
   112    79    78    1
   113    67    68   ar
   114   157   156    1
   115   144   143   ar
   116   125   123   ar
   117    97    95   ar
   118    68    69    1
   119   137   135    1
   120   143   142    1
   121   119   118   ar
   122   120   123   ar
   123   120   118   ar
   124   156   153    1
   125    96    94   ar
   126   136   135    1
   127    95    94   ar
   128   135   134    2
   129   118   117    1
   130    94    93    1
   131   142   139    1
   132   155   154    2
   133   112   111    1
   134   154   153    1
   135   153   152    1
   136   141   140    2
   137   134   133    1
   138   109   111   ar
   139   109   107   ar
   140   140   139    1
   141   117   114    1
   142   116   115    2
   143   139   138    1
   144    93    90    1
   145   111   110   ar
   146   114   115    1
   147   114   113    1
   148   133   132    1
   149   107   106   ar
   150    90    89    1
   151    90    91    1
   152   110   108   ar
   153   132   131    1
   154   106   108   ar
   155   106   105    1
   156   127   128    1
   157    91    92    2
   158   131   128    1
   159   105   102    1
   160   128   129    1
   161   102   101    1
   162   102   103    1
   163   103   104    2
   164   129   130    2
