@<TRIPOS>MOLECULE
tmp/4b8zB01.pdb
 186 175 0 0 0
SMALL
GASTEIGER

@<TRIPOS>ATOM
      1  N         24.1280    4.1980  -87.1120 N.3    75  GLY75      -0.1210
      2  CA        23.8620    5.6290  -87.0740 C.3    75  GLY75       0.1956
      3  C         24.1310    6.2070  -85.7030 C.2    75  GLY75       0.2612
      4  O         24.3790    5.4590  -84.7570 O.2    75  GLY75      -0.2717
      5  N         24.0600    7.5390  -85.5810 N.am   76  LEU76      -0.1965
      6  CA        24.2650    8.2870  -84.3380 C.3    76  LEU76       0.1728
      7  C         23.6260    7.5800  -83.1080 C.2    76  LEU76       0.2616
      8  O         24.3370    7.1670  -82.1960 O.2    76  LEU76      -0.2715
      9  CB        23.6800    9.7080  -84.5190 C.3    76  LEU76       0.0311
     10  CG        23.5440   10.6430  -83.2980 C.3    76  LEU76       0.0022
     11  CD1       24.8810   10.9140  -82.6410 C.3    76  LEU76       0.0001
     12  CD2       22.9220   11.9560  -83.6990 C.3    76  LEU76       0.0001
     13  N         22.3160    7.3630  -83.1570 N.am   77  PHE77      -0.1974
     14  CA        21.4710    6.7980  -82.1130 C.3    77  PHE77       0.1639
     15  C         21.8790    5.3680  -81.6780 C.2    77  PHE77       0.2290
     16  O         21.6920    5.0390  -80.4980 O.2    77  PHE77      -0.2864
     17  CB        19.9960    6.8690  -82.5630 C.3    77  PHE77       0.0560
     18  CG        19.6120    8.2890  -82.9450 C.ar   77  PHE77      -0.0200
     19  CD1       19.3430    9.2440  -81.9650 C.ar   77  PHE77      -0.0042
     20  CD2       19.6150    8.6940  -84.2760 C.ar   77  PHE77      -0.0042
     21  CE1       19.0480   10.5670  -82.3140 C.ar   77  PHE77      -0.0003
     22  CE2       19.3250   10.0170  -84.6220 C.ar   77  PHE77      -0.0003
     23  CZ        19.0290   10.9420  -83.6420 C.ar   77  PHE77      -0.0000
     24  N         25.1150    4.2210  -81.8880 N.3    79  ASN79      -0.1240
     25  CA        26.4230    4.4850  -81.3070 C.3    79  ASN79       0.1653
     26  C         26.3220    4.9500  -79.8530 C.2    79  ASN79       0.2266
     27  O         27.0510    4.4380  -79.0030 O.2    79  ASN79      -0.2867
     28  CB        27.1640    5.5310  -82.1440 C.3    79  ASN79       0.1155
     29  CG        27.9040    4.9470  -83.3080 C.2    79  ASN79       0.2627
     30  OD1       28.9550    4.3220  -83.1540 O.2    79  ASN79      -0.2716
     31  ND2       27.3730    5.1410  -84.4940 N.am   79  ASN79      -0.0877
     32  N         33.8060   10.8900  -88.5300 N.3   116  CYS116     -0.1235
     33  CA        33.1970   11.0820  -87.2130 C.3   116  CYS116      0.1677
     34  C         34.1550   10.6590  -86.0800 C.2   116  CYS116      0.2270
     35  O         33.8260   10.8500  -84.9070 O.2   116  CYS116     -0.2867
     36  CB        31.8660   10.3440  -87.1200 C.3   116  CYS116      0.0956
     37  SG        31.9870    8.5470  -87.3300 S.3   116  CYS116     -0.0801
     38  N         29.9200    8.8390  -80.0380 N.3   140  ASN140     -0.1240
     39  CA        30.4360    7.6490  -80.7060 C.3   140  ASN140      0.1653
     40  C         31.9330    7.4250  -80.4150 C.2   140  ASN140      0.2266
     41  O         32.6760    6.9650  -81.2840 O.2   140  ASN140     -0.2867
     42  CB        30.1660    7.7670  -82.2170 C.3   140  ASN140      0.1155
     43  CG        30.9160    8.8660  -82.9380 C.2   140  ASN140      0.2627
     44  OD1       31.2920    9.9100  -82.3720 O.2   140  ASN140     -0.2716
     45  ND2       31.1700    8.6270  -84.2160 N.am  140  ASN140     -0.0877
     46  N         30.2090   10.4780  -94.6980 N.3   172  ASN172     -0.1240
     47  CA        28.9340    9.8010  -94.6180 C.3   172  ASN172      0.1653
     48  C         28.6740    9.1440  -95.9500 C.2   172  ASN172      0.2266
     49  O         28.7850    9.8130  -96.9750 O.2   172  ASN172     -0.2867
     50  CB        27.8610   10.7940  -94.2580 C.3   172  ASN172      0.1155
     51  CG        28.0040   11.3050  -92.8580 C.2   172  ASN172      0.2627
     52  OD1       28.9870   11.9770  -92.5140 O.2   172  ASN172     -0.2716
     53  ND2       27.0240   10.9850  -92.0220 N.am  172  ASN172     -0.0877
     54  N         15.5040    2.6280  -89.7380 N.3   182  ILE182     -0.1245
     55  CA        15.3760    4.0000  -89.2290 C.3   182  ILE182      0.1561
     56  C         16.0050    4.1830  -87.8250 C.2   182  ILE182      0.2260
     57  O         16.6350    5.2120  -87.5720 O.2   182  ILE182     -0.2867
     58  CB        13.9140    4.4280  -89.2180 C.3   182  ILE182      0.0252
     59  CG1       13.3080    4.2980  -90.6090 C.3   182  ILE182      0.0019
     60  CG2       13.7930    5.8530  -88.6890 C.3   182  ILE182      0.0019
     61  CD1       11.7890    4.4980  -90.5160 C.3   182  ILE182      0.0001
     62  N         20.1950    2.8960  -88.3830 N.3   185  GLY185     -0.1210
     63  CA        20.8910    3.4230  -89.5490 C.3   185  GLY185      0.1956
     64  C         21.2620    4.8840  -89.5200 C.2   185  GLY185      0.2612
     65  O         20.8780    5.6400  -88.6240 O.2   185  GLY185     -0.2717
     66  N         22.0180    5.2760  -90.5450 N.am  186  HIS186     -0.1961
     67  CA        22.4880    6.6230  -90.8340 C.3   186  HIS186      0.1787
     68  C         21.3230    7.5040  -91.3140 C.2   186  HIS186      0.2620
     69  O         20.2460    6.9840  -91.6190 O.2   186  HIS186     -0.2715
     70  CB        23.5960    6.5430  -91.8820 C.3   186  HIS186      0.0785
     71  CG        24.8530    5.9260  -91.3600 C.ar  186  HIS186      0.0821
     72  ND1       25.6420    6.5770  -90.4240 N.ar  186  HIS186     -0.2267
     73  CD2       25.4310    4.7450  -91.6700 C.ar  186  HIS186      0.1154
     74  CE1       26.6650    5.7700  -90.1930 C.ar  186  HIS186      0.1986
     75  NE2       26.5790    4.6540  -90.9130 N.ar  186  HIS186     -0.2212
     76  N         21.5590    8.8370  -91.4050 N.am  187  VAL187     -0.1977
     77  CA        20.5660    9.8630  -91.7380 C.3   187  VAL187      0.1596
     78  C         19.9260    9.6580  -93.1300 C.2   187  VAL187      0.2287
     79  O         18.6950    9.5910  -93.1740 O.2   187  VAL187     -0.2864
     80  CB        21.0820   11.3160  -91.5150 C.3   187  VAL187      0.0276
     81  CG1       22.3390   11.6380  -92.3220 C.3   187  VAL187      0.0022
     82  CG2       19.9810   12.3520  -91.7330 C.3   187  VAL187      0.0022
     83  N         17.9790    6.2640  -93.4700 N.3   190  GLY190     -0.1210
     84  CA        16.9180    6.4610  -92.4870 C.3   190  GLY190      0.1956
     85  C         15.8230    7.3840  -92.9880 C.2   190  GLY190      0.2611
     86  O         14.6390    7.1020  -92.7810 O.2   190  GLY190     -0.2717
     87  N         16.2080    8.4790  -93.6800 N.am  191  LEU191     -0.1979
     88  CA        15.2510    9.4240  -94.2560 C.3   191  LEU191      0.1596
     89  C         14.5420    8.8550  -95.4870 C.2   191  LEU191      0.2287
     90  O         13.3810    9.2060  -95.7280 O.2   191  LEU191     -0.2864
     91  CB        15.9270   10.7400  -94.6400 C.3   191  LEU191      0.0297
     92  CG        16.0500   11.7970  -93.5690 C.3   191  LEU191      0.0022
     93  CD1       17.0130   12.8720  -94.0150 C.3   191  LEU191      0.0001
     94  CD2       14.7000   12.4230  -93.2570 C.3   191  LEU191      0.0001
     95  N         11.9440    6.5550  -94.2100 N.3   194  LYS194     -0.1245
     96  CA        10.9570    7.4090  -93.5340 C.3   194  LYS194      0.1561
     97  C          9.9550    8.0160  -94.5140 C.2   194  LYS194      0.2260
     98  O          8.7610    8.0110  -94.2170 O.2   194  LYS194     -0.2867
     99  CB        11.6340    8.5370  -92.7490 C.3   194  LYS194      0.0271
    100  CG        11.8700    8.2340  -91.2820 C.3   194  LYS194      0.0035
    101  CD        12.6210    9.3980  -90.6810 C.3   194  LYS194      0.0206
    102  CE        12.9570    9.2290  -89.2320 C.3   194  LYS194      0.1093
    103  NZ        13.4990   10.4930  -88.6870 N.3   194  LYS194     -0.1314
    104  N         11.8410   14.6250  -89.4710 N.3   207  VAL207     -0.1231
    105  CA        13.2980   14.6870  -89.5210 C.3   207  VAL207      0.1692
    106  C         13.7440   14.8730  -88.0750 C.2   207  VAL207      0.2592
    107  O         13.1770   15.7050  -87.3660 O.2   207  VAL207     -0.2718
    108  CB        13.8060   15.8150  -90.4710 C.3   207  VAL207      0.0266
    109  CG1       15.3350   15.8730  -90.5150 C.3   207  VAL207      0.0020
    110  CG2       13.2310   15.6650  -91.8820 C.3   207  VAL207      0.0020
    111  N         14.6940   14.0690  -87.6120 N.am  208  TRP208     -0.1962
    112  CA        15.1700   14.1880  -86.2360 C.3   208  TRP208      0.1771
    113  C         16.1690   15.3390  -86.1110 C.2   208  TRP208      0.2620
    114  O         16.7860   15.7380  -87.0990 O.2   208  TRP208     -0.2715
    115  CB        15.7660   12.8600  -85.7470 C.3   208  TRP208      0.0590
    116  CG        14.7700   11.7350  -85.7310 C.ar  208  TRP208      0.0006
    117  CD1       13.4160   11.8360  -85.5820 C.ar  208  TRP208      0.0946
    118  CD2       15.0620   10.3340  -85.8070 C.ar  208  TRP208      0.0152
    119  NE1       12.8470   10.5870  -85.5840 N.ar  208  TRP208     -0.2442
    120  CE2       13.8350    9.6450  -85.7060 C.ar  208  TRP208      0.0810
    121  CE3       16.2440    9.5920  -85.9560 C.ar  208  TRP208      0.0012
    122  CZ2       13.7550    8.2520  -85.7760 C.ar  208  TRP208      0.0191
    123  CZ3       16.1660    8.2080  -86.0070 C.ar  208  TRP208      0.0001
    124  CH2       14.9330    7.5550  -85.9410 C.ar  208  TRP208      0.0015
    125  N         16.2760   15.8890  -84.9060 N.am  209  GLY209     -0.1954
    126  CA        17.1530   17.0140  -84.6240 C.3   209  GLY209      0.1869
    127  C         16.5780   18.3270  -85.1190 C.2   209  GLY209      0.2309
    128  O         15.3600   18.4760  -85.2060 O.2   209  GLY209     -0.2863
    129  N         22.7280   20.6170  -88.3830 N.3   213  PRO213     -0.2116
    130  CA        24.0320   19.9580  -88.5520 C.3   213  PRO213      0.1372
    131  C         24.4080   19.8350  -90.0210 C.2   213  PRO213      0.2244
    132  O         23.5590   19.5820  -90.8780 O.2   213  PRO213     -0.2868
    133  CB        23.8260   18.5750  -87.9270 C.3   213  PRO213      0.0268
    134  CG        22.7810   18.7660  -86.9600 C.3   213  PRO213      0.0207
    135  CD        21.8460   19.8030  -87.5240 C.3   213  PRO213      0.0892
    136  N         26.7680   18.0980  -93.0320 N.3   215  ARG215     -0.1245
    137  CA        27.4220   16.8290  -93.3790 C.3   215  ARG215      0.1563
    138  C         27.8810   16.7550  -94.8300 C.2   215  ARG215      0.2260
    139  O         27.2060   17.2600  -95.7320 O.2   215  ARG215     -0.2867
    140  CB        26.4860   15.6280  -93.1370 C.3   215  ARG215      0.0307
    141  CG        26.0690   15.3580  -91.6960 C.3   215  ARG215      0.0489
    142  CD        27.1610   14.7550  -90.8450 C.3   215  ARG215      0.2205
    143  NE        26.6570   14.4800  -89.5060 N.pl3 215  ARG215     -0.0865
    144  CZ        26.6780   15.3490  -88.5030 C.cat 215  ARG215      0.5346
    145  NH1       27.1920   16.5570  -88.6750 N.pl3 215  ARG215      0.1354
    146  NH2       26.1730   15.0200  -87.3210 N.pl3 215  ARG215      0.1354
    147  N         21.4960   18.9790  -92.8450 N.3   252  ILE252     -0.1245
    148  CA        20.5320   17.8770  -92.7400 C.3   252  ILE252      0.1561
    149  C         19.1970   18.2990  -93.4350 C.2   252  ILE252      0.2260
    150  O         18.5980   17.4630  -94.1110 O.2   252  ILE252     -0.2867
    151  CB        20.3670   17.4260  -91.2480 C.3   252  ILE252      0.0252
    152  CG1       21.6980   16.8280  -90.6780 C.3   252  ILE252      0.0019
    153  CG2       19.1680   16.4850  -91.0070 C.3   252  ILE252      0.0019
    154  CD1       22.2460   15.4420  -91.2850 C.3   252  ILE252      0.0001
    155  N         18.5510   14.3460  -80.6560 N.3   276  SER276     -0.1202
    156  CA        19.9560   14.7200  -80.6770 C.3   276  SER276      0.2020
    157  C         20.4420   15.0050  -82.0860 C.2   276  SER276      0.2618
    158  O         20.0940   14.2960  -83.0320 O.2   276  SER276     -0.2717
    159  CB        20.8100   13.6250  -80.0420 C.3   276  SER276      0.2103
    160  OG        22.1700   14.0170  -79.9190 O.3   276  SER276     -0.2182
    161  N         21.2520   16.0610  -82.2090 N.am  277  ASP277     -0.1973
    162  CA        21.8780   16.4880  -83.4550 C.3   277  ASP277      0.1709
    163  C         23.2700   15.8540  -83.5980 C.2   277  ASP277      0.2293
    164  O         23.8350   15.8540  -84.6910 O.2   277  ASP277     -0.2864
    165  CB        22.0010   18.0270  -83.4820 C.3   277  ASP277      0.1436
    166  CG        20.8420   18.8020  -84.0870 C.2   277  ASP277      0.3671
    167  OD1       20.1440   18.2480  -84.9610 O.co2 277  ASP277     -0.2456
    168  OD2       20.7190   20.0030  -83.7890 O.co2 277  ASP277     -0.2456
    169  N         27.2540   15.5490  -83.4040 N.3   279  GLN279     -0.1245
    170  CA        28.2970   16.5020  -83.7960 C.3   279  GLN279      0.1566
    171  C         27.7250   17.4490  -84.8560 C.2   279  GLN279      0.2260
    172  O         27.2130   16.9830  -85.8710 O.2   279  GLN279     -0.2867
    173  CB        29.5080   15.7340  -84.3350 C.3   279  GLN279      0.0367
    174  CG        30.8290   16.4680  -84.2350 C.3   279  GLN279      0.0905
    175  CD        31.9950   15.5120  -84.3310 C.2   279  GLN279      0.2608
    176  OE1       32.0580   14.6370  -85.2050 O.2   279  GLN279     -0.2717
    177  NE2       32.9520   15.6590  -83.4240 N.am  279  GLN279     -0.0878
    178  N         31.8070   18.5020  -89.0240 N.3   282  LYS282     -0.1245
    179  CA        32.9750   17.6110  -89.1320 C.3   282  LYS282      0.1561
    180  C         33.6280   17.7850  -90.5190 C.2   282  LYS282      0.2260
    181  O         34.1600   16.8170  -91.0740 O.2   282  LYS282     -0.2867
    182  CB        32.5930   16.1300  -88.8610 C.3   282  LYS282      0.0271
    183  CG        31.4230   15.6030  -89.6860 C.3   282  LYS282      0.0035
    184  CD        31.2230   14.0980  -89.5360 C.3   282  LYS282      0.0206
    185  CE        30.2320   13.7120  -88.4710 C.3   282  LYS282      0.1093
    186  NZ        29.7860   12.3160  -88.6570 N.3   282  LYS282     -0.1314
@<TRIPOS>BOND
     1    49    48    2
     2    48    47    1
     3   139   138    2
     4    90    89    2
     5    89    88    1
     6   138   137    1
     7    46    47    1
     8    91    88    1
     9    91    92    1
    10    47    50    1
    11    97    98    2
    12    97    96    1
    13    50    51    1
    14    88    87    1
    15    95    96    1
    16   150   149    2
    17    93    92    1
    18    87    85   am
    19    92    94    1
    20    96    99    1
    21    83    84    1
    22   149   148    1
    23   137   140    1
    24   137   136    1
    25    79    78    2
    26   140   141    1
    27    78    77    1
    28    85    86    2
    29    85    84    1
    30    51    52    2
    31    51    53   am
    32   147   148    1
    33    99   100    1
    34   148   151    1
    35    81    80    1
    36    70    71    1
    37    70    67    1
    38   110   108    1
    39    77    80    1
    40    77    76    1
    41    82    80    1
    42   141   142    1
    43    73    71   ar
    44    73    75   ar
    45    69    68    2
    46    76    68   am
    47    71    72   ar
    48    68    67    1
    49   154   152    1
    50   100   101    1
    51   151   153    1
    52   151   152    1
    53   181   180    2
    54    75    74   ar
    55   132   131    2
    56   142   143    1
    57    67    66    1
    58   101   102    1
    59    59    61    1
    60    59    58    1
    61    66    64   am
    62   180   179    1
    63   109   108    1
    64   108   105    1
    65    72    74   ar
    66   131   130    1
    67    54    55    1
    68   183   184    1
    69   183   182    1
    70    63    64    1
    71    63    62    1
    72   184   185    1
    73   105   104    1
    74   105   106    1
    75    64    65    2
    76   143   144    2
    77   102   103    1
    78    55    58    1
    79    55    56    1
    80    58    60    1
    81   179   178    1
    82   179   182    1
    83   145   144    1
    84   186   185    1
    85   130   129    1
    86   130   133    1
    87    32    33    1
    88   144   146    1
    89   129   135    1
    90   106   111   am
    91   106   107    2
    92   133   134    1
    93    56    57    2
    94   111   112    1
    95   135   134    1
    96    37    36    1
    97    33    36    1
    98    33    34    1
    99     1     2    1
   100   114   113    2
   101     2     3    1
   102   112   113    1
   103   112   115    1
   104   113   125   am
   105    34    35    2
   106   123   121   ar
   107   123   124   ar
   108   121   118   ar
   109   124   122   ar
   110   172   171    2
   111   118   116   ar
   112   118   120   ar
   113   122   120   ar
   114   115   116    1
   115   116   117   ar
   116   120   119   ar
   117     3     5   am
   118     3     4    2
   119   119   117   ar
   120     5     6    1
   121   128   127    2
   122   176   175    2
   123   127   126    1
   124   167   166   ar
   125   125   126    1
   126   171   170    1
   127   164   163    2
   128    22    20   ar
   129    22    23   ar
   130     9     6    1
   131     9    10    1
   132    31    29   am
   133     6     7    1
   134   173   174    1
   135   173   170    1
   136   175   174    1
   137   175   177   am
   138    20    18   ar
   139    45    43   am
   140   166   168   ar
   141   166   165    1
   142   170   169    1
   143    12    10    1
   144    23    21   ar
   145   163   162    1
   146   165   162    1
   147   162   161    1
   148    29    30    2
   149    29    28    1
   150    10    11    1
   151    13     7   am
   152    13    14    1
   153     7     8    2
   154   158   157    2
   155    18    17    1
   156    18    19   ar
   157    43    44    2
   158    43    42    1
   159    17    14    1
   160    21    19   ar
   161    42    39    1
   162   161   157   am
   163    28    25    1
   164    14    15    1
   165   157   156    1
   166    24    25    1
   167    15    16    2
   168    25    26    1
   169    41    40    2
   170    39    40    1
   171    39    38    1
   172   156   155    1
   173   156   159    1
   174   159   160    1
   175    26    27    2
