@<TRIPOS>MOLECULE
tmp/4b95C00.pdb
 158 158 0 0 0
SMALL
GASTEIGER

@<TRIPOS>ATOM
      1  N        -14.2510   30.5730   -7.2540 N.3     6  ASN6       -0.1240
      2  CA       -13.6210   31.8940   -7.3210 C.3     6  ASN6        0.1653
      3  C        -14.6840   33.0030   -7.3050 C.2     6  ASN6        0.2266
      4  O        -14.9490   33.6330   -8.3300 O.2     6  ASN6       -0.2867
      5  CB       -12.6760   31.9810   -8.5270 C.3     6  ASN6        0.1155
      6  CG       -11.8080   33.2210   -8.5750 C.2     6  ASN6        0.2627
      7  OD1      -11.2940   33.5790   -9.6250 O.2     6  ASN6       -0.2716
      8  ND2      -11.6500   33.9310   -7.4610 N.am    6  ASN6       -0.0877
      9  N        -11.4690   31.2710   12.9790 N.3    15  PHE15      -0.1241
     10  CA       -11.0390   29.8890   13.1920 C.3    15  PHE15       0.1605
     11  C        -10.8260   29.7520   14.6840 C.2    15  PHE15       0.2264
     12  O         -9.9920   30.4610   15.2490 O.2    15  PHE15      -0.2867
     13  CB        -9.7070   29.5770   12.4470 C.3    15  PHE15       0.0534
     14  CG        -9.6940   29.4670   10.9370 C.ar   15  PHE15      -0.0203
     15  CD1      -10.8840   29.3940   10.2120 C.ar   15  PHE15      -0.0042
     16  CD2       -8.4880   29.4060   10.2360 C.ar   15  PHE15      -0.0042
     17  CE1      -10.8730   29.2670    8.8130 C.ar   15  PHE15      -0.0003
     18  CE2       -8.4740   29.2550    8.8410 C.ar   15  PHE15      -0.0003
     19  CZ        -9.6690   29.1700    8.1420 C.ar   15  PHE15      -0.0000
     20  N         -4.5650   24.8020    9.1740 N.3    25  PRO25      -0.2116
     21  CA        -5.6850   25.0230    8.2470 C.3    25  PRO25       0.1372
     22  C         -5.2080   24.7930    6.8170 C.2    25  PRO25       0.2244
     23  O         -4.0680   25.1110    6.4200 O.2    25  PRO25      -0.2868
     24  CB        -6.1150   26.4590    8.5310 C.3    25  PRO25       0.0268
     25  CG        -5.1610   26.9760    9.6230 C.3    25  PRO25       0.0207
     26  CD        -3.9710   26.0820    9.6070 C.3    25  PRO25       0.0892
     27  N         -6.4330   25.2550    2.8650 N.3    27  TRP27      -0.1241
     28  CA        -7.3520   25.7990    1.8750 C.3    27  TRP27       0.1605
     29  C         -7.2080   25.0190    0.5730 C.2    27  TRP27       0.2264
     30  O         -6.0990   24.8600    0.0810 O.2    27  TRP27      -0.2867
     31  CB        -7.0960   27.2890    1.6250 C.3    27  TRP27       0.0550
     32  CG        -7.9040   27.8620    0.4980 C.ar   27  TRP27       0.0003
     33  CD1       -9.2640   27.9330    0.4210 C.ar   27  TRP27       0.0946
     34  CD2       -7.4010   28.5310   -0.6690 C.ar   27  TRP27       0.0152
     35  NE1       -9.6430   28.5600   -0.7480 N.ar   27  TRP27      -0.2442
     36  CE2       -8.5200   28.9420   -1.4330 C.ar   27  TRP27       0.0810
     37  CE3       -6.1120   28.8280   -1.1450 C.ar   27  TRP27       0.0012
     38  CZ2       -8.3880   29.6170   -2.6570 C.ar   27  TRP27       0.0191
     39  CZ3       -5.9840   29.4800   -2.3630 C.ar   27  TRP27       0.0001
     40  CH2       -7.1100   29.8700   -3.1030 C.ar   27  TRP27       0.0015
     41  N         -8.2730   26.8300   -6.3300 N.3    30  PHE30      -0.1241
     42  CA        -9.1280   26.7350   -7.4980 C.3    30  PHE30       0.1605
     43  C         -8.8750   25.5060   -8.3380 C.2    30  PHE30       0.2264
     44  O         -9.8040   25.0310   -8.9820 O.2    30  PHE30      -0.2867
     45  CB        -9.1180   28.0530   -8.2890 C.3    30  PHE30       0.0534
     46  CG        -9.3980   29.2630   -7.4160 C.ar   30  PHE30      -0.0203
     47  CD1      -10.5530   29.3320   -6.6410 C.ar   30  PHE30      -0.0042
     48  CD2       -8.5060   30.3210   -7.3590 C.ar   30  PHE30      -0.0042
     49  CE1      -10.7970   30.4310   -5.8110 C.ar   30  PHE30      -0.0003
     50  CE2       -8.7790   31.4420   -6.5700 C.ar   30  PHE30      -0.0003
     51  CZ        -9.9220   31.4900   -5.7980 C.ar   30  PHE30      -0.0000
     52  N         -3.6960   24.0180    0.0990 N.3    35  GLN35      -0.1245
     53  CA        -2.7510   25.0780    0.4400 C.3    35  GLN35       0.1566
     54  C         -2.7050   25.2950    1.9630 C.2    35  GLN35       0.2260
     55  O         -3.6610   25.8350    2.5350 O.2    35  GLN35      -0.2867
     56  CB        -3.0920   26.3600   -0.3210 C.3    35  GLN35       0.0367
     57  CG        -2.0410   27.4380   -0.1750 C.3    35  GLN35       0.0905
     58  CD        -2.2600   28.5340   -1.1890 C.2    35  GLN35       0.2608
     59  OE1       -2.4670   29.7020   -0.8290 O.2    35  GLN35      -0.2717
     60  NE2       -2.2170   28.1770   -2.4880 N.am   35  GLN35      -0.0878
     61  N         -1.9450   26.8270    5.7160 N.3    37  TYR37      -0.1228
     62  CA        -1.9230   28.1790    6.3050 C.3    37  TYR37       0.1721
     63  C         -1.2140   28.1800    7.6770 C.2    37  TYR37       0.2437
     64  O         -0.9160   27.0960    8.1860 O.2    37  TYR37      -0.2733
     65  CB        -3.3660   28.7560    6.3640 C.3    37  TYR37       0.0547
     66  CG        -3.7510   29.4530    5.0720 C.ar   37  TYR37      -0.0200
     67  CD1       -4.1460   28.7220    3.9490 C.ar   37  TYR37      -0.0009
     68  CD2       -3.6250   30.8300    4.9370 C.ar   37  TYR37      -0.0009
     69  CE1       -4.4530   29.3550    2.7420 C.ar   37  TYR37       0.0417
     70  CE2       -3.9400   31.4740    3.7380 C.ar   37  TYR37       0.0417
     71  CZ        -4.3600   30.7330    2.6460 C.ar   37  TYR37       0.1957
     72  OH        -4.6520   31.3660    1.4660 O.3    37  TYR37      -0.2866
     73  N         -0.8770   29.3400    8.2860 N.am   38  PRO38      -0.2729
     74  CA        -0.1510   29.2960    9.5690 C.3    38  PRO38       0.1401
     75  C         -0.9440   28.6060   10.6690 C.2    38  PRO38       0.2269
     76  O         -2.1600   28.7770   10.7900 O.2    38  PRO38      -0.2865
     77  CB         0.1640   30.7680    9.8600 C.3    38  PRO38       0.0296
     78  CG         0.0510   31.4660    8.5580 C.3    38  PRO38       0.0237
     79  CD        -1.0580   30.7380    7.8460 C.3    38  PRO38       0.0939
     80  N         -2.5150   27.1610   14.1780 N.3    40  LEU40      -0.1245
     81  CA        -3.2330   27.6460   15.3720 C.3    40  LEU40       0.1561
     82  C         -2.8270   26.8600   16.6310 C.2    40  LEU40       0.2260
     83  O         -3.1410   25.6560   16.6930 O.2    40  LEU40      -0.2867
     84  CB        -4.7360   27.3970   15.2000 C.3    40  LEU40       0.0270
     85  CG        -5.5850   28.4620   14.5770 C.3    40  LEU40       0.0019
     86  CD1       -5.5740   28.3250   13.0700 C.3    40  LEU40       0.0001
     87  CD2       -7.0100   28.3260   15.0540 C.3    40  LEU40       0.0001
     88  N         -8.4010   32.7890   15.6020 N.3    46  ARG46      -0.1245
     89  CA        -7.7970   33.6850   14.6240 C.3    46  ARG46       0.1563
     90  C         -8.8220   34.2320   13.6540 C.2    46  ARG46       0.2260
     91  O         -9.5730   33.4570   13.0640 O.2    46  ARG46      -0.2867
     92  CB        -6.6370   33.0120   13.8760 C.3    46  ARG46       0.0307
     93  CG        -5.5950   34.0250   13.3720 C.3    46  ARG46       0.0489
     94  CD        -4.5750   33.4190   12.4560 C.3    46  ARG46       0.2205
     95  NE        -3.8150   32.4490   13.2340 N.pl3  46  ARG46      -0.0865
     96  CZ        -2.8840   31.6670   12.7470 C.cat  46  ARG46       0.5346
     97  NH1       -2.5730   31.7190   11.4610 N.pl3  46  ARG46       0.1354
     98  NH2       -2.2560   30.8070   13.5350 N.pl3  46  ARG46       0.1354
     99  N         -9.6040   35.5160   10.2490 N.3    48  ILE48      -0.1231
    100  CA        -9.0110   35.3310    8.9390 C.3    48  ILE48       0.1692
    101  C         -9.8820   35.9060    7.8300 C.2    48  ILE48       0.2592
    102  O        -11.1100   35.9510    7.9490 O.2    48  ILE48      -0.2718
    103  CB        -8.6410   33.8330    8.7040 C.3    48  ILE48       0.0266
    104  CG1       -9.7860   33.0020    8.1450 C.3    48  ILE48       0.0019
    105  CG2       -7.9150   33.1680    9.8830 C.3    48  ILE48       0.0020
    106  CD1       -9.5660   32.6950    6.7240 C.3    48  ILE48       0.0001
    107  N         -9.2290   36.3280    6.7420 N.am   49  HIS49      -0.1962
    108  CA        -9.8960   36.8640    5.5640 C.3    49  HIS49       0.1787
    109  C         -9.9710   35.7520    4.5410 C.2    49  HIS49       0.2621
    110  O         -8.9330   35.2920    4.0510 O.2    49  HIS49      -0.2715
    111  CB        -9.1190   38.0690    4.9930 C.3    49  HIS49       0.0785
    112  CG        -9.2170   39.2940    5.8380 C.ar   49  HIS49       0.0821
    113  ND1       -8.9500   39.2560    7.2010 N.ar   49  HIS49      -0.2267
    114  CD2       -9.5540   40.5600    5.4910 C.ar   49  HIS49       0.1154
    115  CE1       -9.1470   40.4900    7.6420 C.ar   49  HIS49       0.1986
    116  NE2       -9.4950   41.3180    6.6460 N.ar   49  HIS49      -0.2212
    117  N        -11.1960   35.2760    4.2730 N.am   50  SER50      -0.1936
    118  CA       -11.4650   34.2800    3.2390 C.3    50  SER50       0.2055
    119  C        -12.5260   34.8420    2.2960 C.2    50  SER50       0.2643
    120  O        -12.7280   36.0610    2.2380 O.2    50  SER50      -0.2714
    121  CB       -11.8730   32.9310    3.8320 C.3    50  SER50       0.2130
    122  OG       -11.8830   31.8780    2.8730 O.3    50  SER50      -0.2179
    123  N        -13.1480   33.9720    1.5060 N.am   51  TYR51      -0.1973
    124  CA       -14.1250   34.3440    0.4940 C.3    51  TYR51       0.1639
    125  C        -15.2710   33.3380    0.4770 C.2    51  TYR51       0.2290
    126  O        -15.0740   32.1770    0.8570 O.2    51  TYR51      -0.2864
    127  CB       -13.4360   34.4210   -0.8840 C.3    51  TYR51       0.0560
    128  CG       -12.3280   35.4510   -0.9370 C.ar   51  TYR51      -0.0198
    129  CD1      -11.0170   35.1150   -0.6060 C.ar   51  TYR51      -0.0009
    130  CD2      -12.5880   36.7660   -1.3170 C.ar   51  TYR51      -0.0009
    131  CE1       -9.9930   36.0670   -0.6410 C.ar   51  TYR51       0.0417
    132  CE2      -11.5760   37.7250   -1.3500 C.ar   51  TYR51       0.0417
    133  CZ       -10.2770   37.3690   -1.0230 C.ar   51  TYR51       0.1957
    134  OH        -9.2870   38.3270   -1.0470 O.3    51  TYR51      -0.2866
    135  N        -15.2740   29.3200   -0.8040 N.3    54  HIS54      -0.1241
    136  CA       -13.9290   28.7700   -0.6610 C.3    54  HIS54       0.1621
    137  C        -13.9730   27.5640    0.2550 C.2    54  HIS54       0.2264
    138  O        -14.7340   27.5620    1.2120 O.2    54  HIS54      -0.2867
    139  CB       -12.9510   29.8280   -0.1250 C.3    54  HIS54       0.0745
    140  CG       -12.4130   30.7440   -1.1810 C.ar   54  HIS54       0.0817
    141  ND1      -11.1660   31.3280   -1.0560 N.ar   54  HIS54      -0.2268
    142  CD2      -12.9660   31.1420   -2.3520 C.ar   54  HIS54       0.1154
    143  CE1      -10.9980   32.0510   -2.1490 C.ar   54  HIS54       0.1986
    144  NE2      -12.0510   31.9590   -2.9630 N.ar   54  HIS54      -0.2212
    145  N        -12.3040   24.8060    2.9480 N.3    56  TRP56      -0.1241
    146  CA       -11.3190   24.6090    4.0190 C.3    56  TRP56       0.1605
    147  C        -11.4300   23.2500    4.7160 C.2    56  TRP56       0.2264
    148  O        -12.5150   22.6680    4.8220 O.2    56  TRP56      -0.2867
    149  CB       -11.4790   25.6860    5.0930 C.3    56  TRP56       0.0550
    150  CG       -11.0750   27.0670    4.6730 C.ar   56  TRP56       0.0003
    151  CD1      -11.8930   28.0600    4.2180 C.ar   56  TRP56       0.0946
    152  CD2       -9.7800   27.6440    4.8060 C.ar   56  TRP56       0.0152
    153  NE1      -11.1790   29.2170    4.0400 N.ar   56  TRP56      -0.2442
    154  CE2       -9.8750   28.9900    4.3840 C.ar   56  TRP56       0.0810
    155  CE3       -8.5360   27.1550    5.2450 C.ar   56  TRP56       0.0012
    156  CZ2       -8.7720   29.8530    4.3780 C.ar   56  TRP56       0.0191
    157  CZ3       -7.4390   28.0050    5.2200 C.ar   56  TRP56       0.0001
    158  CH2       -7.5610   29.3370    4.7880 C.ar   56  TRP56       0.0015
@<TRIPOS>BOND
     1     7     6    2
     2    44    43    2
     3     6     5    1
     4     6     8   am
     5     5     2    1
     6    43    42    1
     7     4     3    2
     8    45    42    1
     9    45    46    1
    10    42    41    1
    11    46    48   ar
    12    46    47   ar
    13    48    50   ar
    14     2     3    1
    15     2     1    1
    16    47    49   ar
    17    50    51   ar
    18    49    51   ar
    19    40    38   ar
    20    40    39   ar
    21   144   142   ar
    22   144   143   ar
    23    38    36   ar
    24    60    58   am
    25    39    37   ar
    26   142   140   ar
    27   143   141   ar
    28    36    35   ar
    29    36    34   ar
    30   132   130   ar
    31   132   133   ar
    32   130   128   ar
    33    58    59    2
    34    58    57    1
    35   140   141   ar
    36   140   139    1
    37    37    34   ar
    38   134   133    1
    39   133   131   ar
    40   128   127    1
    41   128   129   ar
    42   127   124    1
    43   135   136    1
    44    35    33   ar
    45    34    32   ar
    46   136   139    1
    47   136   137    1
    48   131   129   ar
    49    56    57    1
    50    56    53    1
    51    30    29    2
    52    52    53    1
    53   137   138    2
    54    33    32   ar
    55    53    54    1
    56   125   124    1
    57   125   126    2
    58   124   123    1
    59    32    31    1
    60    29    28    1
    61    72    71    1
    62   123   119   am
    63    31    28    1
    64    28    27    1
    65    54    55    2
    66   120   119    2
    67   119   118    1
    68    71    69   ar
    69    71    70   ar
    70    69    67   ar
    71   122   121    1
    72   145   146    1
    73   118   121    1
    74   118   117    1
    75    70    68   ar
    76    67    66   ar
    77   146   147    1
    78   146   149    1
    79   153   151   ar
    80   153   154   ar
    81   110   109    2
    82   151   150   ar
    83   117   109   am
    84   156   154   ar
    85   156   158   ar
    86   154   152   ar
    87   109   108    1
    88   150   152   ar
    89   150   149    1
    90   147   148    2
    91   158   157   ar
    92   152   155   ar
    93    68    66   ar
    94   111   108    1
    95   111   112    1
    96    66    65    1
    97   157   155   ar
    98   114   112   ar
    99   114   116   ar
   100   108   107    1
   101    61    62    1
   102   112   113   ar
   103    62    65    1
   104    62    63    1
   105    23    22    2
   106   116   115   ar
   107   106   104    1
   108   107   101   am
   109    22    21    1
   110   113   115   ar
   111    63    64    2
   112    63    73   am
   113   101   102    2
   114   101   100    1
   115    79    73    1
   116    79    78    1
   117    19    17   ar
   118    19    18   ar
   119   104   103    1
   120    21    24    1
   121    21    20    1
   122    73    74    1
   123    24    25    1
   124    78    77    1
   125   103   100    1
   126   103   105    1
   127    17    15   ar
   128    18    16   ar
   129   100    99    1
   130    20    26    1
   131    74    77    1
   132    74    75    1
   133    26    25    1
   134    15    14   ar
   135    16    14   ar
   136    75    76    2
   137    14    13    1
   138    97    96    1
   139    13    10    1
   140    94    95    1
   141    94    93    1
   142    96    95    2
   143    96    98    1
   144     9    10    1
   145    91    90    2
   146    86    85    1
   147    10    11    1
   148    93    92    1
   149    90    89    1
   150    92    89    1
   151    80    81    1
   152    85    87    1
   153    85    84    1
   154    89    88    1
   155    11    12    2
   156    84    81    1
   157    81    82    1
   158    82    83    2
