@<TRIPOS>MOLECULE
tmp/4b99A00.pdb
 176 165 0 0 0
SMALL
GASTEIGER

@<TRIPOS>ATOM
      1  N        -51.6790   -5.8130  -18.2910 N.3    13  GLU13      -0.1231
      2  CA       -51.4310   -6.2780  -16.9340 C.3    13  GLU13       0.1699
      3  C        -51.4970   -5.1060  -15.9610 C.2    13  GLU13       0.2593
      4  O        -51.2040   -3.9690  -16.3210 O.2    13  GLU13      -0.2718
      5  CB       -50.0580   -6.9480  -16.8520 C.3    13  GLU13       0.0402
      6  CG       -48.8960   -6.0820  -17.0250 C.3    13  GLU13       0.1161
      7  CD       -47.4920   -6.8530  -16.9550 C.2    13  GLU13       0.3649
      8  OE1      -47.4910   -7.9990  -16.6190 O.co2  13  GLU13      -0.2457
      9  OE2      -46.6450   -6.1440  -17.2720 O.co2  13  GLU13      -0.2457
     10  N        -51.9000   -5.3950  -14.7310 N.am   14  THR14      -0.1939
     11  CA       -51.8080   -4.4380  -13.6400 C.3    14  THR14       0.2028
     12  C        -50.3770   -4.4330  -13.1170 C.2    14  THR14       0.2642
     13  O        -49.8820   -5.4630  -12.6620 O.2    14  THR14      -0.2714
     14  CB       -52.7840   -4.8070  -12.5100 C.3    14  THR14       0.1808
     15  OG1      -54.1180   -4.5120  -12.9400 O.3    14  THR14      -0.2208
     16  CG2      -52.4790   -4.0280  -11.2280 C.3    14  THR14       0.0379
     17  N        -49.7130   -3.2800  -13.1790 N.am   15  ILE15      -0.1963
     18  CA       -48.3090   -3.2010  -12.7820 C.3    15  ILE15       0.1727
     19  C        -48.1440   -3.0800  -11.2770 C.2    15  ILE15       0.2617
     20  O        -47.2770   -3.7210  -10.6900 O.2    15  ILE15      -0.2715
     21  CB       -47.5780   -2.0220  -13.4340 C.3    15  ILE15       0.0290
     22  CG1      -47.5600   -2.1800  -14.9530 C.3    15  ILE15       0.0022
     23  CG2      -46.1470   -1.9620  -12.9230 C.3    15  ILE15       0.0023
     24  CD1      -46.9650   -0.9860  -15.6770 C.3    15  ILE15       0.0001
     25  N        -48.9480   -2.2360  -10.6530 N.am   16  GLY16      -0.1940
     26  CA       -48.8460   -2.0590   -9.2190 C.3    16  GLY16       0.2014
     27  C        -49.6040   -0.8700   -8.6740 C.2    16  GLY16       0.2639
     28  O        -50.5400   -0.3660   -9.2980 O.2    16  GLY16      -0.2714
     29  N        -49.1690   -0.4310   -7.4960 N.am   17  ASN17      -0.1958
     30  CA       -49.8330    0.6170   -6.7470 C.3    17  ASN17       0.1819
     31  C        -48.9140    1.7840   -6.3970 C.2    17  ASN17       0.2621
     32  O        -47.7930    1.5850   -5.8990 O.2    17  ASN17      -0.2715
     33  CB       -50.3940    0.0360   -5.4470 C.3    17  ASN17       0.1195
     34  CG       -51.7790   -0.5290   -5.6160 C.2    17  ASN17       0.2630
     35  OD1      -52.7440    0.0260   -5.1040 O.2    17  ASN17      -0.2716
     36  ND2      -51.8900   -1.6300   -6.3440 N.am   17  ASN17      -0.0877
     37  N        -49.3960    2.9960   -6.6800 N.am   18  GLY18      -0.1954
     38  CA       -49.0080    4.1670   -5.9080 C.3    18  GLY18       0.1869
     39  C        -49.7420    4.0760   -4.5690 C.2    18  GLY18       0.2309
     40  O        -50.5780    3.1770   -4.3620 O.2    18  GLY18      -0.2863
     41  N        -52.0230    1.4180  -11.2080 N.3    23  VAL23      -0.1245
     42  CA       -51.3510    1.5860  -12.5090 C.3    23  VAL23       0.1561
     43  C        -51.3350    0.3020  -13.3370 C.2    23  VAL23       0.2260
     44  O        -50.7110   -0.6940  -12.9530 O.2    23  VAL23      -0.2867
     45  CB       -49.9070    2.1080  -12.3300 C.3    23  VAL23       0.0252
     46  CG1      -49.1930    2.2090  -13.6650 C.3    23  VAL23       0.0019
     47  CG2      -49.9250    3.4630  -11.6370 C.3    23  VAL23       0.0019
     48  N        -49.2640    3.5180  -20.1780 N.3    36  ALA36      -0.1245
     49  CA       -49.5890    3.1410  -18.8010 C.3    36  ALA36       0.1562
     50  C        -50.7670    3.9730  -18.3600 C.2    36  ALA36       0.2260
     51  O        -50.7650    5.1850  -18.5540 O.2    36  ALA36      -0.2867
     52  CB       -48.4120    3.3870  -17.8770 C.3    36  ALA36       0.0290
     53  N        -53.2060    5.1430  -15.2000 N.3    38  LYS38      -0.1245
     54  CA       -53.3940    5.2360  -13.7590 C.3    38  LYS38       0.1561
     55  C        -54.8210    5.5960  -13.4560 C.2    38  LYS38       0.2260
     56  O        -55.2870    6.6400  -13.8820 O.2    38  LYS38      -0.2867
     57  CB       -52.4850    6.2980  -13.1420 C.3    38  LYS38       0.0271
     58  CG       -52.6930    6.4640  -11.6400 C.3    38  LYS38       0.0035
     59  CD       -51.5000    7.0970  -10.9350 C.3    38  LYS38       0.0206
     60  CE       -51.4840    8.6060  -11.0940 C.3    38  LYS38       0.1093
     61  NZ       -50.3420    9.2060  -10.3540 N.3    38  LYS38      -0.1314
     62  N        -50.4440   17.8230   -9.5390 N.3    56  GLU56      -0.1245
     63  CA       -49.6470   16.9590  -10.4080 C.3    56  GLU56       0.1567
     64  C        -50.0560   17.0470  -11.8830 C.2    56  GLU56       0.2260
     65  O        -49.1940   17.0070  -12.7570 O.2    56  GLU56      -0.2867
     66  CB       -49.6510   15.5150   -9.9130 C.3    56  GLU56       0.0388
     67  CG       -48.6970   14.6370  -10.7100 C.3    56  GLU56       0.1160
     68  CD       -48.3760   13.3070  -10.0540 C.2    56  GLU56       0.3649
     69  OE1      -49.0020   12.9860   -9.0060 O.co2  56  GLU56      -0.2457
     70  OE2      -47.4890   12.5950  -10.6080 O.co2  56  GLU56      -0.2457
     71  N        -41.6380   12.2210  -17.0300 N.3    69  ILE69      -0.1245
     72  CA       -42.8190   11.4290  -17.3860 C.3    69  ILE69       0.1561
     73  C        -43.9240   12.3500  -17.8760 C.2    69  ILE69       0.2260
     74  O        -44.0160   13.4910  -17.4390 O.2    69  ILE69      -0.2867
     75  CB       -43.2940   10.5690  -16.1880 C.3    69  ILE69       0.0252
     76  CG1      -44.3220    9.5340  -16.6290 C.3    69  ILE69       0.0019
     77  CG2      -43.8850   11.4340  -15.0910 C.3    69  ILE69       0.0019
     78  CD1      -44.6390    8.5030  -15.5720 C.3    69  ILE69       0.0001
     79  N        -50.3000    7.7030  -19.2630 N.3    91  LEU91      -0.1231
     80  CA       -48.9220    8.1840  -19.1470 C.3    91  LEU91       0.1693
     81  C        -47.9310    7.2640  -19.8780 C.2    91  LEU91       0.2592
     82  O        -48.2700    6.1410  -20.2350 O.2    91  LEU91      -0.2718
     83  CB       -48.5250    8.2490  -17.6720 C.3    91  LEU91       0.0284
     84  CG       -49.4410    8.9430  -16.6520 C.3    91  LEU91       0.0019
     85  CD1      -49.4930    8.1690  -15.3520 C.3    91  LEU91       0.0001
     86  CD2      -48.9830   10.3540  -16.3530 C.3    91  LEU91       0.0001
     87  N        -46.7080    7.7560  -20.0920 N.am   92  ASP92      -0.1960
     88  CA       -45.5920    6.9470  -20.6040 C.3    92  ASP92       0.1840
     89  C        -45.4400    5.6950  -19.7770 C.2    92  ASP92       0.2622
     90  O        -45.3920    5.7860  -18.5640 O.2    92  ASP92      -0.2715
     91  CB       -44.2620    7.7030  -20.4840 C.3    92  ASP92       0.1450
     92  CG       -44.1030    8.8160  -21.5040 C.2    92  ASP92       0.3671
     93  OD1      -44.6790    8.7150  -22.6150 O.co2  92  ASP92      -0.2456
     94  OD2      -43.3720    9.7900  -21.1900 O.co2  92  ASP92      -0.2456
     95  N        -45.3450    4.5380  -20.4250 N.am   93  LEU93      -0.1963
     96  CA       -45.0980    3.2670  -19.7320 C.3    93  LEU93       0.1728
     97  C        -43.6260    2.9750  -19.8560 C.2    93  LEU93       0.2616
     98  O        -43.1150    2.9290  -20.9550 O.2    93  LEU93      -0.2715
     99  CB       -45.8910    2.1140  -20.3560 C.3    93  LEU93       0.0311
    100  CG       -45.4890    0.6990  -19.9130 C.3    93  LEU93       0.0022
    101  CD1      -46.0390    0.3890  -18.5350 C.3    93  LEU93       0.0001
    102  CD2      -45.9470   -0.3560  -20.9080 C.3    93  LEU93       0.0001
    103  N        -42.9530    2.7890  -18.7230 N.am   94  MET94      -0.1963
    104  CA       -41.5520    2.4020  -18.6960 C.3    94  MET94       0.1736
    105  C        -41.5030    0.9640  -18.2140 C.2    94  MET94       0.2616
    106  O        -42.5330    0.3880  -17.8950 O.2    94  MET94      -0.2715
    107  CB       -40.7670    3.3260  -17.7730 C.3    94  MET94       0.0427
    108  CG       -40.7880    4.7840  -18.2070 C.3    94  MET94       0.0599
    109  SD       -39.9740    5.0670  -19.7920 S.3    94  MET94      -0.1393
    110  CE       -38.2700    5.1710  -19.2650 C.3    94  MET94       0.0692
    111  N        -40.3160    0.3780  -18.1680 N.am   95  GLU95      -0.1963
    112  CA       -40.1910   -1.0510  -17.8900 C.3    95  GLU95       0.1733
    113  C        -39.8550   -1.3710  -16.4360 C.2    95  GLU95       0.2617
    114  O        -40.1790   -2.4390  -15.9460 O.2    95  GLU95      -0.2715
    115  CB       -39.1430   -1.6510  -18.8220 C.3    95  GLU95       0.0429
    116  CG       -39.4790   -1.4280  -20.2940 C.3    95  GLU95       0.1163
    117  CD       -38.5190   -2.1220  -21.2330 C.2    95  GLU95       0.3649
    118  OE1      -37.3320   -2.2730  -20.8670 O.co2  95  GLU95      -0.2457
    119  OE2      -38.9560   -2.5100  -22.3370 O.co2  95  GLU95      -0.2457
    120  N        -39.2120   -0.4400  -15.7520 N.am   96  SER96      -0.1936
    121  CA       -38.8140   -0.6340  -14.3730 C.3    96  SER96       0.2055
    122  C        -38.5680    0.7260  -13.7250 C.2    96  SER96       0.2643
    123  O        -38.7950    1.7670  -14.3450 O.2    96  SER96      -0.2714
    124  CB       -37.5430   -1.4800  -14.3390 C.3    96  SER96       0.2130
    125  OG       -36.9700   -1.5220  -13.0450 O.3    96  SER96      -0.2179
    126  N        -38.1250    0.7130  -12.4730 N.am   97  ASP97      -0.1971
    127  CA       -37.6000    1.9190  -11.8420 C.3    97  ASP97       0.1709
    128  C        -36.2030    1.6650  -11.3020 C.2    97  ASP97       0.2293
    129  O        -35.7130    0.5430  -11.2930 O.2    97  ASP97      -0.2864
    130  CB       -38.5320    2.4460  -10.7560 C.3    97  ASP97       0.1436
    131  CG       -38.6760    1.4920   -9.5980 C.2    97  ASP97       0.3671
    132  OD1      -37.6550    0.8860   -9.2180 O.co2  97  ASP97      -0.2456
    133  OD2      -39.8040    1.3570   -9.0640 O.co2  97  ASP97      -0.2456
    134  N        -35.3190   -0.9610   -8.4730 N.3   100  GLN100     -0.1245
    135  CA       -35.2350   -2.3590   -8.8930 C.3   100  GLN100      0.1566
    136  C        -33.8850   -2.6440   -9.5360 C.2   100  GLN100      0.2260
    137  O        -33.3190   -3.7320   -9.3820 O.2   100  GLN100     -0.2867
    138  CB       -36.3280   -2.6880   -9.9010 C.3   100  GLN100      0.0367
    139  CG       -37.7390   -2.3900   -9.4270 C.3   100  GLN100      0.0905
    140  CD       -38.0600   -3.0510   -8.1030 C.2   100  GLN100      0.2608
    141  OE1      -37.7430   -4.2190   -7.8960 O.2   100  GLN100     -0.2717
    142  NE2      -38.6910   -2.3040   -7.1980 N.am  100  GLN100     -0.0878
    143  N        -37.1670    4.8680   -6.7910 N.3   140  SER140     -0.1202
    144  CA       -38.4630    4.3450   -7.2620 C.3   140  SER140      0.2020
    145  C        -39.3380    5.3870   -8.0010 C.2   140  SER140      0.2618
    146  O        -40.2980    5.0180   -8.6920 O.2   140  SER140     -0.2717
    147  CB       -39.2380    3.6960   -6.1190 C.3   140  SER140      0.2103
    148  OG       -39.2290    4.5250   -4.9910 O.3   140  SER140     -0.2182
    149  N        -39.0010    6.6700   -7.8570 N.am  141  ASN141     -0.1974
    150  CA       -39.6200    7.7490   -8.6330 C.3   141  ASN141      0.1688
    151  C        -38.8260    8.0620   -9.9180 C.2   141  ASN141      0.2292
    152  O        -39.1090    9.0420  -10.6160 O.2   141  ASN141     -0.2864
    153  CB       -39.7420    9.0220   -7.7820 C.3   141  ASN141      0.1181
    154  CG       -40.8250    8.9230   -6.7340 C.2   141  ASN141      0.2629
    155  OD1      -41.7040    8.0620   -6.8090 O.2   141  ASN141     -0.2716
    156  ND2      -40.7730    9.8080   -5.7420 N.am  141  ASN141     -0.0877
    157  N        -38.0660    6.3260  -13.3600 N.3   143  LEU143     -0.1245
    158  CA       -38.4540    5.2270  -14.2310 C.3   143  LEU143      0.1561
    159  C        -37.4130    5.0240  -15.3100 C.2   143  LEU143      0.2260
    160  O        -36.7690    5.9720  -15.7380 O.2   143  LEU143     -0.2867
    161  CB       -39.8020    5.5210  -14.8680 C.3   143  LEU143      0.0270
    162  CG       -40.9120    5.8240  -13.8730 C.3   143  LEU143      0.0019
    163  CD1      -42.1790    6.1880  -14.6210 C.3   143  LEU143      0.0001
    164  CD2      -41.1290    4.6250  -12.9600 C.3   143  LEU143      0.0001
    165  N        -40.6330   10.8760  -12.3610 N.3   153  GLY153     -0.1210
    166  CA       -42.0780   10.8670  -12.1420 C.3   153  GLY153      0.1956
    167  C        -42.4690   11.1840  -10.7170 C.2   153  GLY153      0.2611
    168  O        -41.6130   11.3120   -9.8510 O.2   153  GLY153     -0.2717
    169  N        -43.7750   11.3200  -10.4980 N.am  154  ASP154     -0.1973
    170  CA       -44.3810   11.5450   -9.1730 C.3   154  ASP154      0.1709
    171  C        -44.1000   12.9200   -8.5800 C.2   154  ASP154      0.2293
    172  O        -43.1580   13.0930   -7.8080 O.2   154  ASP154     -0.2864
    173  CB       -43.9710   10.4580   -8.1820 C.3   154  ASP154      0.1436
    174  CG       -44.6980   10.5730   -6.8650 C.2   154  ASP154      0.3671
    175  OD1      -45.5100   11.5190   -6.6990 O.co2 154  ASP154     -0.2456
    176  OD2      -44.4490    9.7100   -5.9970 O.co2 154  ASP154     -0.2456
@<TRIPOS>BOND
     1    93    92   ar
     2   119   117   ar
     3    92    94   ar
     4    92    91    1
     5   117   118   ar
     6   117   116    1
     7    98    97    2
     8   102   100    1
     9    88    91    1
    10    88    87    1
    11    88    89    1
    12    95    89   am
    13    95    96    1
    14    99   100    1
    15    99    96    1
    16   116   115    1
    17    82    81    2
    18    48    49    1
    19    87    81   am
    20   100   101    1
    21    81    80    1
    22    97    96    1
    23    97   103   am
    24   109   110    1
    25   109   108    1
    26    89    90    2
    27    79    80    1
    28    80    83    1
    29   115   112    1
    30    49    50    1
    31    49    52    1
    32   103   104    1
    33   104   105    1
    34   104   107    1
    35    51    50    2
    36     1     2    1
    37   105   111   am
    38   105   106    2
    39   108   107    1
    40   111   112    1
    41   112   113    1
    42    73    74    2
    43    73    72    1
    44    83    84    1
    45    72    71    1
    46    72    75    1
    47     9     7   ar
    48     6     7    1
    49     6     5    1
    50     7     8   ar
    51     2     5    1
    52     2     3    1
    53    84    86    1
    54    84    85    1
    55    76    75    1
    56    76    78    1
    57   113   114    2
    58   113   120   am
    59     4     3    2
    60    75    77    1
    61     3    10   am
    62   120   121    1
    63   160   159    2
    64    24    22    1
    65   159   158    1
    66    53    54    1
    67    22    21    1
    68   161   158    1
    69   161   162    1
    70    10    11    1
    71   163   162    1
    72   121   124    1
    73   121   122    1
    74   123   122    2
    75   124   125    1
    76   158   157    1
    77    56    55    2
    78   162   164    1
    79    54    55    1
    80    54    57    1
    81   122   126   am
    82    46    45    1
    83    11    12    1
    84    11    14    1
    85    21    23    1
    86    21    18    1
    87    43    44    2
    88    43    42    1
    89    17    12   am
    90    17    18    1
    91    57    58    1
    92    12    13    2
    93    15    14    1
    94    18    19    1
    95    65    64    2
    96    14    16    1
    97    42    45    1
    98    42    41    1
    99   126   127    1
   100   165   166    1
   101    45    47    1
   102   166   167    1
   103    64    63    1
   104   127   128    1
   105   127   130    1
   106    58    59    1
   107   128   129    2
   108    19    20    2
   109    19    25   am
   110    60    59    1
   111    60    61    1
   112   130   131    1
   113   167   169   am
   114   167   168    2
   115    67    68    1
   116    67    66    1
   117    25    26    1
   118   152   151    2
   119    70    68   ar
   120   169   170    1
   121    63    66    1
   122    63    62    1
   123    68    69   ar
   124   151   150    1
   125   138   139    1
   126   138   135    1
   127   131   132   ar
   128   131   133   ar
   129   136   137    2
   130   136   135    1
   131   139   140    1
   132    28    27    2
   133    26    27    1
   134   170   171    1
   135   170   173    1
   136   135   134    1
   137   146   145    2
   138    27    29   am
   139   150   149    1
   140   150   153    1
   141   171   172    2
   142   173   174    1
   143   140   141    2
   144   140   142   am
   145   145   149   am
   146   145   144    1
   147   153   154    1
   148    29    30    1
   149   144   143    1
   150   144   147    1
   151   174   175   ar
   152   174   176   ar
   153   155   154    2
   154    30    31    1
   155    30    33    1
   156   154   156   am
   157    37    31   am
   158    37    38    1
   159    31    32    2
   160    36    34   am
   161   147   148    1
   162    38    39    1
   163    34    33    1
   164    34    35    2
   165    39    40    2
