@<TRIPOS>MOLECULE
tmp/4b9dB00.pdb
 156 147 0 0 0
SMALL
GASTEIGER

@<TRIPOS>ATOM
      1  N         37.3100    8.8310  -75.5780 N.3    26  ILE26      -0.1231
      2  CA        36.0140    8.7240  -74.9240 C.3    26  ILE26       0.1692
      3  C         35.2590   10.0460  -74.9720 C.2    26  ILE26       0.2592
      4  O         34.0740   10.1050  -74.6110 O.2    26  ILE26      -0.2718
      5  CB        36.1420    8.1810  -73.4830 C.3    26  ILE26       0.0266
      6  CG1       37.3270    8.8100  -72.7590 C.3    26  ILE26       0.0019
      7  CG2       36.3140    6.6660  -73.5070 C.3    26  ILE26       0.0020
      8  CD1       37.4300    8.3490  -71.3300 C.3    26  ILE26       0.0001
      9  N         35.9280   11.0930  -75.4660 N.am   27  GLY27      -0.1957
     10  CA        35.2630   12.3560  -75.8160 C.3    27  GLY27       0.1869
     11  C         36.2140   13.4550  -76.2600 C.2    27  GLY27       0.2309
     12  O         35.8610   14.6330  -76.1890 O.2    27  GLY27      -0.2863
     13  N         40.2670   16.6870  -76.4260 N.3    28  LYS28      -0.1231
     14  CA        39.6210   16.4750  -75.1310 C.3    28  LYS28       0.1693
     15  C         40.0480   15.0790  -74.6080 C.2    28  LYS28       0.2591
     16  O         41.2540   14.8570  -74.5240 O.2    28  LYS28      -0.2718
     17  CB        38.1040   16.6740  -75.2280 C.3    28  LYS28       0.0285
     18  CG        37.4220   17.1580  -73.9640 C.3    28  LYS28       0.0035
     19  CD        38.1520   18.2180  -73.1770 C.3    28  LYS28       0.0206
     20  CE        38.7750   19.3300  -73.9910 C.3    28  LYS28       0.1093
     21  NZ        40.2000   19.5500  -73.6180 N.3    28  LYS28      -0.1314
     22  N         39.1100   14.1410  -74.3350 N.am   29  ALA29      -0.1980
     23  CA        39.3770   13.0140  -73.3960 C.3    29  ALA29       0.1597
     24  C         39.7770   11.6390  -73.9630 C.2    29  ALA29       0.2287
     25  O         39.1150   11.0850  -74.8460 O.2    29  ALA29      -0.2864
     26  CB        38.1930   12.8390  -72.4760 C.3    29  ALA29       0.0319
     27  N         41.8880    8.5910  -67.1860 N.3    42  VAL42      -0.1245
     28  CA        41.4620    9.4360  -68.2420 C.3    42  VAL42       0.1561
     29  C         42.4150   10.6220  -68.3360 C.2    42  VAL42       0.2260
     30  O         42.7980   11.1970  -67.3210 O.2    42  VAL42      -0.2867
     31  CB        40.0310    9.9290  -67.9880 C.3    42  VAL42       0.0252
     32  CG1       39.6200   10.9070  -69.0840 C.3    42  VAL42       0.0019
     33  CG2       39.0730    8.7480  -67.9740 C.3    42  VAL42       0.0019
     34  N         42.8470   14.3240  -70.3370 N.3    44  LYS44      -0.1245
     35  CA        42.3440   15.3940  -71.1430 C.3    44  LYS44       0.1561
     36  C         43.5280   16.1780  -71.6920 C.2    44  LYS44       0.2260
     37  O         44.4250   16.5730  -70.9440 O.2    44  LYS44      -0.2867
     38  CB        41.3770   16.3000  -70.3510 C.3    44  LYS44       0.0271
     39  CG        39.9590   15.7300  -70.2770 C.3    44  LYS44       0.0035
     40  CD        38.8550   16.7720  -70.1640 C.3    44  LYS44       0.0206
     41  CE        37.4960   16.1130  -70.3510 C.3    44  LYS44       0.1093
     42  NZ        36.3110   16.8880  -69.8640 N.3    44  LYS44      -0.1314
     43  N         35.8060   14.2580  -59.6580 N.3    75  VAL75      -0.1245
     44  CA        36.7330   13.3030  -60.2570 C.3    75  VAL75       0.1561
     45  C         38.1580   13.6170  -59.7470 C.2    75  VAL75       0.2260
     46  O         38.5260   14.7720  -59.6390 O.2    75  VAL75      -0.2867
     47  CB        36.6730   13.3810  -61.8080 C.3    75  VAL75       0.0252
     48  CG1       37.6900   12.4090  -62.3930 C.3    75  VAL75       0.0019
     49  CG2       35.3230   12.9780  -62.3310 C.3    75  VAL75       0.0019
     50  N         43.4500   12.0630  -64.7700 N.3    91  MET91      -0.1230
     51  CA        42.5190   11.8050  -63.6760 C.3    91  MET91       0.1702
     52  C         42.0110   10.3720  -63.5560 C.2    91  MET91       0.2592
     53  O         42.1530    9.5680  -64.4710 O.2    91  MET91      -0.2718
     54  CB        41.3370   12.7120  -63.8560 C.3    91  MET91       0.0401
     55  CG        40.5080   12.4250  -65.0560 C.3    91  MET91       0.0596
     56  SD        39.4250   13.8050  -65.4250 S.3    91  MET91      -0.1393
     57  CE        40.5630   15.0590  -65.9730 C.3    91  MET91       0.0692
     58  N         41.3360   10.0960  -62.4430 N.am   92  ASP92      -0.1960
     59  CA        40.8190    8.7600  -62.2420 C.3    92  ASP92       0.1840
     60  C         39.7080    8.4130  -63.2230 C.2    92  ASP92       0.2622
     61  O         38.9350    9.2420  -63.6380 O.2    92  ASP92      -0.2715
     62  CB        40.4070    8.5540  -60.7830 C.3    92  ASP92       0.1450
     63  CG        41.6180    8.3650  -59.8760 C.2    92  ASP92       0.3671
     64  OD1       42.7730    8.3010  -60.3570 O.co2  92  ASP92      -0.2456
     65  OD2       41.4530    8.3320  -58.6540 O.co2  92  ASP92      -0.2456
     66  N         39.6890    7.1530  -63.6280 N.am   93  TYR93      -0.1960
     67  CA        38.6880    6.6360  -64.5180 C.3    93  TYR93       0.1771
     68  C         37.4630    6.1970  -63.6970 C.2    93  TYR93       0.2620
     69  O         37.5870    5.3300  -62.8370 O.2    93  TYR93      -0.2715
     70  CB        39.2640    5.4330  -65.3000 C.3    93  TYR93       0.0574
     71  CG        38.2620    4.7360  -66.2020 C.ar   93  TYR93      -0.0198
     72  CD1       37.5470    5.4480  -67.1610 C.ar   93  TYR93      -0.0009
     73  CD2       38.0190    3.3740  -66.0830 C.ar   93  TYR93      -0.0009
     74  CE1       36.6440    4.8190  -67.9870 C.ar   93  TYR93       0.0417
     75  CE2       37.1070    2.7310  -66.9060 C.ar   93  TYR93       0.0417
     76  CZ        36.4200    3.4610  -67.8540 C.ar   93  TYR93       0.1957
     77  OH        35.4950    2.8470  -68.6620 O.3    93  TYR93      -0.2866
     78  N         36.2950    6.7480  -64.0060 N.am   94  CYS94      -0.1954
     79  CA        35.0290    6.3240  -63.3750 C.3    94  CYS94       0.1843
     80  C         34.3700    5.1940  -64.1700 C.2    94  CYS94       0.2625
     81  O         33.8490    5.4060  -65.2480 O.2    94  CYS94      -0.2714
     82  CB        34.0840    7.4880  -63.2490 C.3    94  CYS94       0.0997
     83  SG        34.7370    8.7940  -62.2000 S.3    94  CYS94      -0.0797
     84  N         34.3960    3.9960  -63.6070 N.am   95  GLU95      -0.1977
     85  CA        34.0640    2.7650  -64.3630 C.3    95  GLU95       0.1602
     86  C         32.5860    2.6280  -64.7370 C.2    95  GLU95       0.2287
     87  O         32.2560    1.8850  -65.6340 O.2    95  GLU95      -0.2864
     88  CB        34.5480    1.5250  -63.6000 C.3    95  GLU95       0.0415
     89  CG        36.0630    1.3610  -63.6890 C.3    95  GLU95       0.1163
     90  CD        36.7010    0.7750  -62.4530 C.2    95  GLU95       0.3649
     91  OE1       36.7300    1.4550  -61.4000 O.co2  95  GLU95      -0.2457
     92  OE2       37.2190   -0.3350  -62.5180 O.co2  95  GLU95      -0.2457
     93  N         30.7630    4.9830  -66.0790 N.3    97  GLY97      -0.1210
     94  CA        30.3960    5.8630  -67.2090 C.3    97  GLY97       0.1956
     95  C         29.6850    7.1480  -66.8040 C.2    97  GLY97       0.2611
     96  O         29.6070    7.4860  -65.6140 O.2    97  GLY97      -0.2717
     97  N         29.1880    7.8850  -67.7900 N.am   98  ASP98      -0.1973
     98  CA        28.5490    9.1890  -67.5350 C.3    98  ASP98       0.1709
     99  C         27.0490    9.0610  -67.3530 C.2    98  ASP98       0.2293
    100  O         26.4430    8.0540  -67.7450 O.2    98  ASP98      -0.2864
    101  CB        28.8470   10.1870  -68.6510 C.3    98  ASP98       0.1436
    102  CG        28.4050    9.6860  -69.9750 C.2    98  ASP98       0.3671
    103  OD1       27.2260    9.7550  -70.3210 O.co2  98  ASP98      -0.2456
    104  OD2       29.2350    9.0950  -70.6560 O.co2  98  ASP98      -0.2456
    105  N         24.7110    8.6710  -70.5750 N.3   101  LYS101     -0.1245
    106  CA        24.5200    7.3060  -71.0030 C.3   101  LYS101      0.1561
    107  C         23.5730    6.5620  -70.0790 C.2   101  LYS101      0.2260
    108  O         22.7300    5.8190  -70.5170 O.2   101  LYS101     -0.2867
    109  CB        25.8520    6.5450  -71.0490 C.3   101  LYS101      0.0271
    110  CG        26.7080    6.8730  -72.2470 C.3   101  LYS101      0.0035
    111  CD        26.0550    6.3710  -73.5170 C.3   101  LYS101      0.0206
    112  CE        26.8240    6.8050  -74.7430 C.3   101  LYS101      0.1093
    113  NZ        26.8260    8.2840  -74.8680 N.3   101  LYS101     -0.1314
    114  N         26.7770   14.7200  -69.4340 N.3   143  GLN143     -0.1231
    115  CA        27.9710   14.1100  -70.0480 C.3   143  GLN143      0.1698
    116  C         29.2850   14.3360  -69.2460 C.2   143  GLN143      0.2592
    117  O         30.3310   13.7550  -69.5790 O.2   143  GLN143     -0.2718
    118  CB        28.1700   14.6330  -71.5110 C.3   143  GLN143      0.0381
    119  CG        28.5870   16.1100  -71.5740 C.3   143  GLN143      0.0905
    120  CD        28.3910   16.8490  -72.9190 C.2   143  GLN143      0.2608
    121  OE1       27.2830   16.8990  -73.4900 O.2   143  GLN143     -0.2717
    122  NE2       29.4640   17.4910  -73.3870 N.am  143  GLN143     -0.0878
    123  N         29.2470   15.2020  -68.2500 N.am  144  ASN144     -0.1974
    124  CA        30.4170   15.5050  -67.4360 C.3   144  ASN144      0.1688
    125  C         30.1570   15.1660  -65.9700 C.2   144  ASN144      0.2292
    126  O         30.8060   15.7350  -65.0700 O.2   144  ASN144     -0.2864
    127  CB        30.8270   16.9950  -67.5880 C.3   144  ASN144      0.1181
    128  CG        32.2350   17.2790  -67.0850 C.2   144  ASN144      0.2629
    129  OD1       33.1210   16.4100  -67.1490 O.2   144  ASN144     -0.2716
    130  ND2       32.4200   18.4530  -66.4510 N.am  144  ASN144     -0.0877
    131  N         29.8280   11.5180  -63.6710 N.3   146  PHE146     -0.1241
    132  CA        30.2260   10.1160  -63.8790 C.3   146  PHE146      0.1605
    133  C         29.8980    9.2880  -62.6210 C.2   146  PHE146      0.2264
    134  O         29.6560    9.8440  -61.5290 O.2   146  PHE146     -0.2867
    135  CB        31.7290   10.0590  -64.1530 C.3   146  PHE146      0.0534
    136  CG        32.1550   10.9530  -65.2730 C.ar  146  PHE146     -0.0203
    137  CD1       32.0110   10.5620  -66.5850 C.ar  146  PHE146     -0.0042
    138  CD2       32.5960   12.2380  -65.0100 C.ar  146  PHE146     -0.0042
    139  CE1       32.3510   11.4200  -67.6220 C.ar  146  PHE146     -0.0003
    140  CE2       32.9580   13.0970  -66.0410 C.ar  146  PHE146     -0.0003
    141  CZ        32.8470   12.6740  -67.3440 C.ar  146  PHE146     -0.0000
    142  N         32.7930   16.0630  -63.0610 N.3   156  GLY156     -0.1225
    143  CA        34.0320   16.2280  -63.7810 C.3   156  GLY156      0.1811
    144  C         34.6700   17.5410  -63.3810 C.2   156  GLY156      0.2280
    145  O         33.9900   18.5220  -63.0810 O.2   156  GLY156     -0.2866
    146  N         37.4650   19.0800  -64.7850 N.3   158  PHE158     -0.1241
    147  CA        37.7160   19.8120  -65.9930 C.3   158  PHE158      0.1605
    148  C         36.4700   20.6310  -66.3760 C.2   158  PHE158      0.2264
    149  O         35.3330   20.1270  -66.3600 O.2   158  PHE158     -0.2867
    150  CB        38.1420   18.8470  -67.0860 C.3   158  PHE158      0.0534
    151  CG        38.6580   19.5310  -68.2990 C.ar  158  PHE158     -0.0203
    152  CD1       39.9340   20.0220  -68.3110 C.ar  158  PHE158     -0.0042
    153  CD2       37.8400   19.7160  -69.4190 C.ar  158  PHE158     -0.0042
    154  CE1       40.4070   20.6840  -69.4290 C.ar  158  PHE158     -0.0003
    155  CE2       38.3110   20.3760  -70.5450 C.ar  158  PHE158     -0.0003
    156  CZ        39.6020   20.8650  -70.5510 C.ar  158  PHE158     -0.0000
@<TRIPOS>BOND
     1    13    14    1
     2    11    12    2
     3    11    10    1
     4    10     9    1
     5     1     2    1
     6     9     3   am
     7    17    14    1
     8    17    18    1
     9    14    15    1
    10     3     2    1
    11     3     4    2
    12     2     5    1
    13   113   112    1
    14    25    24    2
    15   112   111    1
    16    15    16    2
    17    15    22   am
    18    22    23    1
    19    20    21    1
    20    20    19    1
    21    18    19    1
    22    24    23    1
    23   111   110    1
    24     7     5    1
    25   121   120    2
    26     5     6    1
    27    23    26    1
    28   122   120   am
    29   120   119    1
    30     6     8    1
    31   110   109    1
    32    36    35    1
    33    36    37    2
    34   119   118    1
    35   118   115    1
    36    35    38    1
    37    35    34    1
    38   109   106    1
    39   106   105    1
    40   106   107    1
    41   104   102   ar
    42   156   155   ar
    43   156   154   ar
    44   155   153   ar
    45   108   107    2
    46    38    39    1
    47    41    40    1
    48    41    42    1
    49   103   102   ar
    50    39    40    1
    51   115   114    1
    52   115   116    1
    53   102   101    1
    54   117   116    2
    55   154   152   ar
    56   153   151   ar
    57   116   123   am
    58    32    31    1
    59    77    76    1
    60   101    98    1
    61    29    28    1
    62    29    30    2
    63   152   151   ar
    64   151   150    1
    65   123   124    1
    66    28    31    1
    67    28    27    1
    68    31    33    1
    69    74    76   ar
    70    74    72   ar
    71    76    75   ar
    72    97    98    1
    73    97    95   am
    74   100    99    2
    75   139   141   ar
    76   139   137   ar
    77   127   124    1
    78   127   128    1
    79    98    99    1
    80   124   125    1
    81   141   140   ar
    82    94    95    1
    83    94    93    1
    84    72    71   ar
    85   129   128    2
    86   150   147    1
    87   128   130   am
    88    75    73   ar
    89    95    96    2
    90   137   136   ar
    91   148   149    2
    92   148   147    1
    93    71    73   ar
    94    71    70    1
    95   140   138   ar
    96   147   146    1
    97    57    56    1
    98   125   126    2
    99    87    86    2
   100    56    55    1
   101    70    67    1
   102   136   138   ar
   103   136   135    1
   104    81    80    2
   105    55    54    1
   106    50    51    1
   107    86    85    1
   108    67    68    1
   109    67    66    1
   110    53    52    2
   111    85    84    1
   112    85    88    1
   113    80    84   am
   114    80    79    1
   115   135   132    1
   116    78    68   am
   117    78    79    1
   118   132   131    1
   119   132   133    1
   120    54    51    1
   121   143   144    1
   122   143   142    1
   123    68    69    2
   124    89    88    1
   125    89    90    1
   126    51    52    1
   127    61    60    2
   128    66    60   am
   129    52    58   am
   130   144   145    2
   131    79    82    1
   132    82    83    1
   133    60    59    1
   134   133   134    2
   135    92    90   ar
   136    90    91   ar
   137    58    59    1
   138    48    47    1
   139    49    47    1
   140    59    62    1
   141    47    44    1
   142    62    63    1
   143    64    63   ar
   144    44    45    1
   145    44    43    1
   146    63    65   ar
   147    45    46    2
