@<TRIPOS>MOLECULE
tmp/4b9kI00.pdb
 158 158 0 0 0
SMALL
GASTEIGER

@<TRIPOS>ATOM
      1  N         31.0750   72.3190   -6.5640 N.3     6  ASN6       -0.1240
      2  CA        31.5720   73.6840   -6.7090 C.3     6  ASN6        0.1653
      3  C         30.3960   74.6630   -6.6020 C.2     6  ASN6        0.2266
      4  O         29.9740   75.2580   -7.5910 O.2     6  ASN6       -0.2867
      5  CB        32.3710   73.8590   -8.0060 C.3     6  ASN6        0.1155
      6  CG        33.2060   75.1240   -8.0490 C.2     6  ASN6        0.2627
      7  OD1       33.3810   75.8520   -7.0530 O.2     6  ASN6       -0.2716
      8  ND2       33.7590   75.4070   -9.2190 N.am    6  ASN6       -0.0877
      9  N         35.0700   72.9340   13.5210 N.3    15  PHE15      -0.1241
     10  CA        35.6610   71.5960   13.5710 C.3    15  PHE15       0.1605
     11  C         35.9410   71.4260   15.0660 C.2    15  PHE15       0.2264
     12  O         36.7250   72.1860   15.6260 O.2    15  PHE15      -0.2867
     13  CB        36.9790   71.5330   12.7830 C.3    15  PHE15       0.0534
     14  CG        36.8840   71.4250   11.2730 C.ar   15  PHE15      -0.0203
     15  CD1       35.6540   71.2640   10.6430 C.ar   15  PHE15      -0.0042
     16  CD2       38.0260   71.4590   10.4880 C.ar   15  PHE15      -0.0042
     17  CE1       35.5680   71.1680    9.2560 C.ar   15  PHE15      -0.0003
     18  CE2       37.9400   71.3670    9.0980 C.ar   15  PHE15      -0.0003
     19  CZ        36.7100   71.2070    8.4910 C.ar   15  PHE15      -0.0000
     20  N         42.0010   66.9320    9.2520 N.3    24  PRO24      -0.2116
     21  CA        40.8290   67.1340    8.3850 C.3    24  PRO24       0.1372
     22  C         41.2650   66.9620    6.9310 C.2    24  PRO24       0.2244
     23  O         42.3730   67.3570    6.5420 O.2    24  PRO24      -0.2868
     24  CB        40.4300   68.6020    8.6570 C.3    24  PRO24       0.0268
     25  CG        41.3360   69.0750    9.7510 C.3    24  PRO24       0.0207
     26  CD        42.5540   68.2310    9.6830 C.3    24  PRO24       0.0892
     27  N         39.8200   67.4640    2.9700 N.3    26  TRP26      -0.1241
     28  CA        38.8130   68.0040    2.0700 C.3    26  TRP26       0.1605
     29  C         38.8750   67.2120    0.7610 C.2    26  TRP26       0.2264
     30  O         39.9650   66.9990    0.2310 O.2    26  TRP26      -0.2867
     31  CB        39.0750   69.5010    1.8050 C.3    26  TRP26       0.0550
     32  CG        38.1760   70.1000    0.7560 C.ar   26  TRP26       0.0003
     33  CD1       36.8140   70.0970    0.7560 C.ar   26  TRP26       0.0946
     34  CD2       38.5760   70.7500   -0.4650 C.ar   26  TRP26       0.0152
     35  NE1       36.3390   70.6950   -0.3820 N.ar   26  TRP26      -0.2442
     36  CE2       37.3970   71.1210   -1.1450 C.ar   26  TRP26       0.0810
     37  CE3       39.8170   71.0750   -1.0420 C.ar   26  TRP26       0.0012
     38  CZ2       37.4170   71.7800   -2.3780 C.ar   26  TRP26       0.0191
     39  CZ3       39.8340   71.7760   -2.2400 C.ar   26  TRP26       0.0001
     40  CH2       38.6480   72.0780   -2.9200 C.ar   26  TRP26       0.0015
     41  N         37.3500   68.9840   -6.1170 N.3    29  PHE29      -0.1241
     42  CA        36.4150   68.8170   -7.2280 C.3    29  PHE29       0.1605
     43  C         36.6610   67.6010   -8.1180 C.2    29  PHE29       0.2264
     44  O         35.7290   67.1360   -8.7680 O.2    29  PHE29      -0.2867
     45  CB        36.2320   70.1290   -8.0230 C.3    29  PHE29       0.0534
     46  CG        35.9250   71.3140   -7.1360 C.ar   29  PHE29      -0.0203
     47  CD1       34.9010   71.2540   -6.1950 C.ar   29  PHE29      -0.0042
     48  CD2       36.6660   72.4860   -7.2340 C.ar   29  PHE29      -0.0042
     49  CE1       34.6480   72.3360   -5.3470 C.ar   29  PHE29      -0.0003
     50  CE2       36.3930   73.5730   -6.4090 C.ar   29  PHE29      -0.0003
     51  CZ        35.3870   73.4900   -5.4690 C.ar   29  PHE29      -0.0000
     52  N         42.5780   66.3960    0.0570 N.3    34  GLN34      -0.1245
     53  CA        43.5120   67.4800    0.3560 C.3    34  GLN34       0.1566
     54  C         43.6480   67.5950    1.8850 C.2    34  GLN34       0.2260
     55  O         42.6560   67.8830    2.5420 O.2    34  GLN34      -0.2867
     56  CB        43.0670   68.8200   -0.2600 C.3    34  GLN34       0.0367
     57  CG        44.0090   69.9970    0.0860 C.3    34  GLN34       0.0905
     58  CD        43.6510   71.2930   -0.6250 C.2    34  GLN34       0.2608
     59  OE1       43.1870   71.3020   -1.7660 O.2    34  GLN34      -0.2717
     60  NE2       43.9140   72.4220    0.0050 N.am   34  GLN34      -0.0878
     61  N         44.3770   69.2510    5.4970 N.3    36  TYR36      -0.1228
     62  CA        44.2630   70.5940    6.0820 C.3    36  TYR36       0.1721
     63  C         45.0090   70.6420    7.4260 C.2    36  TYR36       0.2437
     64  O         45.3730   69.5690    7.9040 O.2    36  TYR36      -0.2733
     65  CB        42.7700   70.9790    6.2250 C.3    36  TYR36       0.0547
     66  CG        42.2980   71.7270    4.9980 C.ar   36  TYR36      -0.0200
     67  CD1       42.0700   71.0600    3.7950 C.ar   36  TYR36      -0.0009
     68  CD2       42.1970   73.1210    5.0010 C.ar   36  TYR36      -0.0009
     69  CE1       41.7080   71.7540    2.6380 C.ar   36  TYR36       0.0417
     70  CE2       41.8260   73.8220    3.8490 C.ar   36  TYR36       0.0417
     71  CZ        41.5730   73.1290    2.6720 C.ar   36  TYR36       0.1957
     72  OH        41.2340   73.7980    1.5190 O.3    36  TYR36      -0.2866
     73  N         45.3330   71.8240    8.0140 N.am   37  PRO37      -0.2729
     74  CA        46.0610   71.8210    9.2980 C.3    37  PRO37       0.1401
     75  C         45.4270   70.9290   10.3620 C.2    37  PRO37       0.2269
     76  O         44.2110   70.7940   10.4250 O.2    37  PRO37      -0.2865
     77  CB        46.0490   73.2940    9.7220 C.3    37  PRO37       0.0296
     78  CG        45.9530   74.0500    8.4270 C.3    37  PRO37       0.0237
     79  CD        45.0430   73.2100    7.5750 C.3    37  PRO37       0.0939
     80  N         44.3320   69.3530   14.1750 N.3    39  LEU39      -0.1245
     81  CA        43.6740   69.8600   15.3880 C.3    39  LEU39       0.1561
     82  C         44.1720   69.0680   16.5860 C.2    39  LEU39       0.2260
     83  O         43.8800   67.8740   16.6510 O.2    39  LEU39      -0.2867
     84  CB        42.1460   69.6870   15.3190 C.3    39  LEU39       0.0270
     85  CG        41.3640   70.6680   14.4740 C.3    39  LEU39       0.0019
     86  CD1       40.8950   70.0040   13.2340 C.3    39  LEU39       0.0001
     87  CD2       40.1400   71.1640   15.2380 C.3    39  LEU39       0.0001
     88  N         38.0350   74.7900   16.0840 N.3    45  ARG45      -0.1245
     89  CA        38.4130   75.9080   15.2350 C.3    45  ARG45       0.1563
     90  C         37.2580   76.2950   14.3570 C.2    45  ARG45       0.2260
     91  O         36.6020   75.4200   13.7880 O.2    45  ARG45      -0.2867
     92  CB        39.6260   75.5040   14.3420 C.3    45  ARG45       0.0307
     93  CG        40.8620   76.3820   14.5440 C.3    45  ARG45       0.0489
     94  CD        42.0670   75.6450   15.0990 C.3    45  ARG45       0.2205
     95  NE        42.8150   74.9680   14.0420 N.pl3  45  ARG45      -0.0865
     96  CZ        43.9950   74.3800   14.2090 C.cat  45  ARG45       0.5346
     97  NH1       44.6000   74.4160   15.3870 N.pl3  45  ARG45       0.1354
     98  NH2       44.5880   73.7680   13.1910 N.pl3  45  ARG45       0.1354
     99  N         36.1210   77.5790   10.9160 N.3    47  ILE47      -0.1231
    100  CA        36.7020   77.5750    9.5730 C.3    47  ILE47       0.1692
    101  C         35.7220   77.9810    8.4650 C.2    47  ILE47       0.2592
    102  O         34.5140   77.8710    8.6430 O.2    47  ILE47      -0.2718
    103  CB        37.4670   76.2250    9.2910 C.3    47  ILE47       0.0266
    104  CG1       36.5270   75.0010    9.1130 C.3    47  ILE47       0.0019
    105  CG2       38.5460   75.9260   10.3660 C.3    47  ILE47       0.0020
    106  CD1       36.0320   74.7560    7.6810 C.3    47  ILE47       0.0001
    107  N         36.2660   78.4500    7.3210 N.am   48  HIS48      -0.1962
    108  CA        35.5130   78.8520    6.1480 C.3    48  HIS48       0.1787
    109  C         35.5370   77.7050    5.1320 C.2    48  HIS48       0.2621
    110  O         36.6110   77.3070    4.6650 O.2    48  HIS48      -0.2715
    111  CB        36.1330   80.1140    5.5200 C.3    48  HIS48       0.0785
    112  CG        35.9910   81.3550    6.3470 C.ar   48  HIS48       0.0821
    113  ND1       36.7160   81.5370    7.5040 N.ar   48  HIS48      -0.2267
    114  CD2       35.2840   82.4770    6.1000 C.ar   48  HIS48       0.1154
    115  CE1       36.3920   82.7330    7.9550 C.ar   48  HIS48       0.1986
    116  NE2       35.5230   83.3360    7.1490 N.ar   48  HIS48      -0.2212
    117  N         34.3560   77.1570    4.8150 N.am   49  SER49      -0.1936
    118  CA        34.1690   76.1160    3.8020 C.3    49  SER49       0.2055
    119  C         32.9840   76.5400    2.9510 C.2    49  SER49       0.2643
    120  O         32.5930   77.7140    2.9880 O.2    49  SER49      -0.2714
    121  CB        34.0010   74.7290    4.4240 C.3    49  SER49       0.2130
    122  OG        33.9230   73.7110    3.4310 O.3    49  SER49      -0.2179
    123  N         32.4250   75.6370    2.1780 N.am   50  TYR50      -0.1973
    124  CA        31.3490   75.9510    1.2290 C.3    50  TYR50       0.1639
    125  C         30.2710   74.9090    1.2690 C.2    50  TYR50       0.2290
    126  O         30.5760   73.7590    1.5710 O.2    50  TYR50      -0.2864
    127  CB        31.9350   76.0970   -0.2080 C.3    50  TYR50       0.0560
    128  CG        32.9020   77.2610   -0.3250 C.ar   50  TYR50      -0.0198
    129  CD1       34.2290   77.1380    0.0840 C.ar   50  TYR50      -0.0009
    130  CD2       32.4690   78.5100   -0.7590 C.ar   50  TYR50      -0.0009
    131  CE1       35.0790   78.2420    0.1330 C.ar   50  TYR50       0.0417
    132  CE2       33.3150   79.6210   -0.7360 C.ar   50  TYR50       0.0417
    133  CZ        34.6240   79.4790   -0.3030 C.ar   50  TYR50       0.1957
    134  OH        35.4680   80.5620   -0.3090 O.3    50  TYR50      -0.2866
    135  N         30.5500   71.0380    0.0680 N.3    53  HIS53      -0.1241
    136  CA        31.9450   70.5450    0.1220 C.3    53  HIS53       0.1621
    137  C         32.0320   69.2890    0.9770 C.2    53  HIS53       0.2264
    138  O         31.2150   69.1320    1.8690 O.2    53  HIS53      -0.2867
    139  CB        32.9360   71.6450    0.5450 C.3    53  HIS53       0.0745
    140  CG        33.2230   72.6160   -0.5680 C.ar   53  HIS53       0.0817
    141  ND1       34.4020   73.3320   -0.6150 N.ar   53  HIS53      -0.2268
    142  CD2       32.4820   72.9270   -1.6600 C.ar   53  HIS53       0.1154
    143  CE1       34.3370   74.0580   -1.7230 C.ar   53  HIS53       0.1986
    144  NE2       33.2030   73.8380   -2.3850 N.ar   53  HIS53      -0.2212
    145  N         34.1180   66.5030    3.4730 N.3    55  TRP55      -0.1241
    146  CA        35.2260   66.3350    4.4090 C.3    55  TRP55       0.1605
    147  C         35.2060   64.9840    5.0860 C.2    55  TRP55       0.2264
    148  O         34.1450   64.4090    5.3110 O.2    55  TRP55      -0.2867
    149  CB        35.1610   67.3910    5.5220 C.3    55  TRP55       0.0550
    150  CG        35.3280   68.8110    5.0690 C.ar   55  TRP55       0.0003
    151  CD1       34.3480   69.6570    4.6490 C.ar   55  TRP55       0.0946
    152  CD2       36.5330   69.5850    5.1270 C.ar   55  TRP55       0.0152
    153  NE1       34.8690   70.9110    4.4230 N.ar   55  TRP55      -0.2442
    154  CE2       36.2080   70.8980    4.7210 C.ar   55  TRP55       0.0810
    155  CE3       37.8480   69.3120    5.5470 C.ar   55  TRP55       0.0012
    156  CZ2       37.1580   71.9290    4.6800 C.ar   55  TRP55       0.0191
    157  CZ3       38.7900   70.3380    5.5050 C.ar   55  TRP55       0.0001
    158  CH2       38.4410   71.6270    5.0730 C.ar   55  TRP55       0.0015
@<TRIPOS>BOND
     1     8     6   am
     2    44    43    2
     3    43    42    1
     4     6     5    1
     5     6     7    2
     6    45    42    1
     7    45    46    1
     8     5     2    1
     9     4     3    2
    10    48    46   ar
    11    48    50   ar
    12    42    41    1
    13    46    47   ar
    14     2     3    1
    15     2     1    1
    16    50    51   ar
    17    47    49   ar
    18    51    49   ar
    19    40    38   ar
    20    40    39   ar
    21   144   143   ar
    22   144   142   ar
    23    38    36   ar
    24    39    37   ar
    25    59    58    2
    26   143   141   ar
    27   142   140   ar
    28    36    34   ar
    29    36    35   ar
    30    37    34   ar
    31   130   132   ar
    32   130   128   ar
    33   132   133   ar
    34    58    60   am
    35    58    57    1
    36   141   140   ar
    37   140   139    1
    38    34    32   ar
    39    35    33   ar
    40   128   127    1
    41   128   129   ar
    42   134   133    1
    43   133   131   ar
    44    56    57    1
    45    56    53    1
    46   127   124    1
    47    52    53    1
    48   135   136    1
    49   129   131   ar
    50   136   139    1
    51   136   137    1
    52    30    29    2
    53    53    54    1
    54    33    32   ar
    55    32    31    1
    56    29    28    1
    57   137   138    2
    58   124   125    1
    59   124   123    1
    60   125   126    2
    61    72    71    1
    62    31    28    1
    63    54    55    2
    64    28    27    1
    65   123   119   am
    66    69    71   ar
    67    69    67   ar
    68    71    70   ar
    69   119   120    2
    70   119   118    1
    71   122   121    1
    72   145   146    1
    73    67    66   ar
    74   118   121    1
    75   118   117    1
    76    70    68   ar
    77   146   147    1
    78   146   149    1
    79   153   151   ar
    80   153   154   ar
    81   151   150   ar
    82   110   109    2
    83   156   154   ar
    84   156   158   ar
    85   154   152   ar
    86   117   109   am
    87    66    68   ar
    88    66    65    1
    89   150   152   ar
    90   150   149    1
    91   158   157   ar
    92   147   148    2
    93   152   155   ar
    94   109   108    1
    95    61    62    1
    96   157   155   ar
    97   111   108    1
    98   111   112    1
    99    62    65    1
   100    62    63    1
   101   114   112   ar
   102   114   116   ar
   103   108   107    1
   104   112   113   ar
   105    23    22    2
   106    22    21    1
   107   116   115   ar
   108   107   101   am
   109    63    64    2
   110    63    73   am
   111   113   115   ar
   112    79    73    1
   113    79    78    1
   114   106   104    1
   115    73    74    1
   116    21    24    1
   117    21    20    1
   118    78    77    1
   119   101   102    2
   120   101   100    1
   121    19    18   ar
   122    19    17   ar
   123    24    25    1
   124    18    16   ar
   125   104   103    1
   126    20    26    1
   127    17    15   ar
   128   103   100    1
   129   103   105    1
   130    74    77    1
   131    74    75    1
   132   100    99    1
   133    26    25    1
   134    75    76    2
   135    16    14   ar
   136    15    14   ar
   137    14    13    1
   138    13    10    1
   139    98    96    1
   140    86    85    1
   141     9    10    1
   142    10    11    1
   143    91    90    2
   144    95    96    2
   145    95    94    1
   146    80    81    1
   147    96    97    1
   148    92    93    1
   149    92    89    1
   150    90    89    1
   151    85    87    1
   152    85    84    1
   153    93    94    1
   154    11    12    2
   155    89    88    1
   156    84    81    1
   157    81    82    1
   158    82    83    2
