@<TRIPOS>MOLECULE
tmp/4b9wA00.pdb
 204 201 0 0 0
SMALL
GASTEIGER

@<TRIPOS>ATOM
      1  N         20.3050   19.8130   37.4520 N.3    19  CYS19      -0.1221
      2  CA        21.6070   20.4440   37.1660 C.3    19  CYS19       0.1808
      3  C         22.1410   21.3290   38.3190 C.2    19  CYS19       0.2601
      4  O         23.3290   21.6850   38.3750 O.2    19  CYS19      -0.2717
      5  CB        21.5320   21.2370   35.8590 C.3    19  CYS19       0.0970
      6  SG        20.1880   22.4470   35.7760 S.3    19  CYS19      -0.0800
      7  N         21.2740   21.7210   39.2320 N.am   20  MET20      -0.1965
      8  CA        21.7660   22.4330   40.4030 C.3    20  MET20       0.1736
      9  C         20.8100   22.1760   41.5610 C.2    20  MET20       0.2616
     10  O         19.6250   21.9020   41.3550 O.2    20  MET20      -0.2715
     11  CB        21.9620   23.9300   40.0890 C.3    20  MET20       0.0427
     12  CG        22.5560   24.7740   41.2250 C.3    20  MET20       0.0599
     13  SD        24.2690   24.4110   41.6450 S.3    20  MET20      -0.1393
     14  CE        24.3130   25.0420   43.3430 C.3    20  MET20       0.0692
     15  N         21.3560   22.1890   42.7730 N.am   21  MET21      -0.1963
     16  CA        20.6290   21.7720   43.9530 C.3    21  MET21       0.1736
     17  C         20.9720   22.6660   45.1300 C.2    21  MET21       0.2616
     18  O         22.1430   22.9180   45.4110 O.2    21  MET21      -0.2715
     19  CB        21.0160   20.3410   44.2740 C.3    21  MET21       0.0427
     20  CG        20.6110   19.8620   45.6520 C.3    21  MET21       0.0599
     21  SD        18.9280   19.2470   45.7300 S.3    21  MET21      -0.1393
     22  CE        19.2940   17.7400   46.6170 C.3    21  MET21       0.0692
     23  N         19.9350   23.1380   45.8100 N.am   22  TYR22      -0.1960
     24  CA        20.0760   23.8900   47.0380 C.3    22  TYR22       0.1771
     25  C         19.2680   23.2670   48.1500 C.2    22  TYR22       0.2620
     26  O         19.7260   23.2520   49.2880 O.2    22  TYR22      -0.2715
     27  CB        19.6320   25.3370   46.8430 C.3    22  TYR22       0.0574
     28  CG        20.4460   26.1180   45.8700 C.ar   22  TYR22      -0.0198
     29  CD1       21.6110   26.7570   46.2680 C.ar   22  TYR22      -0.0009
     30  CD2       20.0590   26.2250   44.5360 C.ar   22  TYR22      -0.0009
     31  CE1       22.3590   27.4970   45.3700 C.ar   22  TYR22       0.0417
     32  CE2       20.8070   26.9520   43.6360 C.ar   22  TYR22       0.0417
     33  CZ        21.9500   27.5900   44.0570 C.ar   22  TYR22       0.1957
     34  OH        22.6830   28.3070   43.1500 O.3    22  TYR22      -0.2866
     35  N         18.0630   22.7760   47.8220 N.am   23  SER23      -0.1950
     36  CA        17.1460   22.1200   48.7830 C.3    23  SER23       0.1924
     37  C         16.0170   21.3990   48.0590 C.2    23  SER23       0.2314
     38  O         15.9210   21.4730   46.8450 O.2    23  SER23      -0.2863
     39  CB        16.5190   23.1350   49.7760 C.3    23  SER23       0.2116
     40  OG        15.5510   23.9730   49.1730 O.3    23  SER23      -0.2180
     41  N         14.1450   24.1860   46.3110 N.3    26  GLU26      -0.1245
     42  CA        14.9260   24.9720   45.3910 C.3    26  GLU26       0.1567
     43  C         15.9940   24.1360   44.6890 C.2    26  GLU26       0.2260
     44  O         17.1250   23.9890   45.1730 O.2    26  GLU26      -0.2867
     45  CB        15.5720   26.1060   46.1670 C.3    26  GLU26       0.0388
     46  CG        16.3670   27.0770   45.3250 C.3    26  GLU26       0.1160
     47  CD        17.0770   28.1170   46.1850 C.2    26  GLU26       0.3649
     48  OE1       17.3080   27.8860   47.4060 O.co2  26  GLU26      -0.2457
     49  OE2       17.4290   29.1590   45.6340 O.co2  26  GLU26      -0.2457
     50  N         17.3150   22.9840   40.4280 N.3    28  TYR28      -0.1241
     51  CA        17.2360   23.3560   39.0410 C.3    28  TYR28       0.1605
     52  C         17.3480   22.1270   38.1650 C.2    28  TYR28       0.2264
     53  O         18.1540   21.2400   38.4400 O.2    28  TYR28      -0.2867
     54  CB        18.3400   24.3730   38.7350 C.3    28  TYR28       0.0534
     55  CG        18.0420   25.7010   39.3610 C.ar   28  TYR28      -0.0201
     56  CD1       18.2960   25.9300   40.7070 C.ar   28  TYR28      -0.0009
     57  CD2       17.4510   26.7100   38.6290 C.ar   28  TYR28      -0.0009
     58  CE1       17.9880   27.1410   41.2950 C.ar   28  TYR28       0.0417
     59  CE2       17.1490   27.9300   39.2120 C.ar   28  TYR28       0.0417
     60  CZ        17.4150   28.1350   40.5320 C.ar   28  TYR28       0.1957
     61  OH        17.1150   29.3350   41.1020 O.3    28  TYR28      -0.2866
     62  N         32.7030   30.8900   33.7150 N.3    71  PHE71      -0.1241
     63  CA        32.4930   30.0530   34.9080 C.3    71  PHE71       0.1605
     64  C         33.7870   29.3020   35.2530 C.2    71  PHE71       0.2264
     65  O         34.2220   28.3900   34.5270 O.2    71  PHE71      -0.2867
     66  CB        31.3170   29.0750   34.6860 C.3    71  PHE71       0.0534
     67  CG        31.0960   28.1160   35.8240 C.ar   71  PHE71      -0.0203
     68  CD1       30.9460   28.5840   37.1270 C.ar   71  PHE71      -0.0042
     69  CD2       31.0650   26.7390   35.6080 C.ar   71  PHE71      -0.0042
     70  CE1       30.7540   27.7120   38.1840 C.ar   71  PHE71      -0.0003
     71  CE2       30.8800   25.8640   36.6650 C.ar   71  PHE71      -0.0003
     72  CZ        30.7280   26.3490   37.9580 C.ar   71  PHE71      -0.0000
     73  N         34.5320   27.2320   37.5670 N.3    73  GLY73      -0.1210
     74  CA        34.2990   25.8040   37.7800 C.3    73  GLY73       0.1956
     75  C         34.7530   24.8890   36.6410 C.2    73  GLY73       0.2611
     76  O         35.3510   23.8510   36.9050 O.2    73  GLY73      -0.2717
     77  N         34.4780   25.2460   35.3840 N.am   74  ASP74      -0.1973
     78  CA        34.9980   24.4550   34.2520 C.3    74  ASP74       0.1709
     79  C         35.7640   25.2620   33.1900 C.2    74  ASP74       0.2293
     80  O         36.2100   24.6990   32.2040 O.2    74  ASP74      -0.2864
     81  CB        33.8590   23.6880   33.5750 C.3    74  ASP74       0.1436
     82  CG        32.8770   24.6050   32.8460 C.2    74  ASP74       0.3671
     83  OD1       33.0080   25.8440   32.9590 O.co2  74  ASP74      -0.2456
     84  OD2       31.9700   24.0810   32.1620 O.co2  74  ASP74      -0.2456
     85  N         29.3180   30.9570   29.6750 N.3    78  TYR78      -0.1241
     86  CA        27.9160   30.5870   29.5680 C.3    78  TYR78       0.1605
     87  C         27.0290   31.8230   29.6120 C.2    78  TYR78       0.2264
     88  O         27.4830   32.9160   29.9350 O.2    78  TYR78      -0.2867
     89  CB        27.5340   29.6400   30.7050 C.3    78  TYR78       0.0534
     90  CG        28.2920   28.3320   30.6810 C.ar   78  TYR78      -0.0201
     91  CD1       27.8580   27.2830   29.8950 C.ar   78  TYR78      -0.0009
     92  CD2       29.4570   28.1620   31.4390 C.ar   78  TYR78      -0.0009
     93  CE1       28.5440   26.0880   29.8490 C.ar   78  TYR78       0.0417
     94  CE2       30.1550   26.9590   31.4130 C.ar   78  TYR78       0.0417
     95  CZ        29.6840   25.9240   30.6200 C.ar   78  TYR78       0.1957
     96  OH        30.3530   24.7240   30.5660 O.3    78  TYR78      -0.2866
     97  N         23.8330   32.0520   36.3140 N.3    95  PHE95      -0.1241
     98  CA        23.9810   31.2520   35.0950 C.3    95  PHE95       0.1605
     99  C         22.6330   30.6290   34.6970 C.2    95  PHE95       0.2264
    100  O         22.1740   29.6850   35.3240 O.2    95  PHE95      -0.2867
    101  CB        25.0960   30.1970   35.2990 C.3    95  PHE95       0.0534
    102  CG        26.4700   30.7970   35.3020 C.ar   95  PHE95      -0.0203
    103  CD1       27.0600   31.1770   34.1100 C.ar   95  PHE95      -0.0042
    104  CD2       27.1670   31.0060   36.4860 C.ar   95  PHE95      -0.0042
    105  CE1       28.3210   31.7620   34.0880 C.ar   95  PHE95      -0.0003
    106  CE2       28.4220   31.5860   36.4770 C.ar   95  PHE95      -0.0003
    107  CZ        29.0040   31.9610   35.2740 C.ar   95  PHE95      -0.0000
    108  N         21.6840   26.8040   34.0660 N.3    98  TYR98      -0.1241
    109  CA        22.1000   25.8160   35.1060 C.3    98  TYR98       0.1605
    110  C         21.5600   26.1300   36.5120 C.2    98  TYR98       0.2264
    111  O         21.2220   25.2170   37.2470 O.2    98  TYR98      -0.2867
    112  CB        23.6470   25.6520   35.1340 C.3    98  TYR98       0.0534
    113  CG        24.2040   25.2390   33.7690 C.ar   98  TYR98      -0.0201
    114  CD1       24.5210   26.2040   32.8170 C.ar   98  TYR98      -0.0009
    115  CD2       24.3680   23.8970   33.4260 C.ar   98  TYR98      -0.0009
    116  CE1       24.9790   25.8540   31.5610 C.ar   98  TYR98       0.0417
    117  CE2       24.8560   23.5290   32.1880 C.ar   98  TYR98       0.0417
    118  CZ        25.1430   24.5240   31.2420 C.ar   98  TYR98       0.1957
    119  OH        25.6030   24.2010   29.9770 O.3    98  TYR98      -0.2866
    120  N         23.1120   28.1270   39.0080 N.3   100  ASN100     -0.1225
    121  CA        24.1160   28.6200   39.9630 C.3   100  ASN100      0.1785
    122  C         24.4050   30.1040   39.7910 C.2   100  ASN100      0.2597
    123  O         24.2210   30.6910   38.6960 O.2   100  ASN100     -0.2718
    124  CB        25.4220   27.8270   39.9010 C.3   100  ASN100      0.1169
    125  CG        26.0570   27.8380   38.5270 C.2   100  ASN100      0.2627
    126  OD1       25.4090   27.5140   37.5620 O.2   100  ASN100     -0.2716
    127  ND2       27.3350   28.2040   38.4450 N.am  100  ASN100     -0.0877
    128  N         24.8250   30.7060   40.8920 N.am  101  VAL101     -0.1966
    129  CA        25.2050   32.1110   40.9430 C.3   101  VAL101      0.1727
    130  C         26.6730   32.1730   41.3350 C.2   101  VAL101      0.2616
    131  O         27.0570   31.5510   42.3100 O.2   101  VAL101     -0.2715
    132  CB        24.3570   32.8830   41.9880 C.3   101  VAL101      0.0290
    133  CG1       24.9430   34.2760   42.2700 C.3   101  VAL101      0.0023
    134  CG2       22.9070   32.9790   41.5260 C.3   101  VAL101      0.0023
    135  N         27.4860   32.9160   40.5900 N.am  102  GLU102     -0.1977
    136  CA        28.9070   33.1040   40.9250 C.3   102  GLU102      0.1602
    137  C         29.3160   34.6020   40.9290 C.2   102  GLU102      0.2287
    138  O         28.8010   35.4020   40.1570 O.2   102  GLU102     -0.2864
    139  CB        29.8090   32.3590   39.9210 C.3   102  GLU102      0.0415
    140  CG        29.4980   30.8790   39.6840 C.3   102  GLU102      0.1163
    141  CD        29.6000   30.0170   40.9330 C.2   102  GLU102      0.3649
    142  OE1       30.4730   30.3190   41.7780 O.co2 102  GLU102     -0.2457
    143  OE2       28.8170   29.0250   41.0550 O.co2 102  GLU102     -0.2457
    144  N         13.2860   25.5350   58.0840 N.3   137  HIS137     -0.1226
    145  CA        14.4370   25.5510   57.2020 C.3   137  HIS137      0.1752
    146  C         14.7040   24.1550   56.7880 C.2   137  HIS137      0.2596
    147  O         14.5920   23.2410   57.5900 O.2   137  HIS137     -0.2718
    148  CB        15.6650   26.1080   57.9320 C.3   137  HIS137      0.0759
    149  CG        15.5340   27.5590   58.3490 C.ar  137  HIS137      0.0818
    150  ND1       15.5770   28.5770   57.4630 N.ar  137  HIS137     -0.2268
    151  CD2       15.3630   28.1390   59.6090 C.ar  137  HIS137      0.1154
    152  CE1       15.4420   29.7500   58.1180 C.ar  137  HIS137      0.1986
    153  NE2       15.3110   29.4830   59.4310 N.ar  137  HIS137     -0.2212
    154  N         15.0500   23.9880   55.5180 N.am  138  TRP138     -0.1962
    155  CA        15.5110   22.7010   55.0080 C.3   138  TRP138      0.1771
    156  C         16.8150   22.2990   55.6560 C.2   138  TRP138      0.2620
    157  O         17.8000   23.0370   55.5770 O.2   138  TRP138     -0.2715
    158  CB        15.7020   22.7830   53.4970 C.3   138  TRP138      0.0590
    159  CG        14.4490   23.1410   52.7550 C.ar  138  TRP138      0.0006
    160  CD1       14.1650   24.3350   52.0990 C.ar  138  TRP138      0.0946
    161  CD2       13.2510   22.3070   52.5640 C.ar  138  TRP138      0.0152
    162  NE1       12.9210   24.2920   51.5240 N.ar  138  TRP138     -0.2442
    163  CE2       12.3240   23.1030   51.7590 C.ar  138  TRP138      0.0810
    164  CE3       12.8750   21.0310   52.9550 C.ar  138  TRP138      0.0012
    165  CZ2       11.0760   22.6180   51.3830 C.ar  138  TRP138      0.0191
    166  CZ3       11.6260   20.5600   52.5670 C.ar  138  TRP138      0.0001
    167  CH2       10.7480   21.3370   51.8010 C.ar  138  TRP138      0.0015
    168  N         16.8440   21.1420   56.3080 N.am  139  THR139     -0.1937
    169  CA        18.0770   20.6460   56.9300 C.3   139  THR139      0.2028
    170  C         19.0630   20.1450   55.8660 C.2   139  THR139      0.2642
    171  O         18.6370   19.7770   54.7710 O.2   139  THR139     -0.2714
    172  CB        17.7820   19.4970   57.9100 C.3   139  THR139      0.1808
    173  OG1       17.1240   18.4270   57.2130 O.3   139  THR139     -0.2208
    174  CG2       16.9090   19.9870   59.0780 C.3   139  THR139      0.0379
    175  N         20.3670   20.1690   56.1850 N.am  140  LYS140     -0.1977
    176  CA        21.4110   19.5240   55.3690 C.3   140  LYS140      0.1596
    177  C         21.0790   18.0590   55.0980 C.2   140  LYS140      0.2287
    178  O         21.2590   17.5610   53.9880 O.2   140  LYS140     -0.2864
    179  CB        22.7640   19.5420   56.0870 C.3   140  LYS140      0.0298
    180  CG        23.4810   20.8650   56.1350 C.3   140  LYS140      0.0038
    181  CD        24.8740   20.7040   56.7460 C.3   140  LYS140      0.0206
    182  CE        24.8430   20.5070   58.2540 C.3   140  LYS140      0.1093
    183  NZ        26.2040   20.5820   58.8450 N.3   140  LYS140     -0.1314
    184  N         18.3410   17.7620   52.6060 N.3   143  THR143     -0.1203
    185  CA        18.8940   18.1240   51.2960 C.3   143  THR143      0.1994
    186  C         19.8450   17.0460   50.7470 C.2   143  THR143      0.2617
    187  O         19.7560   16.6770   49.5710 O.2   143  THR143     -0.2717
    188  CB        19.5230   19.5350   51.3390 C.3   143  THR143      0.1784
    189  OG1       18.4980   20.4890   51.6720 O.3   143  THR143     -0.2211
    190  CG2       20.1280   19.8990   49.9970 C.3   143  THR143      0.0376
    191  N         20.7200   16.5090   51.5870 N.am  144  ALA144     -0.1979
    192  CA        21.6380   15.4530   51.1480 C.3   144  ALA144      0.1597
    193  C         20.9060   14.1360   50.8080 C.2   144  ALA144      0.2287
    194  O         21.3080   13.3880   49.8840 O.2   144  ALA144     -0.2864
    195  CB        22.7350   15.2330   52.1820 C.3   144  ALA144      0.0319
    196  N         19.4560   14.7950   47.3380 N.3   147  GLN147     -0.1245
    197  CA        20.5630   14.7330   46.3760 C.3   147  GLN147      0.1566
    198  C         20.9300   13.2750   46.0240 C.2   147  GLN147      0.2260
    199  O         21.1080   12.9320   44.8500 O.2   147  GLN147     -0.2867
    200  CB        21.7690   15.4980   46.9570 C.3   147  GLN147      0.0367
    201  CG        23.1040   15.2900   46.2860 C.3   147  GLN147      0.0905
    202  CD        23.1210   15.8000   44.8770 C.2   147  GLN147      0.2608
    203  OE1       22.3580   16.7080   44.5220 O.2   147  GLN147     -0.2717
    204  NE2       24.0080   15.2490   44.0610 N.am  147  GLN147     -0.0878
@<TRIPOS>BOND
     1    86    87    1
     2    86    85    1
     3    86    89    1
     4    87    88    2
     5    93    91   ar
     6    93    95   ar
     7    91    90   ar
     8   119   118    1
     9    96    95    1
    10    95    94   ar
    11    90    89    1
    12    90    92   ar
    13   118   116   ar
    14   118   117   ar
    15    94    92   ar
    16   116   114   ar
    17    84    82   ar
    18   117   115   ar
    19    80    79    2
    20   114   113   ar
    21    82    83   ar
    22    82    81    1
    23    79    78    1
    24   115   113   ar
    25    81    78    1
    26    62    63    1
    27   113   112    1
    28   108   109    1
    29   105   103   ar
    30   105   107   ar
    31   103   102   ar
    32    78    77    1
    33    65    64    2
    34    66    63    1
    35    66    67    1
    36    99    98    1
    37    99   100    2
    38    63    64    1
    39    98   101    1
    40    98    97    1
    41   109   112    1
    42   109   110    1
    43   107   106   ar
    44   101   102    1
    45   102   104   ar
    46    77    75   am
    47    69    67   ar
    48    69    71   ar
    49     6     5    1
    50    67    68   ar
    51     5     2    1
    52   106   104   ar
    53   110   111    2
    54    75    76    2
    55    75    74    1
    56    71    72   ar
    57    68    70   ar
    58     2     1    1
    59     2     3    1
    60   126   125    2
    61    73    74    1
    62    72    70   ar
    63    52    53    2
    64    52    51    1
    65     3     4    2
    66     3     7   am
    67   127   125   am
    68   125   124    1
    69    57    59   ar
    70    57    55   ar
    71   123   122    2
    72    54    51    1
    73    54    55    1
    74   120   121    1
    75    51    50    1
    76    59    60   ar
    77     7     8    1
    78    55    56   ar
    79   140   139    1
    80   140   141    1
    81   122   121    1
    82   122   128   am
    83   124   121    1
    84   139   136    1
    85    11     8    1
    86    11    12    1
    87   138   137    2
    88     8     9    1
    89    60    61    1
    90    60    58   ar
    91   135   136    1
    92   135   130   am
    93    56    58   ar
    94   128   129    1
    95   136   137    1
    96   141   143   ar
    97   141   142   ar
    98   129   130    1
    99   129   132    1
   100    12    13    1
   101   130   131    2
   102    10     9    2
   103   134   132    1
   104     9    15   am
   105    13    14    1
   106   132   133    1
   107    15    16    1
   108    34    33    1
   109    32    33   ar
   110    32    30   ar
   111    16    19    1
   112    16    17    1
   113    33    31   ar
   114   204   202   am
   115    19    20    1
   116   203   202    2
   117    30    28   ar
   118    43    44    2
   119    43    42    1
   120   199   198    2
   121   202   201    1
   122    17    18    2
   123    17    23   am
   124    46    45    1
   125    46    47    1
   126    31    29   ar
   127    42    45    1
   128    42    41    1
   129    49    47   ar
   130    20    21    1
   131    21    22    1
   132    23    24    1
   133    28    29   ar
   134    28    27    1
   135   198   197    1
   136    47    48   ar
   137   201   200    1
   138   197   200    1
   139   197   196    1
   140    27    24    1
   141    38    37    2
   142    24    25    1
   143    35    25   am
   144    35    36    1
   145    37    36    1
   146    25    26    2
   147    36    39    1
   148    40    39    1
   149   187   186    2
   150   194   193    2
   151   190   188    1
   152   186   185    1
   153   186   191   am
   154   193   192    1
   155   192   191    1
   156   192   195    1
   157   185   188    1
   158   185   184    1
   159   188   189    1
   160   165   163   ar
   161   165   167   ar
   162   162   163   ar
   163   162   160   ar
   164   163   161   ar
   165   167   166   ar
   166   160   159   ar
   167   161   159   ar
   168   161   164   ar
   169   166   164   ar
   170   159   158    1
   171   158   155    1
   172   178   177    2
   173   171   170    2
   174   155   154    1
   175   155   156    1
   176   177   176    1
   177   176   179    1
   178   176   175    1
   179   154   146   am
   180   157   156    2
   181   156   168   am
   182   170   175   am
   183   170   169    1
   184   179   180    1
   185   180   181    1
   186   168   169    1
   187   181   182    1
   188   146   145    1
   189   146   147    2
   190   169   172    1
   191   145   148    1
   192   145   144    1
   193   173   172    1
   194   150   152   ar
   195   150   149   ar
   196   172   174    1
   197   148   149    1
   198   152   153   ar
   199   182   183    1
   200   149   151   ar
   201   153   151   ar
