@<TRIPOS>MOLECULE
tmp/4b9zA00.pdb
 208 203 0 0 0
SMALL
GASTEIGER

@<TRIPOS>ATOM
      1  N         31.9330   81.1290   25.2470 N.3   140  ALA140     -0.1231
      2  CA        31.4570   81.9680   26.3340 C.3   140  ALA140      0.1694
      3  C         31.6130   83.4440   25.9830 C.2   140  ALA140      0.2592
      4  O         32.5420   83.8400   25.2640 O.2   140  ALA140     -0.2718
      5  CB        32.1900   81.6470   27.6300 C.3   140  ALA140      0.0304
      6  N         30.6970   84.2580   26.4860 N.am  141  HIS141     -0.1962
      7  CA        30.8220   85.6990   26.3350 C.3   141  HIS141      0.1787
      8  C         30.5310   86.3210   27.6860 C.2   141  HIS141      0.2620
      9  O         29.4410   86.8470   27.9350 O.2   141  HIS141     -0.2715
     10  CB        29.8690   86.2300   25.2630 C.3   141  HIS141      0.0785
     11  CG        30.0930   87.6690   24.9200 C.ar  141  HIS141      0.0821
     12  ND1       29.5610   88.2600   23.7940 N.ar  141  HIS141     -0.2267
     13  CD2       30.7880   88.6390   25.5620 C.ar  141  HIS141      0.1154
     14  CE1       29.9190   89.5310   23.7550 C.ar  141  HIS141      0.1986
     15  NE2       30.6600   89.7870   24.8180 N.ar  141  HIS141     -0.2212
     16  N         31.5100   86.2390   28.5760 N.am  142  TYR142     -0.1960
     17  CA        31.2890   86.6770   29.9420 C.3   142  TYR142      0.1771
     18  C         30.9250   88.1640   30.0050 C.2   142  TYR142      0.2620
     19  O         31.6080   89.0080   29.4180 O.2   142  TYR142     -0.2715
     20  CB        32.5260   86.3980   30.7910 C.3   142  TYR142      0.0574
     21  CG        32.3640   86.8220   32.2280 C.ar  142  TYR142     -0.0198
     22  CD1       31.8510   85.9460   33.1850 C.ar  142  TYR142     -0.0009
     23  CD2       32.7300   88.1060   32.6330 C.ar  142  TYR142     -0.0009
     24  CE1       31.7100   86.3450   34.5110 C.ar  142  TYR142      0.0417
     25  CE2       32.5930   88.5080   33.9390 C.ar  142  TYR142      0.0417
     26  CZ        32.0780   87.6330   34.8750 C.ar  142  TYR142      0.1957
     27  OH        31.9470   88.0650   36.1740 O.3   142  TYR142     -0.2866
     28  N         29.8510   88.4830   30.7190 N.am  143  GLY143     -0.1954
     29  CA        29.5220   89.8740   30.9880 C.3   143  GLY143      0.1869
     30  C         28.9970   90.6340   29.7820 C.2   143  GLY143      0.2309
     31  O         29.0970   91.8530   29.7290 O.2   143  GLY143     -0.2863
     32  N         25.7250   81.9600   42.7650 N.3   234  PHE234     -0.1241
     33  CA        27.0630   81.3790   42.6680 C.3   234  PHE234      0.1605
     34  C         27.8260   81.9140   43.8590 C.2   234  PHE234      0.2264
     35  O         28.4130   82.9960   43.7470 O.2   234  PHE234     -0.2867
     36  CB        27.7700   81.8440   41.3850 C.3   234  PHE234      0.0534
     37  CG        29.2360   81.4470   41.3090 C.ar  234  PHE234     -0.0203
     38  CD1       29.7070   80.3100   41.9600 C.ar  234  PHE234     -0.0042
     39  CD2       30.1360   82.2170   40.5870 C.ar  234  PHE234     -0.0042
     40  CE1       31.0620   79.9370   41.8810 C.ar  234  PHE234     -0.0003
     41  CE2       31.4960   81.8540   40.5020 C.ar  234  PHE234     -0.0003
     42  CZ        31.9520   80.7150   41.1520 C.ar  234  PHE234     -0.0000
     43  N         25.7370   75.3840   43.2510 N.3   262  ASP262     -0.1225
     44  CA        26.8490   75.6860   42.3500 C.3   262  ASP262      0.1805
     45  C         28.1090   74.9730   42.8210 C.2   262  ASP262      0.2597
     46  O         28.0470   74.0990   43.6980 O.2   262  ASP262     -0.2718
     47  CB        27.0670   77.2020   42.3020 C.3   262  ASP262      0.1424
     48  CG        27.6480   77.6680   40.9830 C.2   262  ASP262      0.3668
     49  OD1       28.5490   76.9810   40.4400 O.co2 262  ASP262     -0.2456
     50  OD2       27.1950   78.7220   40.4870 O.co2 262  ASP262     -0.2456
     51  N         29.2580   75.3340   42.2570 N.am  263  LEU263     -0.1979
     52  CA        30.4470   74.4790   42.3700 C.3   263  LEU263      0.1596
     53  C         31.0410   74.2740   43.7680 C.2   263  LEU263      0.2287
     54  O         31.9480   73.4640   43.9320 O.2   263  LEU263     -0.2864
     55  CB        31.5550   74.9280   41.4000 C.3   263  LEU263      0.0297
     56  CG        32.0620   76.3690   41.4690 C.3   263  LEU263      0.0022
     57  CD1       32.6960   76.6830   42.8190 C.3   263  LEU263      0.0001
     58  CD2       33.0590   76.6240   40.3310 C.3   263  LEU263      0.0001
     59  N         25.2810   71.3360   40.0750 N.3   304  ILE304     -0.1245
     60  CA        26.0450   71.6840   38.8900 C.3   304  ILE304      0.1561
     61  C         27.0820   70.5910   38.6000 C.2   304  ILE304      0.2260
     62  O         27.6520   69.9780   39.5120 O.2   304  ILE304     -0.2867
     63  CB        26.7400   73.0580   39.0470 C.3   304  ILE304      0.0252
     64  CG1       27.2310   73.5760   37.6980 C.3   304  ILE304      0.0019
     65  CG2       27.9100   72.9750   40.0420 C.3   304  ILE304      0.0019
     66  CD1       27.7390   75.0110   37.7420 C.3   304  ILE304      0.0001
     67  N         30.1680   69.6780   35.2910 N.3   306  GLU306     -0.1245
     68  CA        30.9220   70.2410   34.1710 C.3   306  GLU306      0.1567
     69  C         31.6500   69.1250   33.3950 C.2   306  GLU306      0.2260
     70  O         31.7960   68.0160   33.9050 O.2   306  GLU306     -0.2867
     71  CB        31.9330   71.2660   34.6940 C.3   306  GLU306      0.0388
     72  CG        31.3130   72.5120   35.3510 C.3   306  GLU306      0.1160
     73  CD        31.1760   72.3890   36.8650 C.2   306  GLU306      0.3649
     74  OE1       31.4200   71.2830   37.3970 O.co2 306  GLU306     -0.2457
     75  OE2       30.8230   73.4070   37.5240 O.co2 306  GLU306     -0.2457
     76  N         39.8200   78.2660   32.7100 N.3   339  TYR339     -0.1227
     77  CA        39.6810   79.2150   33.8100 C.3   339  TYR339      0.1736
     78  C         39.8250   78.5260   35.1630 C.2   339  TYR339      0.2595
     79  O         40.4500   79.0530   36.0770 O.2   339  TYR339     -0.2718
     80  CB        38.3480   79.9840   33.7400 C.3   339  TYR339      0.0548
     81  CG        38.1200   80.8560   34.9610 C.ar  339  TYR339     -0.0200
     82  CD1       38.7760   82.0830   35.1060 C.ar  339  TYR339     -0.0009
     83  CD2       37.2770   80.4360   35.9880 C.ar  339  TYR339     -0.0009
     84  CE1       38.5790   82.8720   36.2390 C.ar  339  TYR339      0.0417
     85  CE2       37.0800   81.2140   37.1190 C.ar  339  TYR339      0.0417
     86  CZ        37.7250   82.4250   37.2370 C.ar  339  TYR339      0.1957
     87  OH        37.5120   83.1810   38.3670 O.3   339  TYR339     -0.2866
     88  N         39.2610   77.3310   35.2800 N.am  340  PHE340     -0.1976
     89  CA        39.1500   76.6770   36.5800 C.3   340  PHE340      0.1639
     90  C         40.3940   75.9230   37.0240 C.2   340  PHE340      0.2290
     91  O         40.4940   75.5100   38.1820 O.2   340  PHE340     -0.2864
     92  CB        37.8980   75.7990   36.6130 C.3   340  PHE340      0.0560
     93  CG        36.6320   76.5900   36.4220 C.ar  340  PHE340     -0.0200
     94  CD1       36.0770   77.2800   37.4790 C.ar  340  PHE340     -0.0042
     95  CD2       36.0470   76.7010   35.1740 C.ar  340  PHE340     -0.0042
     96  CE1       34.9230   78.0350   37.3030 C.ar  340  PHE340     -0.0003
     97  CE2       34.9030   77.4570   34.9930 C.ar  340  PHE340     -0.0003
     98  CZ        34.3430   78.1200   36.0540 C.ar  340  PHE340     -0.0000
     99  N         22.3250   70.3160   36.3950 N.3   373  TRP373     -0.1241
    100  CA        22.7680   71.5310   35.7420 C.3   373  TRP373      0.1605
    101  C         24.1280   71.1970   35.1280 C.2   373  TRP373      0.2264
    102  O         25.0610   70.8460   35.8440 O.2   373  TRP373     -0.2867
    103  CB        22.8870   72.6230   36.8110 C.3   373  TRP373      0.0550
    104  CG        23.4100   73.9770   36.3840 C.ar  373  TRP373      0.0003
    105  CD1       23.5310   74.4600   35.1170 C.ar  373  TRP373      0.0946
    106  CD2       23.8600   75.0240   37.2590 C.ar  373  TRP373      0.0152
    107  NE1       24.0270   75.7490   35.1470 N.ar  373  TRP373     -0.2442
    108  CE2       24.2350   76.1150   36.4500 C.ar  373  TRP373      0.0810
    109  CE3       23.9750   75.1420   38.6490 C.ar  373  TRP373      0.0012
    110  CZ2       24.7290   77.3060   36.9830 C.ar  373  TRP373      0.0191
    111  CZ3       24.4490   76.3320   39.1810 C.ar  373  TRP373      0.0001
    112  CH2       24.8230   77.3990   38.3470 C.ar  373  TRP373      0.0015
    113  N         27.0980   72.7930   33.1300 N.3   375  ASP375     -0.1225
    114  CA        27.6560   74.0930   32.7720 C.3   375  ASP375      0.1805
    115  C         28.8960   73.9130   31.8830 C.2   375  ASP375      0.2597
    116  O         29.4890   72.8380   31.8600 O.2   375  ASP375     -0.2718
    117  CB        28.0440   74.8130   34.0590 C.3   375  ASP375      0.1424
    118  CG        28.4690   76.2400   33.8350 C.2   375  ASP375      0.3668
    119  OD1       28.0570   76.8470   32.8200 O.co2 375  ASP375     -0.2456
    120  OD2       29.2190   76.7520   34.6920 O.co2 375  ASP375     -0.2456
    121  N         29.2790   74.9650   31.1550 N.am  376  LEU376     -0.1979
    122  CA        30.5250   74.9720   30.3630 C.3   376  LEU376      0.1596
    123  C         30.5710   74.0150   29.1690 C.2   376  LEU376      0.2287
    124  O         31.6650   73.6810   28.6950 O.2   376  LEU376     -0.2864
    125  CB        31.7420   74.7000   31.2580 C.3   376  LEU376      0.0297
    126  CG        31.7850   75.4550   32.5850 C.3   376  LEU376      0.0022
    127  CD1       33.0510   75.0940   33.3510 C.3   376  LEU376      0.0001
    128  CD2       31.6710   76.9780   32.3600 C.3   376  LEU376      0.0001
    129  N         33.6030   75.3250   27.0290 N.3   380  GLU380     -0.1245
    130  CA        34.1920   76.6490   27.2000 C.3   380  GLU380      0.1567
    131  C         35.6500   76.7210   26.7190 C.2   380  GLU380      0.2260
    132  O         36.0410   77.6910   26.0870 O.2   380  GLU380     -0.2867
    133  CB        34.1110   77.1010   28.6500 C.3   380  GLU380      0.0388
    134  CG        34.7660   78.4590   28.8770 C.3   380  GLU380      0.1160
    135  CD        34.4730   79.0180   30.2480 C.2   380  GLU380      0.3649
    136  OE1       33.2960   79.3530   30.5130 O.co2 380  GLU380     -0.2457
    137  OE2       35.4170   79.1230   31.0600 O.co2 380  GLU380     -0.2457
    138  N         24.1380   75.0430   28.9910 N.3   426  ARG426     -0.1245
    139  CA        24.5100   76.3440   28.4530 C.3   426  ARG426      0.1563
    140  C         24.7120   76.3190   26.9390 C.2   426  ARG426      0.2260
    141  O         24.7550   77.3690   26.2850 O.2   426  ARG426     -0.2867
    142  CB        25.8040   76.8080   29.1230 C.3   426  ARG426      0.0307
    143  CG        25.8900   78.3000   29.3190 C.3   426  ARG426      0.0489
    144  CD        27.0370   78.6260   30.2500 C.3   426  ARG426      0.2205
    145  NE        28.3270   78.3880   29.6090 N.pl3 426  ARG426     -0.0865
    146  CZ        29.4760   78.8380   30.1010 C.cat 426  ARG426      0.5346
    147  NH1       29.4790   79.5120   31.2460 N.pl3 426  ARG426      0.1354
    148  NH2       30.6140   78.6230   29.4570 N.pl3 426  ARG426      0.1354
    149  N         19.9710   78.4050   29.3840 N.3   440  TRP440     -0.1241
    150  CA        19.9080   79.7660   29.8990 C.3   440  TRP440      0.1605
    151  C         20.9960   80.5890   29.1990 C.2   440  TRP440      0.2264
    152  O         21.9480   80.0250   28.6530 O.2   440  TRP440     -0.2867
    153  CB        20.0530   79.7940   31.4280 C.3   440  TRP440      0.0550
    154  CG        21.4800   79.8170   31.9400 C.ar  440  TRP440      0.0003
    155  CD1       22.1610   80.9070   32.4220 C.ar  440  TRP440      0.0946
    156  CD2       22.3810   78.7060   32.0440 C.ar  440  TRP440      0.0152
    157  NE1       23.4180   80.5410   32.8150 N.ar  440  TRP440     -0.2442
    158  CE2       23.5850   79.1950   32.5920 C.ar  440  TRP440      0.0810
    159  CE3       22.2860   77.3460   31.7280 C.ar  440  TRP440      0.0012
    160  CZ2       24.6980   78.3750   32.8210 C.ar  440  TRP440      0.0191
    161  CZ3       23.4080   76.5210   31.9540 C.ar  440  TRP440      0.0001
    162  CH2       24.5930   77.0470   32.4940 C.ar  440  TRP440      0.0015
    163  N         26.3630   84.1560   31.2870 N.3   443  ASP443     -0.1239
    164  CA        26.8070   85.0580   32.3410 C.3   443  ASP443      0.1674
    165  C         26.5370   86.5150   31.9820 C.2   443  ASP443      0.2266
    166  O         27.4590   87.2950   31.7900 O.2   443  ASP443     -0.2867
    167  CB        28.2960   84.8430   32.6200 C.3   443  ASP443      0.1410
    168  CG        28.5930   83.4490   33.1420 C.2   443  ASP443      0.3668
    169  OD1       27.6890   82.8530   33.7640 O.co2 443  ASP443     -0.2456
    170  OD2       29.7220   82.9420   32.9290 O.co2 443  ASP443     -0.2456
    171  N         23.8890   88.3490   36.2540 N.3   476  PHE476     -0.1241
    172  CA        24.8750   87.4680   36.8740 C.3   476  PHE476      0.1605
    173  C         26.2150   88.1280   37.1880 C.2   476  PHE476      0.2264
    174  O         26.7320   88.0020   38.3020 O.2   476  PHE476     -0.2867
    175  CB        25.1290   86.2510   35.9790 C.3   476  PHE476      0.0534
    176  CG        26.2130   85.3380   36.4990 C.ar  476  PHE476     -0.0203
    177  CD1       27.5400   85.5600   36.1710 C.ar  476  PHE476     -0.0042
    178  CD2       25.8980   84.2760   37.3360 C.ar  476  PHE476     -0.0042
    179  CE1       28.5450   84.7290   36.6560 C.ar  476  PHE476     -0.0003
    180  CE2       26.8850   83.4380   37.8300 C.ar  476  PHE476     -0.0003
    181  CZ        28.2200   83.6620   37.4830 C.ar  476  PHE476     -0.0000
    182  N         29.6060   90.3980   37.6640 N.3   478  ASP478     -0.1239
    183  CA        30.2380   91.5770   38.2180 C.3   478  ASP478      0.1674
    184  C         29.2240   92.4010   39.0030 C.2   478  ASP478      0.2266
    185  O         28.3960   91.8430   39.7360 O.2   478  ASP478     -0.2867
    186  CB        30.8660   92.4040   37.0950 C.3   478  ASP478      0.1410
    187  CG        31.8900   91.6070   36.2820 C.2   478  ASP478      0.3668
    188  OD1       32.4390   90.6160   36.8210 O.co2 478  ASP478     -0.2456
    189  OD2       32.1390   91.9740   35.1100 O.co2 478  ASP478     -0.2456
    190  N         19.7500   84.2770   39.6080 N.3   503  HIS503     -0.1241
    191  CA        21.0580   83.6640   39.8250 C.3   503  HIS503      0.1621
    192  C         22.1210   84.7110   39.5300 C.2   503  HIS503      0.2264
    193  O         22.0110   85.4320   38.5460 O.2   503  HIS503     -0.2867
    194  CB        21.2130   82.4640   38.8930 C.3   503  HIS503      0.0745
    195  CG        22.5670   81.8130   38.9370 C.ar  503  HIS503      0.0817
    196  ND1       23.0380   81.1480   40.0470 N.ar  503  HIS503     -0.2268
    197  CD2       23.5280   81.6920   37.9900 C.ar  503  HIS503      0.1154
    198  CE1       24.2370   80.6540   39.7880 C.ar  503  HIS503      0.1986
    199  NE2       24.5590   80.9700   38.5460 N.ar  503  HIS503     -0.2212
    200  N         26.4760   86.1830   40.8850 N.3   505  GLN505     -0.1245
    201  CA        27.6510   86.0390   41.7420 C.3   505  GLN505      0.1566
    202  C         27.3240   86.5610   43.1300 C.2   505  GLN505      0.2260
    203  O         26.7320   87.6370   43.2650 O.2   505  GLN505     -0.2867
    204  CB        28.8280   86.8180   41.1510 C.3   505  GLN505      0.0367
    205  CG        29.3600   86.1800   39.8820 C.3   505  GLN505      0.0905
    206  CD        30.4340   87.0100   39.2080 C.2   505  GLN505      0.2608
    207  OE1       30.4730   88.2380   39.3460 O.2   505  GLN505     -0.2717
    208  NE2       31.3160   86.3410   38.4690 N.am  505  GLN505     -0.0878
@<TRIPOS>BOND
     1    14    12   ar
     2    14    15   ar
     3    12    11   ar
     4    15    13   ar
     5    11    10    1
     6    11    13   ar
     7     1     2    1
     8    10     7    1
     9     4     3    2
    10     3     2    1
    11     3     6   am
    12   132   131    2
    13   141   140    2
    14     2     5    1
    15     7     6    1
    16     7     8    1
    17   131   130    1
    18   140   139    1
    19   129   130    1
    20   130   133    1
    21     8     9    2
    22     8    16   am
    23   139   138    1
    24   139   142    1
    25    16    17    1
    26   133   134    1
    27   152   151    2
    28   124   123    2
    29   134   135    1
    30   142   143    1
    31   123   122    1
    32   151   150    1
    33   143   144    1
    34   149   150    1
    35    19    18    2
    36   148   146    1
    37   145   146    2
    38   145   144    1
    39    31    30    2
    40    30    29    1
    41   150   153    1
    42    17    18    1
    43    17    20    1
    44    18    28   am
    45   146   147    1
    46   135   136   ar
    47   135   137   ar
    48   122   121    1
    49   122   125    1
    50    28    29    1
    51    20    21    1
    52   121   115   am
    53   125   126    1
    54   163   164    1
    55   153   154    1
    56   159   161   ar
    57   159   156   ar
    58   166   165    2
    59   116   115    2
    60   115   114    1
    61   154   156   ar
    62   154   155   ar
    63   161   162   ar
    64   165   164    1
    65   156   158   ar
    66    21    23   ar
    67    21    22   ar
    68   164   167    1
    69   128   126    1
    70   155   157   ar
    71   162   160   ar
    72   126   127    1
    73   158   157   ar
    74   158   160   ar
    75   167   168    1
    76    23    25   ar
    77    76    77    1
    78   114   113    1
    79   114   117    1
    80   119   118   ar
    81   170   168   ar
    82   168   169   ar
    83    22    24   ar
    84    69    70    2
    85    69    68    1
    86    80    77    1
    87    80    81    1
    88    77    78    1
    89   118   117    1
    90   118   120   ar
    91    25    26   ar
    92    68    71    1
    93    68    67    1
    94    24    26   ar
    95    71    72    1
    96    26    27    1
    97    81    82   ar
    98    81    83   ar
    99    97    95   ar
   100    97    98   ar
   101    82    84   ar
   102   189   187   ar
   103   105   107   ar
   104   105   104   ar
   105   101   100    1
   106   101   102    2
   107   107   108   ar
   108    78    88   am
   109    78    79    2
   110    95    93   ar
   111    88    89    1
   112    72    73    1
   113   100    99    1
   114   100   103    1
   115   175   176    1
   116   175   172    1
   117    83    85   ar
   118    98    96   ar
   119   177   176   ar
   120   177   179   ar
   121    84    86   ar
   122   171   172    1
   123   187   188   ar
   124   187   186    1
   125   104   103    1
   126   104   106   ar
   127    93    92    1
   128    93    94   ar
   129   108   110   ar
   130   108   106   ar
   131   176   178   ar
   132    89    92    1
   133    89    90    1
   134   179   181   ar
   135    73    74   ar
   136    73    75   ar
   137   172   173    1
   138   110   112   ar
   139    90    91    2
   140   186   183    1
   141    85    86   ar
   142   173   174    2
   143    86    87    1
   144   106   109   ar
   145    96    94   ar
   146   178   180   ar
   147   181   180   ar
   148   182   183    1
   149    64    66    1
   150    64    63    1
   151   197   199   ar
   152   197   195   ar
   153   183   184    1
   154   112   111   ar
   155   208   206   am
   156   199   198   ar
   157   193   192    2
   158    61    60    1
   159    61    62    2
   160   109   111   ar
   161    60    63    1
   162    60    59    1
   163   194   195    1
   164   194   191    1
   165   195   196   ar
   166   184   185    2
   167    63    65    1
   168   206   207    2
   169   206   205    1
   170   192   191    1
   171   190   191    1
   172   198   196   ar
   173   205   204    1
   174    58    56    1
   175    49    48   ar
   176    50    48   ar
   177    41    39   ar
   178    41    42   ar
   179    39    37   ar
   180   200   201    1
   181    48    47    1
   182   204   201    1
   183    42    40   ar
   184    37    36    1
   185    37    38   ar
   186    36    33    1
   187    55    56    1
   188    55    52    1
   189    56    57    1
   190   201   202    1
   191    40    38   ar
   192    51    52    1
   193    51    45   am
   194    47    44    1
   195    44    45    1
   196    44    43    1
   197    52    53    1
   198    33    32    1
   199    33    34    1
   200    45    46    2
   201   202   203    2
   202    35    34    2
   203    53    54    2
