@<TRIPOS>MOLECULE
tmp/4ba0A03.pdb
 102 97 0 0 0
SMALL
GASTEIGER

@<TRIPOS>ATOM
      1  N        -17.6330   92.1310   22.3080 N.3   661  ALA661     -0.1245
      2  CA       -18.4460   91.7100   21.1650 C.3   661  ALA661      0.1562
      3  C        -17.6040   91.5100   19.9000 C.2   661  ALA661      0.2260
      4  O        -18.0020   90.7940   18.9830 O.2   661  ALA661     -0.2867
      5  CB       -19.5750   92.6990   20.9100 C.3   661  ALA661      0.0290
      6  N        -20.2810   84.7310   21.8370 N.3   695  HIS695     -0.1226
      7  CA       -20.6780   86.0650   22.2800 C.3   695  HIS695      0.1752
      8  C        -21.4680   86.7280   21.1500 C.2   695  HIS695      0.2597
      9  O        -20.9060   87.0910   20.1190 O.2   695  HIS695     -0.2718
     10  CB       -19.4060   86.8530   22.6180 C.3   695  HIS695      0.0759
     11  CG       -19.6410   88.1590   23.3180 C.ar  695  HIS695      0.0818
     12  ND1      -20.8300   88.8550   23.2440 N.ar  695  HIS695     -0.2268
     13  CD2      -18.8130   88.9080   24.0840 C.ar  695  HIS695      0.1154
     14  CE1      -20.7280   89.9720   23.9460 C.ar  695  HIS695      0.1986
     15  NE2      -19.5150   90.0280   24.4680 N.ar  695  HIS695     -0.2212
     16  N        -22.7800   86.8450   21.3230 N.am  696  THR696     -0.1939
     17  CA       -23.6140   87.4910   20.3150 C.3   696  THR696      0.2028
     18  C        -24.2330   88.7570   20.8900 C.2   696  THR696      0.2642
     19  O        -23.9190   89.1400   22.0100 O.2   696  THR696     -0.2714
     20  CB       -24.7240   86.5630   19.8230 C.3   696  THR696      0.1808
     21  OG1      -25.5210   86.1550   20.9360 O.3   696  THR696     -0.2208
     22  CG2      -24.1230   85.3350   19.1500 C.3   696  THR696      0.0379
     23  N        -25.1090   89.4000   20.1230 N.am  697  ASP697     -0.1971
     24  CA       -25.7030   90.6700   20.5380 C.3   697  ASP697      0.1709
     25  C        -26.4580   90.5380   21.8520 C.2   697  ASP697      0.2293
     26  O        -26.4110   91.4300   22.6980 O.2   697  ASP697     -0.2864
     27  CB       -26.6640   91.2010   19.4660 C.3   697  ASP697      0.1436
     28  CG       -25.9510   91.6480   18.2010 C.2   697  ASP697      0.3671
     29  OD1      -24.7010   91.6840   18.1940 O.co2 697  ASP697     -0.2456
     30  OD2      -26.6450   91.9620   17.2090 O.co2 697  ASP697     -0.2456
     31  N        -26.6020   87.4050   23.8110 N.3   699  GLN699     -0.1245
     32  CA       -26.2540   86.2570   24.6350 C.3   699  GLN699      0.1566
     33  C        -24.7450   86.0530   24.7540 C.2   699  GLN699      0.2260
     34  O        -23.9870   86.3910   23.8470 O.2   699  GLN699     -0.2867
     35  CB       -26.9420   84.9930   24.0860 C.3   699  GLN699      0.0367
     36  CG       -26.4270   83.6950   24.6480 C.3   699  GLN699      0.0905
     37  CD       -27.1780   82.4930   24.1020 C.2   699  GLN699      0.2608
     38  OE1      -28.3180   82.6140   23.6410 O.2   699  GLN699     -0.2717
     39  NE2      -26.5450   81.3250   24.1580 N.am  699  GLN699     -0.0878
     40  N        -15.6010   93.1180   31.5270 N.3   726  ASN726     -0.1240
     41  CA       -16.2840   93.8970   30.4970 C.3   726  ASN726      0.1653
     42  C        -17.6420   93.2920   30.1450 C.2   726  ASN726      0.2266
     43  O        -18.0940   93.3750   29.0030 O.2   726  ASN726     -0.2867
     44  CB       -15.4150   94.0350   29.2460 C.3   726  ASN726      0.1155
     45  CG       -15.9780   95.0460   28.2530 C.2   726  ASN726      0.2627
     46  OD1      -16.4530   96.1090   28.6410 O.2   726  ASN726     -0.2716
     47  ND2      -15.9290   94.7090   26.9700 N.am  726  ASN726     -0.0877
     48  N        -21.5910   92.8670   29.8930 N.3   728  SER728     -0.1202
     49  CA       -22.7410   93.7480   29.6860 C.3   728  SER728      0.2020
     50  C        -23.5150   93.9320   30.9820 C.2   728  SER728      0.2619
     51  O        -23.6480   92.9920   31.7650 O.2   728  SER728     -0.2717
     52  CB       -23.6800   93.1510   28.6300 C.3   728  SER728      0.2103
     53  OG       -24.8670   93.9380   28.5060 O.3   728  SER728     -0.2182
     54  N        -24.0490   95.1330   31.2090 N.am  729  ASP729     -0.1959
     55  CA       -24.9220   95.3360   32.3600 C.3   729  ASP729      0.1840
     56  C        -26.3710   94.9770   32.0350 C.2   729  ASP729      0.2622
     57  O        -27.2800   95.2380   32.8290 O.2   729  ASP729     -0.2715
     58  CB       -24.8170   96.7800   32.8830 C.3   729  ASP729      0.1450
     59  CG       -25.1560   97.8220   31.8260 C.2   729  ASP729      0.3671
     60  OD1      -25.8550   97.4940   30.8470 O.co2 729  ASP729     -0.2456
     61  OD2      -24.7250   98.9840   31.9840 O.co2 729  ASP729     -0.2456
     62  N        -26.5720   94.3580   30.8760 N.am  730  GLN730     -0.1963
     63  CA       -27.9080   94.0410   30.3890 C.3   730  GLN730      0.1733
     64  C        -28.3180   92.5630   30.5250 C.2   730  GLN730      0.2616
     65  O        -29.4410   92.2070   30.1790 O.2   730  GLN730     -0.2715
     66  CB       -28.0610   94.4910   28.9300 C.3   730  GLN730      0.0408
     67  CG       -27.9790   96.0060   28.7280 C.3   730  GLN730      0.0908
     68  CD       -29.1590   96.7240   29.3700 C.2   730  GLN730      0.2608
     69  OE1      -28.9880   97.5720   30.2490 O.2   730  GLN730     -0.2717
     70  NE2      -30.3700   96.3620   28.9530 N.am  730  GLN730     -0.0878
     71  N        -27.4320   91.6990   31.0140 N.am  731  TYR731     -0.1974
     72  CA       -27.8310   90.2980   31.2190 C.3   731  TYR731      0.1639
     73  C        -28.8380   90.1820   32.3640 C.2   731  TYR731      0.2290
     74  O        -28.5800   90.6350   33.4820 O.2   731  TYR731     -0.2864
     75  CB       -26.6170   89.4020   31.4840 C.3   731  TYR731      0.0560
     76  CG       -25.6550   89.3480   30.3220 C.ar  731  TYR731     -0.0198
     77  CD1      -26.1050   89.0560   29.0370 C.ar  731  TYR731     -0.0009
     78  CD2      -24.2990   89.5860   30.5030 C.ar  731  TYR731     -0.0009
     79  CE1      -25.2270   89.0210   27.9630 C.ar  731  TYR731      0.0417
     80  CE2      -23.4090   89.5410   29.4360 C.ar  731  TYR731      0.0417
     81  CZ       -23.8760   89.2570   28.1770 C.ar  731  TYR731      0.1957
     82  OH       -22.9970   89.2360   27.1330 O.3   731  TYR731     -0.2866
     83  N        -17.7380   96.3900   36.2160 N.3   762  ARG762     -0.1245
     84  CA       -18.2060   95.7570   34.9820 C.3   762  ARG762      0.1563
     85  C        -17.7510   94.2980   34.9330 C.2   762  ARG762      0.2260
     86  O        -17.2790   93.8120   33.9050 O.2   762  ARG762     -0.2867
     87  CB       -17.7450   96.5360   33.7350 C.3   762  ARG762      0.0307
     88  CG       -18.4930   97.8720   33.5360 C.3   762  ARG762      0.0489
     89  CD       -18.1780   98.5660   32.1940 C.3   762  ARG762      0.2205
     90  NE       -18.3130   97.6890   31.0230 N.pl3 762  ARG762     -0.0865
     91  CZ       -19.4660   97.2050   30.5510 C.cat 762  ARG762      0.5346
     92  NH1      -20.6160   97.4810   31.1520 N.pl3 762  ARG762      0.1354
     93  NH2      -19.4650   96.4220   29.4750 N.pl3 762  ARG762      0.1354
     94  N        -29.8600   88.5610   27.6710 N.3   781  LYS781     -0.1245
     95  CA       -30.3860   89.8940   27.9520 C.3   781  LYS781      0.1561
     96  C        -31.9120   89.8600   27.9810 C.2   781  LYS781      0.2260
     97  O        -32.5470   90.7550   28.5480 O.2   781  LYS781     -0.2867
     98  CB       -29.8920   90.8950   26.9080 C.3   781  LYS781      0.0271
     99  CG       -28.3850   91.0860   26.8950 C.3   781  LYS781      0.0035
    100  CD       -27.9630   92.0860   25.8430 C.3   781  LYS781      0.0206
    101  CE       -26.4600   92.2920   25.8590 C.3   781  LYS781      0.1093
    102  NZ       -26.0660   93.3550   24.8970 N.3   781  LYS781     -0.1314
@<TRIPOS>BOND
     1    30    28   ar
     2    29    28   ar
     3    28    27    1
     4     4     3    2
     5    22    20    1
     6    27    24    1
     7    20    17    1
     8    20    21    1
     9     3     2    1
    10     9     8    2
    11    23    24    1
    12    23    18   am
    13    17    18    1
    14    17    16    1
    15    24    25    1
    16    18    19    2
    17     5     2    1
    18     8    16   am
    19     8     7    1
    20     2     1    1
    21     6     7    1
    22    25    26    2
    23     7    10    1
    24    10    11    1
    25    12    11   ar
    26    12    14   ar
    27    11    13   ar
    28    38    37    2
    29    31    32    1
    30    34    33    2
    31    14    15   ar
    32    13    15   ar
    33    35    32    1
    34    35    36    1
    35    37    39   am
    36    37    36    1
    37    32    33    1
    38   102   101    1
    39   100   101    1
    40   100    99    1
    41    99    98    1
    42    98    95    1
    43    47    45   am
    44    82    81    1
    45    94    95    1
    46    95    96    1
    47    79    81   ar
    48    79    77   ar
    49    96    97    2
    50    81    80   ar
    51    45    46    2
    52    45    44    1
    53    53    52    1
    54    52    49    1
    55    67    66    1
    56    67    68    1
    57    66    63    1
    58    70    68   am
    59    43    42    2
    60    77    76   ar
    61    44    41    1
    62    68    69    2
    63    80    78   ar
    64    93    91    1
    65    49    48    1
    66    49    50    1
    67    42    41    1
    68    65    64    2
    69    76    78   ar
    70    76    75    1
    71    63    64    1
    72    63    62    1
    73    41    40    1
    74    64    71   am
    75    91    90    2
    76    91    92    1
    77    60    59   ar
    78    62    56   am
    79    50    54   am
    80    50    51    2
    81    71    72    1
    82    90    89    1
    83    54    55    1
    84    72    75    1
    85    72    73    1
    86    59    61   ar
    87    59    58    1
    88    56    55    1
    89    56    57    2
    90    89    88    1
    91    55    58    1
    92    73    74    2
    93    88    87    1
    94    87    84    1
    95    86    85    2
    96    85    84    1
    97    84    83    1
