@<TRIPOS>MOLECULE
tmp/4ba0A02.pdb
 119 118 0 0 0
SMALL
GASTEIGER

@<TRIPOS>ATOM
      1  N          4.1450   89.2840   45.9180 N.3   526  PRO526     -0.2102
      2  CA         2.8870   88.9550   45.2360 C.3   526  PRO526      0.1504
      3  C          3.0810   88.5570   43.7690 C.2   526  PRO526      0.2575
      4  O          2.2300   87.8550   43.2210 O.2   526  PRO526     -0.2718
      5  CB         2.0600   90.2470   45.3600 C.3   526  PRO526      0.0282
      6  CG         3.0680   91.3240   45.5820 C.3   526  PRO526      0.0208
      7  CD         4.2180   90.7030   46.3150 C.3   526  PRO526      0.0893
      8  N          4.1710   88.9930   43.1420 N.am  527  LEU527     -0.1980
      9  CA         4.4870   88.5580   41.7790 C.3   527  LEU527      0.1596
     10  C          5.0070   87.1140   41.6960 C.2   527  LEU527      0.2287
     11  O          4.6700   86.3770   40.7670 O.2   527  LEU527     -0.2864
     12  CB         5.4830   89.5150   41.1140 C.3   527  LEU527      0.0297
     13  CG         4.8720   90.9070   40.9390 C.3   527  LEU527      0.0022
     14  CD1        5.8900   91.9400   40.4240 C.3   527  LEU527      0.0001
     15  CD2        3.6710   90.8450   40.0130 C.3   527  LEU527      0.0001
     16  N          2.0060   85.2250   42.0960 N.3   530  LEU530     -0.1245
     17  CA         1.2540   85.2300   40.8380 C.3   530  LEU530      0.1561
     18  C          1.7440   84.1490   39.8790 C.2   530  LEU530      0.2260
     19  O          0.9520   83.4640   39.2400 O.2   530  LEU530     -0.2867
     20  CB         1.3700   86.5900   40.1340 C.3   530  LEU530      0.0270
     21  CG         0.6490   86.7000   38.7850 C.3   530  LEU530      0.0019
     22  CD1       -0.8640   86.5320   38.9770 C.3   530  LEU530      0.0001
     23  CD2        0.9590   88.0520   38.1180 C.3   530  LEU530      0.0001
     24  N          0.1400   81.1140   41.0070 N.3   533  ARG533     -0.1245
     25  CA        -1.3010   81.1350   40.7600 C.3   533  ARG533      0.1563
     26  C         -1.6010   80.8770   39.2740 C.2   533  ARG533      0.2260
     27  O         -2.6050   80.2460   38.9310 O.2   533  ARG533     -0.2867
     28  CB        -1.8960   82.4620   41.2620 C.3   533  ARG533      0.0307
     29  CG        -1.8290   82.5930   42.7720 C.3   533  ARG533      0.0489
     30  CD        -1.9740   84.0380   43.2450 C.3   533  ARG533      0.2205
     31  NE        -3.1850   84.6670   42.7520 N.pl3 533  ARG533     -0.0865
     32  CZ        -3.2530   85.9230   42.3280 C.cat 533  ARG533      0.5346
     33  NH1       -2.1740   86.6930   42.3170 N.pl3 533  ARG533      0.1354
     34  NH2       -4.4060   86.4130   41.9100 N.pl3 533  ARG533      0.1354
     35  N         -3.7950   94.2950   32.1950 N.3   604  PHE604     -0.1227
     36  CA        -3.7980   93.1010   33.0410 C.3   604  PHE604      0.1736
     37  C         -3.9740   93.4750   34.5050 C.2   604  PHE604      0.2595
     38  O         -4.6530   92.7770   35.2570 O.2   604  PHE604     -0.2718
     39  CB        -2.4830   92.3350   32.8390 C.3   604  PHE604      0.0547
     40  CG        -2.4160   91.0150   33.5560 C.ar  604  PHE604     -0.0202
     41  CD1       -3.3750   90.0360   33.3370 C.ar  604  PHE604     -0.0042
     42  CD2       -1.3740   90.7400   34.4270 C.ar  604  PHE604     -0.0042
     43  CE1       -3.2980   88.8090   33.9840 C.ar  604  PHE604     -0.0003
     44  CE2       -1.2850   89.5110   35.0680 C.ar  604  PHE604     -0.0003
     45  CZ        -2.2500   88.5460   34.8450 C.ar  604  PHE604     -0.0000
     46  N         -3.3610   94.5850   34.9070 N.am  605  TRP605     -0.1976
     47  CA        -3.3580   94.9950   36.3090 C.3   605  TRP605      0.1640
     48  C         -4.5680   95.8340   36.7040 C.2   605  TRP605      0.2290
     49  O         -5.0210   95.7610   37.8440 O.2   605  TRP605     -0.2864
     50  CB        -2.0870   95.7950   36.6160 C.3   605  TRP605      0.0576
     51  CG        -0.8590   95.1730   36.0360 C.ar  605  TRP605      0.0006
     52  CD1       -0.1280   95.6310   34.9770 C.ar  605  TRP605      0.0946
     53  CD2       -0.2200   93.9690   36.4750 C.ar  605  TRP605      0.0152
     54  NE1        0.9310   94.7770   34.7240 N.ar  605  TRP605     -0.2442
     55  CE2        0.8980   93.7560   35.6390 C.ar  605  TRP605      0.0810
     56  CE3       -0.4810   93.0530   37.5010 C.ar  605  TRP605      0.0012
     57  CZ2        1.7500   92.6630   35.7960 C.ar  605  TRP605      0.0191
     58  CZ3        0.3610   91.9780   37.6550 C.ar  605  TRP605      0.0001
     59  CH2        1.4640   91.7900   36.8090 C.ar  605  TRP605      0.0015
     60  N          5.6900   98.8640   40.6960 N.3   624  HIS624     -0.1226
     61  CA         5.2480   97.5640   41.1940 C.3   624  HIS624      0.1752
     62  C          4.8390   96.5550   40.1200 C.2   624  HIS624      0.2596
     63  O          4.6440   95.3800   40.4250 O.2   624  HIS624     -0.2718
     64  CB         4.1550   97.7070   42.2670 C.3   624  HIS624      0.0759
     65  CG         2.9640   98.4910   41.8280 C.ar  624  HIS624      0.0818
     66  ND1        2.9320   99.8700   41.8470 N.ar  624  HIS624     -0.2268
     67  CD2        1.7470   98.0940   41.3820 C.ar  624  HIS624      0.1154
     68  CE1        1.7520  100.2870   41.4200 C.ar  624  HIS624      0.1986
     69  NE2        1.0140   99.2290   41.1330 N.ar  624  HIS624     -0.2212
     70  N          4.7090   97.0050   38.8770 N.am  625  THR625     -0.1953
     71  CA         4.3650   96.1090   37.7710 C.3   625  THR625      0.1897
     72  C          5.1510   96.4800   36.5200 C.2   625  THR625      0.2313
     73  O          5.8140   97.5140   36.4900 O.2   625  THR625     -0.2863
     74  CB         2.8530   96.1860   37.4100 C.3   625  THR625      0.1794
     75  OG1        2.5290   97.5030   36.9370 O.3   625  THR625     -0.2208
     76  CG2        1.9790   95.8510   38.6170 C.3   625  THR625      0.0378
     77  N         -6.5180   80.4520   36.9940 N.3   638  TYR638     -0.1241
     78  CA        -5.6900   80.5380   38.1920 C.3   638  TYR638      0.1605
     79  C         -6.0790   79.4970   39.2310 C.2   638  TYR638      0.2264
     80  O         -7.2460   79.1040   39.3320 O.2   638  TYR638     -0.2867
     81  CB        -5.8530   81.8980   38.8500 C.3   638  TYR638      0.0534
     82  CG        -5.5830   83.0600   37.9460 C.ar  638  TYR638     -0.0201
     83  CD1       -4.2860   83.5470   37.7780 C.ar  638  TYR638     -0.0009
     84  CD2       -6.6220   83.7020   37.2770 C.ar  638  TYR638     -0.0009
     85  CE1       -4.0320   84.6440   36.9550 C.ar  638  TYR638      0.0417
     86  CE2       -6.3760   84.7960   36.4500 C.ar  638  TYR638      0.0417
     87  CZ        -5.0780   85.2550   36.2870 C.ar  638  TYR638      0.1957
     88  OH        -4.8280   86.3420   35.4660 O.3   638  TYR638     -0.2866
     89  N        -10.1220   79.5100   39.4680 N.3   654  GLU654     -0.1245
     90  CA       -10.6730   80.8230   39.2100 C.3   654  GLU654      0.1567
     91  C        -10.2840   81.1790   37.7850 C.2   654  GLU654      0.2260
     92  O         -9.1040   81.1500   37.4220 O.2   654  GLU654     -0.2867
     93  CB       -10.1280   81.8480   40.2130 C.3   654  GLU654      0.0388
     94  CG       -10.6350   83.2560   39.9710 C.3   654  GLU654      0.1160
     95  CD       -10.1970   84.2380   41.0420 C.2   654  GLU654      0.3649
     96  OE1       -9.6380   83.8110   42.0800 O.co2 654  GLU654     -0.2457
     97  OE2      -10.4180   85.4470   40.8380 O.co2 654  GLU654     -0.2457
     98  N        -10.7210   83.8950   34.5330 N.3   656  HIS656     -0.1241
     99  CA       -11.1320   85.2190   34.0890 C.3   656  HIS656      0.1621
    100  C        -11.2980   85.2480   32.5780 C.2   656  HIS656      0.2264
    101  O        -10.3460   84.9710   31.8330 O.2   656  HIS656     -0.2867
    102  CB       -10.1100   86.2760   34.5310 C.3   656  HIS656      0.0745
    103  CG       -10.1730   86.5860   35.9910 C.ar  656  HIS656      0.0817
    104  ND1      -10.1880   85.6050   36.9600 N.ar  656  HIS656     -0.2268
    105  CD2      -10.2490   87.7620   36.6500 C.ar  656  HIS656      0.1154
    106  CE1      -10.2660   86.1670   38.1520 C.ar  656  HIS656      0.1986
    107  NE2      -10.3070   87.4750   37.9930 N.ar  656  HIS656     -0.2212
    108  N        -12.1880   87.5800   29.2910 N.3   658  TYR658     -0.1241
    109  CA       -12.2000   88.9830   28.8610 C.3   658  TYR658      0.1605
    110  C        -13.1520   89.1810   27.6800 C.2   658  TYR658      0.2264
    111  O        -12.7730   89.0060   26.5230 O.2   658  TYR658     -0.2867
    112  CB       -10.7650   89.4420   28.5460 C.3   658  TYR658      0.0534
    113  CG        -9.9450   89.5490   29.8100 C.ar  658  TYR658     -0.0201
    114  CD1       -9.4230   88.4080   30.4240 C.ar  658  TYR658     -0.0009
    115  CD2       -9.7400   90.7770   30.4230 C.ar  658  TYR658     -0.0009
    116  CE1       -8.6930   88.4990   31.6010 C.ar  658  TYR658      0.0417
    117  CE2       -9.0080   90.8800   31.5960 C.ar  658  TYR658      0.0417
    118  CZ        -8.4830   89.7410   32.1770 C.ar  658  TYR658      0.1957
    119  OH        -7.7530   89.8490   33.3430 O.3   658  TYR658     -0.2866
@<TRIPOS>BOND
     1   111   110    2
     2   110   109    1
     3   112   109    1
     4   112   113    1
     5   109   108    1
     6   113   115   ar
     7   113   114   ar
     8   115   117   ar
     9   114   116   ar
    10   117   118   ar
    11   116   118   ar
    12   101   100    2
    13   118   119    1
    14    35    36    1
    15   100    99    1
    16    39    36    1
    17    39    40    1
    18    36    37    1
    19    41    40   ar
    20    41    43   ar
    21    40    42   ar
    22    43    45   ar
    23    99   102    1
    24    99    98    1
    25    42    44   ar
    26    37    46   am
    27    37    38    2
    28   102   103    1
    29    54    52   ar
    30    54    55   ar
    31    45    44   ar
    32    46    47    1
    33    52    51   ar
    34    88    87    1
    35    55    57   ar
    36    55    53   ar
    37    57    59   ar
    38   103   105   ar
    39   103   104   ar
    40    51    53   ar
    41    51    50    1
    42    87    86   ar
    43    87    85   ar
    44    47    50    1
    45    47    48    1
    46    86    84   ar
    47    53    56   ar
    48    73    72    2
    49    72    71    1
    50   105   107   ar
    51    48    49    2
    52    59    58   ar
    53    75    74    1
    54    85    83   ar
    55   104   106   ar
    56    77    78    1
    57    84    82   ar
    58    74    71    1
    59    74    76    1
    60    92    91    2
    61    56    58   ar
    62    71    70    1
    63    83    82   ar
    64    91    90    1
    65    82    81    1
    66   107   106   ar
    67    23    21    1
    68    78    81    1
    69    78    79    1
    70    21    22    1
    71    21    20    1
    72    70    62   am
    73    27    26    2
    74    90    89    1
    75    90    93    1
    76    79    80    2
    77    19    18    2
    78    26    25    1
    79    18    17    1
    80    94    93    1
    81    94    95    1
    82    15    13    1
    83    62    63    2
    84    62    61    1
    85    20    17    1
    86    14    13    1
    87    60    61    1
    88    25    24    1
    89    25    28    1
    90    11    10    2
    91    17    16    1
    92    97    95   ar
    93    13    12    1
    94    95    96   ar
    95    12     9    1
    96    69    67   ar
    97    69    68   ar
    98    61    64    1
    99    28    29    1
   100    67    65   ar
   101    68    66   ar
   102    10     9    1
   103     9     8    1
   104    65    66   ar
   105    65    64    1
   106    34    32    1
   107    33    32    1
   108    32    31    2
   109    31    30    1
   110    29    30    1
   111     8     3   am
   112     4     3    2
   113     3     2    1
   114     2     5    1
   115     2     1    1
   116     5     6    1
   117     6     7    1
   118     1     7    1
