@<TRIPOS>MOLECULE
tmp/4ba0A01.pdb
 139 135 0 0 0
SMALL
GASTEIGER

@<TRIPOS>ATOM
      1  N         25.8160   82.0050   42.8880 N.3   235  PHE235     -0.1241
      2  CA        27.1510   81.4330   42.7640 C.3   235  PHE235      0.1605
      3  C         27.9320   81.9790   43.9470 C.2   235  PHE235      0.2264
      4  O         28.4970   83.0730   43.8420 O.2   235  PHE235     -0.2867
      5  CB        27.7840   81.8940   41.4440 C.3   235  PHE235      0.0534
      6  CG        29.2460   81.5090   41.2760 C.ar  235  PHE235     -0.0203
      7  CD1       29.8100   80.4720   42.0030 C.ar  235  PHE235     -0.0042
      8  CD2       30.0450   82.2090   40.3870 C.ar  235  PHE235     -0.0042
      9  CE1       31.1720   80.1270   41.8310 C.ar  235  PHE235     -0.0003
     10  CE2       31.3970   81.8750   40.2050 C.ar  235  PHE235     -0.0003
     11  CZ        31.9540   80.8340   40.9280 C.ar  235  PHE235     -0.0000
     12  N         25.8780   75.5180   43.3490 N.3   263  ASP263     -0.1225
     13  CA        26.9930   75.7830   42.4460 C.3   263  ASP263      0.1805
     14  C         28.2300   75.0260   42.9190 C.2   263  ASP263      0.2597
     15  O         28.1310   74.1160   43.7590 O.2   263  ASP263     -0.2718
     16  CB        27.2480   77.2990   42.4090 C.3   263  ASP263      0.1424
     17  CG        27.7900   77.7720   41.0750 C.2   263  ASP263      0.3668
     18  OD1       28.7330   77.1380   40.5420 O.co2 263  ASP263     -0.2456
     19  OD2       27.2770   78.7970   40.5650 O.co2 263  ASP263     -0.2456
     20  N         29.3930   75.3900   42.3900 N.am  264  LEU264     -0.1979
     21  CA        30.5680   74.5170   42.4850 C.3   264  LEU264      0.1596
     22  C         31.1610   74.3090   43.8790 C.2   264  LEU264      0.2287
     23  O         32.0620   73.4790   44.0480 O.2   264  LEU264     -0.2864
     24  CB        31.6590   74.9450   41.4880 C.3   264  LEU264      0.0297
     25  CG        32.0880   76.4100   41.4880 C.3   264  LEU264      0.0022
     26  CD1       32.7260   76.8090   42.8160 C.3   264  LEU264      0.0001
     27  CD2       33.0570   76.6660   40.3180 C.3   264  LEU264      0.0001
     28  N         25.3370   71.4360   40.2280 N.3   305  ILE305     -0.1245
     29  CA        26.1330   71.7480   39.0540 C.3   305  ILE305      0.1561
     30  C         27.1670   70.6450   38.7650 C.2   305  ILE305      0.2260
     31  O         27.7060   70.0120   39.6810 O.2   305  ILE305     -0.2867
     32  CB        26.8420   73.1060   39.2130 C.3   305  ILE305      0.0252
     33  CG1       27.2800   73.6530   37.8550 C.3   305  ILE305      0.0019
     34  CG2       28.0380   72.9910   40.1600 C.3   305  ILE305      0.0019
     35  CD1       27.8580   75.0630   37.9330 C.3   305  ILE305      0.0001
     36  N         30.3080   69.7660   35.4330 N.3   307  GLU307     -0.1245
     37  CA        31.0280   70.3600   34.3210 C.3   307  GLU307      0.1567
     38  C         31.7220   69.2420   33.5260 C.2   307  GLU307      0.2260
     39  O         31.8550   68.1280   34.0180 O.2   307  GLU307     -0.2867
     40  CB        32.0690   71.3460   34.8510 C.3   307  GLU307      0.0388
     41  CG        31.4780   72.5900   35.5260 C.3   307  GLU307      0.1160
     42  CD        31.3920   72.4810   37.0420 C.2   307  GLU307      0.3649
     43  OE1       31.6250   71.3820   37.5840 O.co2 307  GLU307     -0.2457
     44  OE2       31.0810   73.5010   37.7020 O.co2 307  GLU307     -0.2457
     45  N         40.2130   77.0860   35.9950 N.3   341  PHE341     -0.1241
     46  CA        40.1370   76.3550   37.2560 C.3   341  PHE341      0.1605
     47  C         41.3860   75.5310   37.5620 C.2   341  PHE341      0.2264
     48  O         41.5490   75.0250   38.6750 O.2   341  PHE341     -0.2867
     49  CB        38.8880   75.4690   37.2520 C.3   341  PHE341      0.0534
     50  CG        37.6430   76.1940   36.8040 C.ar  341  PHE341     -0.0203
     51  CD1       36.8580   76.8870   37.7150 C.ar  341  PHE341     -0.0042
     52  CD2       37.2680   76.2010   35.4700 C.ar  341  PHE341     -0.0042
     53  CE1       35.7180   77.5640   37.3050 C.ar  341  PHE341     -0.0003
     54  CE2       36.1280   76.8790   35.0560 C.ar  341  PHE341     -0.0003
     55  CZ        35.3550   77.5590   35.9710 C.ar  341  PHE341     -0.0000
     56  N         22.4590   70.4290   36.5340 N.3   374  TRP374     -0.1241
     57  CA        22.8570   71.6750   35.9100 C.3   374  TRP374      0.1605
     58  C         24.2040   71.3560   35.2830 C.2   374  TRP374      0.2264
     59  O         25.1210   70.9260   35.9820 O.2   374  TRP374     -0.2867
     60  CB        22.9970   72.7270   37.0100 C.3   374  TRP374      0.0550
     61  CG        23.4650   74.0970   36.5920 C.ar  374  TRP374      0.0003
     62  CD1       23.5280   74.6060   35.3270 C.ar  374  TRP374      0.0946
     63  CD2       23.9280   75.1320   37.4700 C.ar  374  TRP374      0.0152
     64  NE1       23.9920   75.9160   35.3670 N.ar  374  TRP374     -0.2442
     65  CE2       24.2460   76.2530   36.6680 C.ar  374  TRP374      0.0810
     66  CE3       24.0930   75.2220   38.8560 C.ar  374  TRP374      0.0012
     67  CZ2       24.7310   77.4470   37.2130 C.ar  374  TRP374      0.0191
     68  CZ3       24.5580   76.4170   39.3970 C.ar  374  TRP374      0.0001
     69  CH2       24.8730   77.5120   38.5730 C.ar  374  TRP374      0.0015
     70  N         27.1820   73.0190   33.3360 N.3   376  ASP376     -0.1225
     71  CA        27.7940   74.3020   32.9760 C.3   376  ASP376      0.1805
     72  C         29.0410   74.0920   32.1310 C.2   376  ASP376      0.2597
     73  O         29.6620   73.0300   32.2040 O.2   376  ASP376     -0.2718
     74  CB        28.1560   75.0580   34.2550 C.3   376  ASP376      0.1424
     75  CG        28.3390   76.5460   34.0290 C.2   376  ASP376      0.3668
     76  OD1       28.1130   77.0210   32.8950 O.co2 376  ASP376     -0.2456
     77  OD2       28.6960   77.2430   35.0000 O.co2 376  ASP376     -0.2456
     78  N         29.3830   75.0970   31.3170 N.am  377  LEU377     -0.1979
     79  CA        30.6220   75.1070   30.5170 C.3   377  LEU377      0.1596
     80  C         30.6630   74.1140   29.3510 C.2   377  LEU377      0.2287
     81  O         31.7500   73.7220   28.9070 O.2   377  LEU377     -0.2864
     82  CB        31.8480   74.8930   31.4130 C.3   377  LEU377      0.0297
     83  CG        31.8860   75.5580   32.7940 C.3   377  LEU377      0.0022
     84  CD1       33.1740   75.1780   33.5170 C.3   377  LEU377      0.0001
     85  CD2       31.7410   77.0850   32.6930 C.3   377  LEU377      0.0001
     86  N         24.1280   75.1690   29.0940 N.3   427  ARG427     -0.1245
     87  CA        24.5020   76.4670   28.5360 C.3   427  ARG427      0.1563
     88  C         24.7310   76.4330   27.0230 C.2   427  ARG427      0.2260
     89  O         24.7430   77.4780   26.3440 O.2   427  ARG427     -0.2867
     90  CB        25.8230   76.8730   29.1920 C.3   427  ARG427      0.0307
     91  CG        26.0210   78.3340   29.3800 C.3   427  ARG427      0.0489
     92  CD        27.1440   78.5710   30.3660 C.3   427  ARG427      0.2205
     93  NE        28.4730   78.3830   29.7870 N.pl3 427  ARG427     -0.0865
     94  CZ        29.5580   78.9400   30.3090 C.cat 427  ARG427      0.5346
     95  NH1       29.4290   79.6740   31.4080 N.pl3 427  ARG427      0.1354
     96  NH2       30.7580   78.7720   29.7460 N.pl3 427  ARG427      0.1354
     97  N         19.9600   78.5210   29.5090 N.3   441  TRP441     -0.1241
     98  CA        19.8660   79.8880   30.0170 C.3   441  TRP441      0.1605
     99  C         20.9480   80.7160   29.3150 C.2   441  TRP441      0.2264
    100  O         21.9110   80.1590   28.7730 O.2   441  TRP441     -0.2867
    101  CB        20.0170   79.9240   31.5360 C.3   441  TRP441      0.0550
    102  CG        21.4320   79.9180   32.0070 C.ar  441  TRP441      0.0003
    103  CD1       22.1640   80.9940   32.4310 C.ar  441  TRP441      0.0946
    104  CD2       22.2850   78.7810   32.1270 C.ar  441  TRP441      0.0152
    105  NE1       23.4210   80.5950   32.7960 N.ar  441  TRP441     -0.2442
    106  CE2       23.5280   79.2360   32.6130 C.ar  441  TRP441      0.0810
    107  CE3       22.1290   77.4140   31.8570 C.ar  441  TRP441      0.0012
    108  CZ2       24.6100   78.3810   32.8380 C.ar  441  TRP441      0.0191
    109  CZ3       23.2110   76.5600   32.0800 C.ar  441  TRP441      0.0001
    110  CH2       24.4320   77.0510   32.5620 C.ar  441  TRP441      0.0015
    111  N         26.3920   84.2310   31.3950 N.3   444  ASP444     -0.1239
    112  CA        26.8780   85.1340   32.4380 C.3   444  ASP444      0.1674
    113  C         26.6210   86.5990   32.0890 C.2   444  ASP444      0.2266
    114  O         27.5420   87.3810   31.8980 O.2   444  ASP444     -0.2867
    115  CB        28.3730   84.8840   32.7030 C.3   444  ASP444      0.1410
    116  CG        28.6430   83.4890   33.2910 C.2   444  ASP444      0.3668
    117  OD1       27.6790   82.8210   33.7330 O.co2 444  ASP444     -0.2456
    118  OD2       29.8170   83.0530   33.3120 O.co2 444  ASP444     -0.2456
    119  N         23.9150   88.4690   36.4390 N.3   477  PHE477     -0.1241
    120  CA        24.8970   87.5560   37.0180 C.3   477  PHE477      0.1605
    121  C         26.2530   88.1740   37.3330 C.2   477  PHE477      0.2264
    122  O         26.7770   87.9980   38.4300 O.2   477  PHE477     -0.2867
    123  CB        25.1270   86.3870   36.0620 C.3   477  PHE477      0.0534
    124  CG        26.2440   85.4600   36.4910 C.ar  477  PHE477     -0.0203
    125  CD1       25.9940   84.4120   37.3640 C.ar  477  PHE477     -0.0042
    126  CD2       27.5300   85.6390   36.0200 C.ar  477  PHE477     -0.0042
    127  CE1       27.0150   83.5480   37.7510 C.ar  477  PHE477     -0.0003
    128  CE2       28.5600   84.7870   36.4050 C.ar  477  PHE477     -0.0003
    129  CZ        28.3080   83.7410   37.2670 C.ar  477  PHE477     -0.0000
    130  N         19.7510   84.3640   39.7300 N.3   504  HIS504     -0.1241
    131  CA        21.0750   83.7670   39.9200 C.3   504  HIS504      0.1621
    132  C         22.1400   84.8080   39.6570 C.2   504  HIS504      0.2264
    133  O         22.0530   85.5370   38.6740 O.2   504  HIS504     -0.2867
    134  CB        21.2570   82.6120   38.9410 C.3   504  HIS504      0.0745
    135  CG        22.6030   81.9550   39.0080 C.ar  504  HIS504      0.0817
    136  ND1       23.0280   81.2360   40.1020 N.ar  504  HIS504     -0.2268
    137  CD2       23.6020   81.8780   38.0910 C.ar  504  HIS504      0.1154
    138  CE1       24.2370   80.7430   39.8600 C.ar  504  HIS504      0.1986
    139  NE2       24.6060   81.1250   38.6540 N.ar  504  HIS504     -0.2212
@<TRIPOS>BOND
     1    89    88    2
     2    88    87    1
     3    87    86    1
     4    87    90    1
     5   100    99    2
     6    81    80    2
     7    90    91    1
     8    99    98    1
     9    80    79    1
    10    91    92    1
    11    97    98    1
    12    96    94    1
    13    93    94    2
    14    93    92    1
    15    98   101    1
    16    94    95    1
    17    79    78    1
    18    79    82    1
    19    78    72   am
    20   111   112    1
    21    82    83    1
    22   101   102    1
    23   107   109   ar
    24   107   104   ar
    25   114   113    2
    26   102   104   ar
    27   102   103   ar
    28   109   110   ar
    29   113   112    1
    30   104   106   ar
    31    72    73    2
    32    72    71    1
    33   103   105   ar
    34   112   115    1
    35   110   108   ar
    36   106   105   ar
    37   106   108   ar
    38    85    83    1
    39   115   116    1
    40    83    84    1
    41    76    75   ar
    42    71    70    1
    43    71    74    1
    44   116   118   ar
    45   116   117   ar
    46    38    39    2
    47    38    37    1
    48    75    74    1
    49    75    77   ar
    50    37    40    1
    51    37    36    1
    52    40    41    1
    53    54    52   ar
    54    54    55   ar
    55    58    57    1
    56    58    59    2
    57    62    64   ar
    58    62    61   ar
    59    64    65   ar
    60    52    50   ar
    61    41    42    1
    62    57    56    1
    63    57    60    1
    64    55    53   ar
    65    45    46    1
    66   126   128   ar
    67   126   124   ar
    68   123   124    1
    69   123   120    1
    70   128   129   ar
    71   119   120    1
    72   124   125   ar
    73    61    60    1
    74    61    63   ar
    75    65    67   ar
    76    65    63   ar
    77    50    49    1
    78    50    51   ar
    79   120   121    1
    80    42    43   ar
    81    42    44   ar
    82    67    69   ar
    83    49    46    1
    84    46    47    1
    85   129   127   ar
    86    53    51   ar
    87   121   122    2
    88   125   127   ar
    89    63    66   ar
    90    47    48    2
    91    33    35    1
    92    33    32    1
    93   137   139   ar
    94   137   135   ar
    95    69    68   ar
    96   139   138   ar
    97   133   132    2
    98    30    29    1
    99    30    31    2
   100    66    68   ar
   101   134   135    1
   102   134   131    1
   103   135   136   ar
   104    29    32    1
   105    29    28    1
   106    32    34    1
   107   132   131    1
   108   130   131    1
   109   138   136   ar
   110    10     8   ar
   111    10    11   ar
   112    27    25    1
   113     8     6   ar
   114    18    17   ar
   115    19    17   ar
   116    11     9   ar
   117    17    16    1
   118     6     5    1
   119     6     7   ar
   120     5     2    1
   121    25    24    1
   122    25    26    1
   123    24    21    1
   124     9     7   ar
   125    20    21    1
   126    20    14   am
   127    16    13    1
   128    13    14    1
   129    13    12    1
   130    21    22    1
   131     2     1    1
   132     2     3    1
   133    14    15    2
   134     4     3    2
   135    22    23    2
