@<TRIPOS>MOLECULE
tmp/4ba2B00.pdb
 138 128 0 0 0
SMALL
GASTEIGER

@<TRIPOS>ATOM
      1  N        -39.9900   32.7030   -8.8880 N.3    76  MET76      -0.1245
      2  CA       -40.8310   32.5410   -7.7130 C.3    76  MET76       0.1570
      3  C        -42.2460   32.4350   -8.2040 C.2    76  MET76       0.2261
      4  O        -42.6480   33.1910   -9.0920 O.2    76  MET76      -0.2867
      5  CB       -40.7180   33.7550   -6.7950 C.3    76  MET76       0.0387
      6  CG       -39.3260   33.9910   -6.2310 C.3    76  MET76       0.0595
      7  SD       -39.1310   35.6870   -5.6620 S.3    76  MET76      -0.1393
      8  CE       -40.0200   35.6790   -4.1240 C.3    76  MET76       0.0692
      9  N        -45.2890   33.9980   -2.0730 N.3    81  THR81      -0.1203
     10  CA       -45.1100   35.1380   -1.1740 C.3    81  THR81       0.1994
     11  C        -46.4090   35.5880   -0.4730 C.2    81  THR81       0.2618
     12  O        -47.4810   35.0190   -0.6950 O.2    81  THR81      -0.2717
     13  CB       -44.4740   36.3250   -1.9310 C.3    81  THR81       0.1784
     14  OG1      -45.2060   36.5770   -3.1310 O.3    81  THR81      -0.2211
     15  CG2      -43.0390   35.9900   -2.3320 C.3    81  THR81       0.0376
     16  N        -46.3010   36.6100    0.3710 N.am   82  ASP82      -0.1959
     17  CA       -47.4040   37.0560    1.2190 C.3    82  ASP82       0.1840
     18  C        -48.4580   37.7510    0.3960 C.2    82  ASP82       0.2621
     19  O        -49.6560   37.5090    0.5630 O.2    82  ASP82      -0.2715
     20  CB       -46.8980   38.0250    2.2860 C.3    82  ASP82       0.1450
     21  CG       -45.8400   37.4130    3.1700 C.2    82  ASP82       0.3671
     22  OD1      -46.1090   36.3460    3.7610 O.co2  82  ASP82      -0.2456
     23  OD2      -44.7380   37.9930    3.2560 O.co2  82  ASP82      -0.2456
     24  N        -48.0040   38.6390   -0.4770 N.am   83  GLU83      -0.1977
     25  CA       -48.8850   39.2220   -1.4730 C.3    83  GLU83       0.1602
     26  C        -48.5030   38.6460   -2.8320 C.2    83  GLU83       0.2287
     27  O        -47.3360   38.3550   -3.0770 O.2    83  GLU83      -0.2864
     28  CB       -48.7930   40.7400   -1.4440 C.3    83  GLU83       0.0415
     29  CG       -50.0080   41.4120   -0.8120 C.3    83  GLU83       0.1163
     30  CD       -50.7690   40.5220    0.1680 C.2    83  GLU83       0.3649
     31  OE1      -50.2440   40.2530    1.2740 O.co2  83  GLU83      -0.2457
     32  OE2      -51.9070   40.1100   -0.1620 O.co2  83  GLU83      -0.2457
     33  N        -47.0990   37.7470   -6.1330 N.3    85  LYS85      -0.1245
     34  CA       -46.0610   38.2650   -7.0050 C.3    85  LYS85       0.1561
     35  C        -46.4900   38.0590   -8.4500 C.2    85  LYS85       0.2260
     36  O        -46.9860   36.9870   -8.7880 O.2    85  LYS85      -0.2867
     37  CB       -44.7540   37.5180   -6.7230 C.3    85  LYS85       0.0271
     38  CG       -43.9790   37.1250   -7.9560 C.3    85  LYS85       0.0035
     39  CD       -42.6380   37.8260   -8.0220 C.3    85  LYS85       0.0206
     40  CE       -42.0020   37.5860   -9.3750 C.3    85  LYS85       0.1093
     41  NZ       -42.2340   36.1700   -9.8040 N.3    85  LYS85      -0.1314
     42  N        -38.9810   39.6560  -12.4200 N.3    90  SER90      -0.1202
     43  CA       -38.5760   40.9470  -11.8750 C.3    90  SER90       0.2020
     44  C        -37.0740   41.1720  -12.0910 C.2    90  SER90       0.2619
     45  O        -36.3340   40.2320  -12.3790 O.2    90  SER90      -0.2717
     46  CB       -38.8810   40.9740  -10.3820 C.3    90  SER90       0.2103
     47  OG       -38.1170   39.9880   -9.7050 O.3    90  SER90      -0.2182
     48  N        -36.6310   42.4170  -11.9510 N.am   91  ARG91      -0.1965
     49  CA       -35.2120   42.7250  -11.9790 C.3    91  ARG91       0.1729
     50  C        -34.4460   41.8510  -10.9880 C.2    91  ARG91       0.2616
     51  O        -33.4010   41.2890  -11.3000 O.2    91  ARG91      -0.2715
     52  CB       -35.0170   44.2020  -11.6760 C.3    91  ARG91       0.0348
     53  CG       -35.1030   45.0530  -12.9240 C.3    91  ARG91       0.0492
     54  CD       -35.5100   46.4780  -12.6230 C.3    91  ARG91       0.2205
     55  NE       -34.6160   47.1770  -11.7070 N.pl3  91  ARG91      -0.0865
     56  CZ       -33.7680   48.1310  -12.0760 C.cat  91  ARG91       0.5346
     57  NH1      -33.6830   48.4910  -13.3520 N.pl3  91  ARG91       0.1354
     58  NH2      -33.0070   48.7300  -11.1670 N.pl3  91  ARG91       0.1354
     59  N        -35.0090   41.7210   -9.7960 N.am   92  ARG92      -0.1977
     60  CA       -34.4340   40.8850   -8.7610 C.3    92  ARG92       0.1597
     61  C        -34.2480   39.4440   -9.2550 C.2    92  ARG92       0.2287
     62  O        -33.1810   38.8710   -9.0920 O.2    92  ARG92      -0.2864
     63  CB       -35.2990   40.9580   -7.4860 C.3    92  ARG92       0.0334
     64  CG       -35.0460   39.8750   -6.4310 C.3    92  ARG92       0.0492
     65  CD       -35.5460   40.3410   -5.0600 C.3    92  ARG92       0.2205
     66  NE       -35.4230   39.3310   -4.0070 N.pl3  92  ARG92      -0.0865
     67  CZ       -35.8310   38.0660   -4.1320 C.cat  92  ARG92       0.5346
     68  NH1      -36.3760   37.6610   -5.2810 N.pl3  92  ARG92       0.1354
     69  NH2      -35.7010   37.2020   -3.1220 N.pl3  92  ARG92       0.1354
     70  N        -41.5490   31.3970   -0.0720 N.3   127  ALA127     -0.1245
     71  CA       -40.4420   32.3250    0.1510 C.3   127  ALA127      0.1562
     72  C        -40.4680   33.0020    1.5200 C.2   127  ALA127      0.2260
     73  O        -41.1290   34.0160    1.6830 O.2   127  ALA127     -0.2867
     74  CB       -40.4230   33.3730   -0.9360 C.3   127  ALA127      0.0290
     75  N        -37.4490   34.0870    3.1530 N.3   129  ALA129     -0.1231
     76  CA       -36.0250   34.4590    3.2680 C.3   129  ALA129      0.1694
     77  C        -35.0340   33.3510    2.9030 C.2   129  ALA129      0.2593
     78  O        -35.2360   32.1870    3.2220 O.2   129  ALA129     -0.2718
     79  CB       -35.7020   35.0340    4.6670 C.3   129  ALA129      0.0304
     80  N        -33.9640   33.7360    2.2210 N.am  130  GLY130     -0.1942
     81  CA       -32.8880   32.8240    1.8590 C.3   130  GLY130      0.2014
     82  C        -33.1190   31.9520    0.6370 C.2   130  GLY130      0.2640
     83  O        -32.3610   31.0060    0.3910 O.2   130  GLY130     -0.2714
     84  N        -34.1540   32.2700   -0.1380 N.am  131  SER131     -0.1935
     85  CA       -34.5470   31.4220   -1.2670 C.3   131  SER131      0.2055
     86  C        -33.5020   31.2830   -2.3740 C.2   131  SER131      0.2642
     87  O        -33.4250   30.2320   -3.0170 O.2   131  SER131     -0.2714
     88  CB       -35.8700   31.8740   -1.8650 C.3   131  SER131      0.2130
     89  OG       -35.6600   32.9920   -2.6720 O.3   131  SER131     -0.2179
     90  N        -32.7090   32.3230   -2.6140 N.am  132  ARG132     -0.1977
     91  CA       -31.6490   32.1870   -3.6090 C.3   132  ARG132      0.1597
     92  C        -30.7070   31.0550   -3.2070 C.2   132  ARG132      0.2287
     93  O        -30.2320   30.2970   -4.0510 O.2   132  ARG132     -0.2864
     94  CB       -30.8800   33.4940   -3.8250 C.3   132  ARG132      0.0334
     95  CG       -29.8990   33.8590   -2.7280 C.3   132  ARG132      0.0492
     96  CD       -29.4640   35.2970   -2.8730 C.3   132  ARG132      0.2205
     97  NE       -30.5490   36.2300   -2.5830 N.pl3 132  ARG132     -0.0865
     98  CZ       -30.4290   37.5540   -2.5760 C.cat 132  ARG132      0.5346
     99  NH1      -29.2620   38.1180   -2.8630 N.pl3 132  ARG132      0.1354
    100  NH2      -31.4900   38.3190   -2.3020 N.pl3 132  ARG132      0.1354
    101  N        -37.9220   35.5820    7.2340 N.3   172  GLU172     -0.1245
    102  CA       -38.2870   36.7540    6.4530 C.3   172  GLU172      0.1567
    103  C        -38.3490   38.0410    7.2770 C.2   172  GLU172      0.2260
    104  O        -37.9640   39.1070    6.8010 O.2   172  GLU172     -0.2867
    105  CB       -39.6090   36.5300    5.7340 C.3   172  GLU172      0.0388
    106  CG       -39.8860   37.5620    4.6610 C.3   172  GLU172      0.1160
    107  CD       -41.3610   37.6920    4.3450 C.2   172  GLU172      0.3649
    108  OE1      -42.1110   36.7010    4.4950 O.co2 172  GLU172     -0.2457
    109  OE2      -41.7680   38.8030    3.9600 O.co2 172  GLU172     -0.2457
    110  N        -34.9300   39.4880    7.6600 N.3   175  ALA175     -0.1231
    111  CA       -34.4950   40.1120    6.4120 C.3   175  ALA175      0.1694
    112  C        -35.0930   41.5040    6.1660 C.2   175  ALA175      0.2591
    113  O        -34.3840   42.4330    5.7500 O.2   175  ALA175     -0.2718
    114  CB       -34.8010   39.2110    5.2310 C.3   175  ALA175      0.0304
    115  N        -36.3910   41.6480    6.4130 N.am  176  MET176     -0.1979
    116  CA       -37.0920   42.8960    6.1230 C.3   176  MET176      0.1605
    117  C        -36.7190   43.9910    7.1010 C.2   176  MET176      0.2287
    118  O        -36.5450   45.1390    6.7160 O.2   176  MET176     -0.2864
    119  CB       -38.6070   42.6960    6.1600 C.3   176  MET176      0.0413
    120  CG       -39.3920   43.9830    5.9060 C.3   176  MET176      0.0598
    121  SD       -41.1240   43.9540    6.4390 S.3   176  MET176     -0.1393
    122  CE       -41.7180   42.4890    5.5910 C.3   176  MET176      0.0692
    123  N        -27.8920   41.5660    5.8370 N.3   181  ASP181     -0.1239
    124  CA       -28.4120   40.2820    5.3790 C.3   181  ASP181      0.1674
    125  C        -27.4540   39.8120    4.3260 C.2   181  ASP181      0.2266
    126  O        -27.3750   40.4290    3.2650 O.2   181  ASP181     -0.2867
    127  CB       -29.7930   40.4550    4.7440 C.3   181  ASP181      0.1410
    128  CG       -30.4560   39.1250    4.3780 C.2   181  ASP181      0.3668
    129  OD1      -29.7960   38.0700    4.4270 O.co2 181  ASP181     -0.2456
    130  OD2      -31.6520   39.1480    4.0180 O.co2 181  ASP181     -0.2456
    131  N        -26.4400   42.8520    1.6440 N.3   199  ASN199     -0.1240
    132  CA       -27.2060   44.0810    1.6070 C.3   199  ASN199      0.1653
    133  C        -27.4690   44.5350    3.0400 C.2   199  ASN199      0.2266
    134  O        -27.6000   43.7240    3.9350 O.2   199  ASN199     -0.2867
    135  CB       -28.5020   43.9130    0.8110 C.3   199  ASN199      0.1155
    136  CG       -29.4860   43.0330    1.5040 C.2   199  ASN199      0.2627
    137  OD1      -30.3920   43.5190    2.1710 O.2   199  ASN199     -0.2716
    138  ND2      -29.3170   41.7210    1.3630 N.am  199  ASN199     -0.0877
@<TRIPOS>BOND
     1    57    56    1
     2    53    54    1
     3    53    52    1
     4    54    55    1
     5    42    43    1
     6    45    44    2
     7    44    48   am
     8    44    43    1
     9    56    55    2
    10    56    58    1
    11    49    48    1
    12    49    52    1
    13    49    50    1
    14    43    46    1
    15    51    50    2
    16    50    59   am
    17    46    47    1
    18    41    40    1
    19    59    60    1
    20    40    39    1
    21    61    62    2
    22    61    60    1
    23     4     3    2
    24     1     2    1
    25    36    35    2
    26    60    63    1
    27    35    34    1
    28     3     2    1
    29    39    38    1
    30    38    37    1
    31     2     5    1
    32    63    64    1
    33    34    37    1
    34    34    33    1
    35     5     6    1
    36    64    65    1
    37     6     7    1
    38     7     8    1
    39    68    67    1
    40    65    66    1
    41    67    66    2
    42    67    69    1
    43    93    92    2
    44    94    91    1
    45    94    95    1
    46    91    92    1
    47    91    90    1
    48    14    13    1
    49    27    26    2
    50    87    86    2
    51    96    95    1
    52    96    97    1
    53    99    98    1
    54    26    25    1
    55    89    88    1
    56    90    86   am
    57    97    98    2
    58    98   100    1
    59    86    85    1
    60    15    13    1
    61     9    10    1
    62    13    10    1
    63    88    85    1
    64    25    28    1
    65    25    24    1
    66    28    29    1
    67    85    84    1
    68    10    11    1
    69    74    71    1
    70    29    30    1
    71    12    11    2
    72    24    18   am
    73    11    16   am
    74    32    30   ar
    75    84    82   am
    76    70    71    1
    77    71    72    1
    78    30    31   ar
    79    16    17    1
    80    83    82    2
    81    18    19    2
    82    18    17    1
    83    82    81    1
    84   135   136    1
    85   135   132    1
    86    17    20    1
    87   138   136   am
    88   136   137    2
    89    72    73    2
    90   132   131    1
    91   132   133    1
    92    81    80    1
    93    80    77   am
    94    20    21    1
    95    77    78    2
    96    77    76    1
    97   133   134    2
    98    75    76    1
    99    21    23   ar
   100    21    22   ar
   101   126   125    2
   102    76    79    1
   103   109   107   ar
   104   130   128   ar
   105   125   124    1
   106   107   108   ar
   107   107   106    1
   108   128   129   ar
   109   128   127    1
   110   106   105    1
   111   127   124    1
   112   114   111    1
   113   124   123    1
   114   122   121    1
   115   105   102    1
   116   113   112    2
   117   120   119    1
   118   120   121    1
   119   116   119    1
   120   116   115    1
   121   116   117    1
   122   112   111    1
   123   112   115   am
   124   111   110    1
   125   102   101    1
   126   102   103    1
   127   118   117    2
   128   104   103    2
