@<TRIPOS>MOLECULE
tmp/4ba3A00.pdb
 238 231 0 0 0
SMALL
GASTEIGER

@<TRIPOS>ATOM
      1  N         -0.1210   -8.1220   10.5210 N.3    35  LEU35      -0.1231
      2  CA        -0.4600   -6.8170    9.9640 C.3    35  LEU35       0.1693
      3  C          0.7300   -5.8550    9.9290 C.2    35  LEU35       0.2593
      4  O          0.6460   -4.8410    9.2430 O.2    35  LEU35      -0.2718
      5  CB        -1.6330   -6.1920   10.7390 C.3    35  LEU35       0.0284
      6  CG        -2.9940   -6.8700   10.5280 C.3    35  LEU35       0.0019
      7  CD1       -3.9650   -6.5080   11.6380 C.3    35  LEU35       0.0001
      8  CD2       -3.5850   -6.5360    9.1600 C.3    35  LEU35       0.0001
      9  N          1.8400   -6.1690   10.6200 N.am   36  SER36      -0.1938
     10  CA         3.0040   -5.2810   10.6030 C.3    36  SER36       0.2055
     11  C          4.1930   -5.8640    9.7910 C.2    36  SER36       0.2643
     12  O          5.2850   -5.2930    9.8200 O.2    36  SER36      -0.2714
     13  CB         3.4260   -4.8960   12.0190 C.3    36  SER36       0.2130
     14  OG         3.5330   -6.0100   12.8840 O.3    36  SER36      -0.2179
     15  N          3.9620   -6.9450    9.0130 N.am   37  ARG37      -0.1963
     16  CA         5.0070   -7.5220    8.1610 C.3    37  ARG37       0.1729
     17  C          5.1630   -6.6330    6.9030 C.2    37  ARG37       0.2616
     18  O          4.1700   -6.0790    6.4130 O.2    37  ARG37      -0.2715
     19  CB         4.7240   -9.0010    7.8200 C.3    37  ARG37       0.0348
     20  CG         3.6680   -9.2480    6.7520 C.3    37  ARG37       0.0492
     21  CD         3.5630  -10.7140    6.3950 C.3    37  ARG37       0.2205
     22  NE         2.6490  -10.9160    5.2720 N.pl3  37  ARG37      -0.0865
     23  CZ         1.9470  -12.0230    5.0620 C.cat  37  ARG37       0.5346
     24  NH1        2.0440  -13.0480    5.9010 N.pl3  37  ARG37       0.1354
     25  NH2        1.1350  -12.1120    4.0170 N.pl3  37  ARG37       0.1354
     26  N          6.4110   -6.4690    6.4170 N.am   38  GLU38      -0.1977
     27  CA         6.7170   -5.5940    5.2830 C.3    38  GLU38       0.1602
     28  C          6.0950   -6.0870    3.9630 C.2    38  GLU38       0.2287
     29  O          5.5190   -5.2690    3.2380 O.2    38  GLU38      -0.2864
     30  CB         8.2400   -5.3960    5.1320 C.3    38  GLU38       0.0415
     31  CG         8.6430   -4.1590    4.3350 C.3    38  GLU38       0.1163
     32  CD         7.9760   -2.8460    4.7110 C.2    38  GLU38       0.3649
     33  OE1        8.1740   -2.3770    5.8560 O.co2  38  GLU38      -0.2457
     34  OE2        7.2590   -2.2810    3.8530 O.co2  38  GLU38      -0.2457
     35  N          0.9870   -7.4800    3.9970 N.3    41  PRO41      -0.2116
     36  CA         0.2100   -7.9070    5.1640 C.3    41  PRO41       0.1372
     37  C         -1.2300   -8.2030    4.7770 C.2    41  PRO41       0.2244
     38  O         -1.7930   -7.4770    3.9750 O.2    41  PRO41      -0.2868
     39  CB         0.2740   -6.6930    6.0860 C.3    41  PRO41       0.0268
     40  CG         0.5460   -5.5620    5.2030 C.3    41  PRO41       0.0207
     41  CD         1.4040   -6.0770    4.1030 C.3    41  PRO41       0.0892
     42  N         -4.3670   -7.5980    5.1660 N.3    43  ILE43      -0.1245
     43  CA        -5.4000   -6.6970    5.6930 C.3    43  ILE43       0.1561
     44  C         -6.8030   -7.1810    5.2950 C.2    43  ILE43       0.2260
     45  O         -7.6500   -7.3180    6.1780 O.2    43  ILE43      -0.2867
     46  CB        -5.1480   -5.2090    5.2920 C.3    43  ILE43       0.0252
     47  CG1       -3.7810   -4.7180    5.8200 C.3    43  ILE43       0.0019
     48  CG2       -6.2850   -4.2990    5.7910 C.3    43  ILE43       0.0019
     49  CD1       -3.2390   -3.3990    5.1630 C.3    43  ILE43       0.0001
     50  N         -3.4760   -2.2620   23.6580 N.3    69  PHE69      -0.1241
     51  CA        -2.3330   -1.8740   22.8400 C.3    69  PHE69       0.1605
     52  C         -2.2400   -2.7190   21.5660 C.2    69  PHE69       0.2264
     53  O         -2.0680   -2.1560   20.4830 O.2    69  PHE69      -0.2867
     54  CB        -1.0190   -1.9780   23.6480 C.3    69  PHE69       0.0534
     55  CG         0.2220   -1.6830   22.8350 C.ar   69  PHE69      -0.0203
     56  CD1        0.4440   -0.4140   22.3080 C.ar   69  PHE69      -0.0042
     57  CD2        1.1610   -2.6760   22.5860 C.ar   69  PHE69      -0.0042
     58  CE1        1.5860   -0.1430   21.5410 C.ar   69  PHE69      -0.0003
     59  CE2        2.3130   -2.3990   21.8390 C.ar   69  PHE69      -0.0003
     60  CZ         2.5130   -1.1350   21.3160 C.ar   69  PHE69      -0.0000
     61  N         -2.8210   -1.2880   17.7690 N.3    73  TRP73      -0.1241
     62  CA        -1.7650   -1.4150   16.7760 C.3    73  TRP73       0.1605
     63  C         -2.3190   -2.1360   15.5280 C.2    73  TRP73       0.2264
     64  O         -2.0960   -1.6650   14.4060 O.2    73  TRP73      -0.2867
     65  CB        -0.5510   -2.1470   17.3930 C.3    73  TRP73       0.0550
     66  CG         0.7080   -2.1840   16.5680 C.ar   73  TRP73       0.0003
     67  CD1        0.8280   -1.9760   15.2230 C.ar   73  TRP73       0.0946
     68  CD2        2.0160   -2.5630   17.0320 C.ar   73  TRP73       0.0152
     69  NE1        2.1270   -2.1740   14.8250 N.ar   73  TRP73      -0.2442
     70  CE2        2.8730   -2.5720   15.9080 C.ar   73  TRP73       0.0810
     71  CE3        2.5440   -2.9100   18.2880 C.ar   73  TRP73       0.0012
     72  CZ2        4.2450   -2.8510   16.0140 C.ar   73  TRP73       0.0191
     73  CZ3        3.8960   -3.2080   18.3890 C.ar   73  TRP73       0.0001
     74  CH2        4.7310   -3.1800   17.2620 C.ar   73  TRP73       0.0015
     75  N         -4.6310    0.2190   13.7310 N.3    76  THR76      -0.1203
     76  CA        -3.8380    1.2970   13.1250 C.3    76  THR76       0.1994
     77  C         -3.3140    0.8420   11.7540 C.2    76  THR76       0.2617
     78  O         -3.3800    1.6070   10.7940 O.2    76  THR76      -0.2717
     79  CB        -2.6840    1.7100   14.0510 C.3    76  THR76       0.1784
     80  OG1       -3.2240    2.2100   15.2780 O.3    76  THR76      -0.2211
     81  CG2       -1.7740    2.7540   13.4240 C.3    76  THR76       0.0376
     82  N         -2.8280   -0.4030   11.6640 N.am   77  ASN77      -0.1974
     83  CA        -2.2840   -0.9300   10.4140 C.3    77  ASN77       0.1688
     84  C         -3.3680   -1.1920    9.3860 C.2    77  ASN77       0.2292
     85  O         -3.1270   -0.9300    8.2100 O.2    77  ASN77      -0.2864
     86  CB        -1.4200   -2.1430   10.6560 C.3    77  ASN77       0.1181
     87  CG        -0.0750   -1.7390   11.2160 C.2    77  ASN77       0.2629
     88  OD1        0.1290   -0.6020   11.6560 O.2    77  ASN77      -0.2716
     89  ND2        0.8790   -2.6430   11.1960 N.am   77  ASN77      -0.0877
     90  N         -6.2590    0.6710    9.2880 N.3    79  ALA79      -0.1231
     91  CA        -6.6490    2.0550    8.9630 C.3    79  ALA79       0.1694
     92  C         -5.6110    2.7710    8.0740 C.2    79  ALA79       0.2593
     93  O         -5.9580    3.7320    7.3990 O.2    79  ALA79      -0.2718
     94  CB        -6.8780    2.8520   10.2440 C.3    79  ALA79       0.0304
     95  N         -4.3560    2.2910    8.0580 N.am   80  SER80      -0.1938
     96  CA        -3.2700    2.8330    7.2480 C.3    80  SER80       0.2055
     97  C         -3.3810    2.4350    5.7580 C.2    80  SER80       0.2644
     98  O         -2.6680    3.0020    4.9370 O.2    80  SER80      -0.2714
     99  CB        -1.9230    2.3640    7.7900 C.3    80  SER80       0.2130
    100  OG        -1.6890    1.0160    7.4180 O.3    80  SER80      -0.2179
    101  N         -4.2450    1.4730    5.4380 N.am   81  GLY81      -0.1939
    102  CA        -4.4190    0.9700    4.0780 C.3    81  GLY81       0.2014
    103  C         -5.2320    1.8500    3.1460 C.2    81  GLY81       0.2640
    104  O         -5.1020    3.0770    3.1560 O.2    81  GLY81      -0.2714
    105  N         -6.0780    1.2210    2.3270 N.am   82  THR82      -0.1936
    106  CA        -6.9150    1.9260    1.3560 C.3    82  THR82       0.2028
    107  C         -8.1120    2.5880    2.0610 C.2    82  THR82       0.2642
    108  O         -8.3690    2.3040    3.2370 O.2    82  THR82      -0.2714
    109  CB        -7.3750    0.9500    0.2510 C.3    82  THR82       0.1808
    110  OG1       -8.2850    0.0000    0.8080 O.3    82  THR82      -0.2208
    111  CG2       -6.2040    0.2320   -0.4360 C.3    82  THR82       0.0379
    112  N         -8.8540    3.4490    1.3390 N.am   83  SER83      -0.1949
    113  CA       -10.0510    4.1180    1.8610 C.3    83  SER83       0.1924
    114  C        -11.0880    3.1080    2.3330 C.2    83  SER83       0.2314
    115  O        -11.7220    3.3300    3.3580 O.2    83  SER83      -0.2863
    116  CB       -10.6700    5.0400    0.8110 C.3    83  SER83       0.2116
    117  OG        -9.8360    6.1680    0.6140 O.3    83  SER83      -0.2180
    118  N         -9.7470    1.7550    5.6620 N.3    86  THR86      -0.1218
    119  CA        -9.9660    2.7410    6.7350 C.3    86  THR86       0.1862
    120  C        -11.4640    2.7840    7.1040 C.2    86  THR86       0.2287
    121  O        -11.8020    2.8530    8.2890 O.2    86  THR86      -0.2866
    122  CB        -9.4700    4.1270    6.3360 C.3    86  THR86       0.1770
    123  OG1       -8.1320    4.0190    5.8750 O.3    86  THR86      -0.2211
    124  CG2       -9.5370    5.1310    7.5050 C.3    86  THR86       0.0375
    125  N         -0.6490    5.1470   20.4010 N.3   112  GLN112     -0.1245
    126  CA        -1.2440    4.2800   19.3780 C.3   112  GLN112      0.1566
    127  C         -2.6070    4.8360   18.9260 C.2   112  GLN112      0.2260
    128  O         -2.8790    4.8400   17.7330 O.2   112  GLN112     -0.2867
    129  CB        -1.3650    2.8320   19.8690 C.3   112  GLN112      0.0367
    130  CG        -1.3370    1.8110   18.7310 C.3   112  GLN112      0.0905
    131  CD        -0.1260    1.9380   17.8490 C.2   112  GLN112      0.2608
    132  OE1        1.0060    1.8870   18.3150 O.2   112  GLN112     -0.2717
    133  NE2       -0.3410    2.1720   16.5630 N.am  112  GLN112     -0.0878
    134  N         -1.9590    7.8370   16.6860 N.3   115  TRP115     -0.1241
    135  CA        -1.5580    7.3080   15.3820 C.3   115  TRP115      0.1605
    136  C         -2.7750    6.8400   14.5610 C.2   115  TRP115      0.2264
    137  O         -2.9110    7.2170   13.3950 O.2   115  TRP115     -0.2867
    138  CB        -0.5850    6.1440   15.5680 C.3   115  TRP115      0.0550
    139  CG         0.2440    5.7900   14.3640 C.ar  115  TRP115      0.0003
    140  CD1       -0.1430    5.7960   13.0530 C.ar  115  TRP115      0.0946
    141  CD2        1.5740    5.2600   14.3860 C.ar  115  TRP115      0.0152
    142  NE1        0.8640    5.3130   12.2580 N.ar  115  TRP115     -0.2442
    143  CE2        1.9350    4.9780   13.0490 C.ar  115  TRP115      0.0810
    144  CE3        2.4880    4.9620   15.4140 C.ar  115  TRP115      0.0012
    145  CZ2        3.2040    4.4910   12.7040 C.ar  115  TRP115      0.0191
    146  CZ3        3.7380    4.4670   15.0740 C.ar  115  TRP115      0.0001
    147  CH2        4.0960    4.2600   13.7330 C.ar  115  TRP115      0.0015
    148  N         -4.9220    9.6800   13.3330 N.3   118  GLY118     -0.1210
    149  CA        -4.2040   10.3740   12.2630 C.3   118  GLY118      0.1956
    150  C         -4.4540    9.7060   10.9190 C.2   118  GLY118      0.2611
    151  O         -4.7280   10.3900    9.9290 O.2   118  GLY118     -0.2717
    152  N         -4.4110    8.3560   10.8920 N.am  119  ASN119     -0.1974
    153  CA        -4.6930    7.5350    9.6990 C.3   119  ASN119      0.1688
    154  C         -6.1490    7.6980    9.2420 C.2   119  ASN119      0.2292
    155  O         -6.3950    7.8330    8.0400 O.2   119  ASN119     -0.2864
    156  CB        -4.4070    6.0440    9.9740 C.3   119  ASN119      0.1181
    157  CG        -2.9560    5.6470    9.8790 C.2   119  ASN119      0.2629
    158  OD1       -2.1340    6.3300    9.2640 O.2   119  ASN119     -0.2716
    159  ND2       -2.6200    4.4900   10.4400 N.am  119  ASN119     -0.0877
    160  N         -6.6410   11.3020    8.0630 N.3   122  GLY122     -0.1210
    161  CA        -5.8540   11.3930    6.8400 C.3   122  GLY122      0.1956
    162  C         -6.5030   10.8180    5.5910 C.2   122  GLY122      0.2611
    163  O         -6.0350   11.0830    4.4850 O.2   122  GLY122     -0.2717
    164  N         -7.5730   10.0270    5.7430 N.am  123  ASP123     -0.1973
    165  CA        -8.2860    9.4530    4.6020 C.3   123  ASP123      0.1709
    166  C         -8.9320   10.5270    3.6940 C.2   123  ASP123      0.2293
    167  O         -8.9820   10.3680    2.4790 O.2   123  ASP123     -0.2864
    168  CB        -9.3720    8.4870    5.0820 C.3   123  ASP123      0.1436
    169  CG       -10.0720    7.7980    3.9270 C.2   123  ASP123      0.3671
    170  OD1       -9.4060    7.0290    3.2160 O.co2 123  ASP123     -0.2456
    171  OD2      -11.2580    8.1200    3.6710 O.co2 123  ASP123     -0.2456
    172  N          1.9270   15.1050   13.6290 N.3   162  TRP162     -0.1241
    173  CA         1.4680   14.5040   12.3870 C.3   162  TRP162      0.1605
    174  C         -0.0690   14.3320   12.3830 C.2   162  TRP162      0.2264
    175  O         -0.7000   14.6740   11.3880 O.2   162  TRP162     -0.2867
    176  CB         2.1820   13.1610   12.1220 C.3   162  TRP162      0.0550
    177  CG         1.6510   12.4520   10.9120 C.ar  162  TRP162      0.0003
    178  CD1        1.8770   12.7800    9.6050 C.ar  162  TRP162      0.0946
    179  CD2        0.7290   11.3550   10.8970 C.ar  162  TRP162      0.0152
    180  NE1        1.2040   11.9140    8.7790 N.ar  162  TRP162     -0.2442
    181  CE2        0.4810   11.0350    9.5430 C.ar  162  TRP162      0.0810
    182  CE3        0.1190   10.5800   11.8970 C.ar  162  TRP162      0.0012
    183  CZ2       -0.3660    9.9850    9.1620 C.ar  162  TRP162      0.0191
    184  CZ3       -0.6990    9.5250   11.5190 C.ar  162  TRP162      0.0001
    185  CH2       -0.9570    9.2550   10.1660 C.ar  162  TRP162      0.0015
    186  N         -3.0280   16.1950    9.9430 N.3   166  ASN166     -0.1240
    187  CA        -4.0850   15.5350    9.1660 C.3   166  ASN166      0.1653
    188  C         -5.4570   16.1460    9.4620 C.2   166  ASN166      0.2266
    189  O         -6.3010   16.1700    8.5700 O.2   166  ASN166     -0.2867
    190  CB        -4.0860   14.0350    9.3960 C.3   166  ASN166      0.1155
    191  CG        -3.1410   13.3440    8.4420 C.2   166  ASN166      0.2627
    192  OD1       -2.5810   13.9560    7.5230 O.2   166  ASN166     -0.2716
    193  ND2       -2.9500   12.0560    8.6260 N.am  166  ASN166     -0.0877
    194  N         -5.5840   19.0330    7.2120 N.3   169  ARG169     -0.1245
    195  CA        -5.4450   18.6600    5.8220 C.3   169  ARG169      0.1563
    196  C         -6.7640   18.5300    5.0520 C.2   169  ARG169      0.2260
    197  O         -7.8140   18.3240    5.6260 O.2   169  ARG169     -0.2867
    198  CB        -4.6620   17.3600    5.7260 C.3   169  ARG169      0.0307
    199  CG        -4.0560   17.1060    4.3780 C.3   169  ARG169      0.0489
    200  CD        -3.3510   15.7820    4.3350 C.3   169  ARG169      0.2205
    201  NE        -2.6460   15.6120    3.0820 N.pl3 169  ARG169     -0.0865
    202  CZ        -1.5330   14.9110    2.9410 C.cat 169  ARG169      0.5346
    203  NH1       -0.9900   14.3000    3.9810 N.pl3 169  ARG169      0.1354
    204  NH2       -0.9690   14.8210    1.7560 N.pl3 169  ARG169      0.1354
    205  N          6.2360   18.7060    9.8550 N.3   201  ASP201     -0.1239
    206  CA         4.8020   18.4320    9.9220 C.3   201  ASP201      0.1674
    207  C          3.9810   19.6580   10.3320 C.2   201  ASP201      0.2266
    208  O          2.8500   19.7980    9.8510 O.2   201  ASP201     -0.2867
    209  CB         4.5040   17.2380   10.8360 C.3   201  ASP201      0.1410
    210  CG         4.8290   15.9040   10.1680 C.2   201  ASP201      0.3668
    211  OD1        4.8720   15.8580    8.9220 O.co2 201  ASP201     -0.2456
    212  OD2        4.9990   14.9100   10.8870 O.co2 201  ASP201     -0.2456
    213  N          3.7820   21.6340    7.2230 N.3   204  TRP204     -0.1241
    214  CA         2.8020   21.0000    6.3460 C.3   204  TRP204      0.1605
    215  C          1.3880   21.4090    6.7820 C.2   204  TRP204      0.2264
    216  O          0.6040   21.8160    5.9250 O.2   204  TRP204     -0.2867
    217  CB         2.9550   19.4690    6.2950 C.3   204  TRP204      0.0550
    218  CG         4.0030   19.0170    5.3230 C.ar  204  TRP204      0.0003
    219  CD1        5.1620   18.3630    5.6170 C.ar  204  TRP204      0.0946
    220  CD2        4.0200   19.2480    3.9060 C.ar  204  TRP204      0.0152
    221  NE1        5.8880   18.1450    4.4690 N.ar  204  TRP204     -0.2442
    222  CE2        5.2150   18.6830    3.4040 C.ar  204  TRP204      0.0810
    223  CE3        3.1190   19.8460    2.9980 C.ar  204  TRP204      0.0012
    224  CZ2        5.5380   18.6990    2.0370 C.ar  204  TRP204      0.0191
    225  CZ3        3.4570   19.8940    1.6510 C.ar  204  TRP204      0.0001
    226  CH2        4.6540   19.3310    1.1840 C.ar  204  TRP204      0.0015
    227  N         -1.3950   23.5560    4.6250 N.3   208  TYR208     -0.1241
    228  CA        -2.7740   23.1560    4.3120 C.3   208  TYR208      0.1605
    229  C         -3.7540   24.2660    4.6840 C.2   208  TYR208      0.2264
    230  O         -4.6740   24.5480    3.9170 O.2   208  TYR208     -0.2867
    231  CB        -3.1930   21.8650    5.0260 C.3   208  TYR208      0.0534
    232  CG        -2.2390   20.6940    4.9530 C.ar  208  TYR208     -0.0201
    233  CD1       -1.5950   20.3610    3.7600 C.ar  208  TYR208     -0.0009
    234  CD2       -2.0640   19.8480    6.0450 C.ar  208  TYR208     -0.0009
    235  CE1       -0.7490   19.2530    3.6820 C.ar  208  TYR208      0.0417
    236  CE2       -1.2280   18.7370    5.9760 C.ar  208  TYR208      0.0417
    237  CZ        -0.5680   18.4470    4.7980 C.ar  208  TYR208      0.1957
    238  OH         0.2240   17.3360    4.7490 O.3   208  TYR208     -0.2866
@<TRIPOS>BOND
     1   111   109    1
     2   109   110    1
     3   109   106    1
     4   117   116    1
     5   116   113    1
     6   226   225   ar
     7   226   224   ar
     8   112   113    1
     9   112   107   am
    10   106   107    1
    11   106   105    1
    12   225   223   ar
    13   204   202    1
    14   113   114    1
    15   224   222   ar
    16   107   108    2
    17   105   103   am
    18   114   115    2
    19   167   166    2
    20   202   201    2
    21   202   203    1
    22   223   220   ar
    23   201   200    1
    24   103   104    2
    25   103   102    1
    26   170   169   ar
    27    29    28    2
    28   222   220   ar
    29   222   221   ar
    30   171   169   ar
    31   235   233   ar
    32   235   237   ar
    33   166   165    1
    34   233   232   ar
    35    34    32   ar
    36   220   218   ar
    37   230   229    2
    38   169   168    1
    39    28    27    1
    40    38    37    2
    41    35    41    1
    42    35    36    1
    43    25    23    1
    44   102   101    1
    45    41    40    1
    46   228   227    1
    47   228   229    1
    48   228   231    1
    49    31    32    1
    50    31    30    1
    51   200   199    1
    52   199   198    1
    53   221   219   ar
    54   163   162    2
    55   165   168    1
    56   165   164    1
    57    32    33   ar
    58   238   237    1
    59    37    36    1
    60   237   236   ar
    61    98    97    2
    62   232   231    1
    63   232   234   ar
    64   196   197    2
    65   196   195    1
    66    23    22    2
    67    23    24    1
    68    30    27    1
    69    49    47    1
    70    36    39    1
    71    42    43    1
    72    40    39    1
    73    22    21    1
    74    27    26    1
    75    46    43    1
    76    46    48    1
    77    46    47    1
    78    44    43    1
    79    44    45    2
    80   218   219   ar
    81   218   217    1
    82   101    97   am
    83   162   164   am
    84   162   161    1
    85   118   119    1
    86   198   195    1
    87    97    96    1
    88   195   194    1
    89   123   122    1
    90   216   215    2
    91   236   234   ar
    92   217   214    1
    93   122   119    1
    94   122   124    1
    95   214   215    1
    96   214   213    1
    97    21    20    1
    98    18    17    2
    99    26    17   am
   100   119   120    1
   101    20    19    1
   102   161   160    1
   103    17    16    1
   104   120   121    2
   105    96    99    1
   106    96    95    1
   107    93    92    2
   108   100    99    1
   109   192   191    2
   110    19    16    1
   111   155   154    2
   112    95    92   am
   113    92    91    1
   114    16    15    1
   115    85    84    2
   116   191   193   am
   117   191   190    1
   118   189   188    2
   119   180   181   ar
   120   180   178   ar
   121   211   210   ar
   122    91    90    1
   123    91    94    1
   124    15    11   am
   125     8     6    1
   126   183   181   ar
   127   183   185   ar
   128   187   190    1
   129   187   188    1
   130   187   186    1
   131   154   153    1
   132     4     3    2
   133   158   157    2
   134    84    83    1
   135   181   179   ar
   136   178   177   ar
   137   153   156    1
   138   153   152    1
   139    11    12    2
   140    11    10    1
   141   208   207    2
   142   205   206    1
   143   157   156    1
   144   157   159   am
   145   206   207    1
   146   206   209    1
   147     3     2    1
   148     3     9   am
   149   151   150    2
   150     2     1    1
   151     2     5    1
   152   185   184   ar
   153   210   209    1
   154   210   212   ar
   155    83    86    1
   156    83    82    1
   157     6     5    1
   158     6     7    1
   159    10     9    1
   160    10    13    1
   161    86    87    1
   162    78    77    2
   163   152   150   am
   164   179   177   ar
   165   179   182   ar
   166   177   176    1
   167   150   149    1
   168    89    87   am
   169    87    88    2
   170   175   174    2
   171   184   182   ar
   172    82    77   am
   173    77    76    1
   174    13    14    1
   175   176   173    1
   176   142   143   ar
   177   142   140   ar
   178   149   148    1
   179   174   173    1
   180   173   172    1
   181   145   143   ar
   182   145   147   ar
   183   143   141   ar
   184   140   139   ar
   185    76    75    1
   186    76    79    1
   187   137   136    2
   188    81    79    1
   189   147   146   ar
   190    79    80    1
   191   139   141   ar
   192   139   138    1
   193   141   144   ar
   194    64    63    2
   195   136   135    1
   196    69    67   ar
   197    69    70   ar
   198   146   144   ar
   199    67    66   ar
   200   135   138    1
   201   135   134    1
   202    63    62    1
   203    70    72   ar
   204    70    68   ar
   205    72    74   ar
   206   133   131   am
   207    66    68   ar
   208    66    65    1
   209    62    65    1
   210    62    61    1
   211    68    71   ar
   212    74    73   ar
   213   128   127    2
   214   131   132    2
   215   131   130    1
   216    71    73   ar
   217   130   129    1
   218   127   126    1
   219   126   129    1
   220   126   125    1
   221    53    52    2
   222    60    58   ar
   223    60    59   ar
   224    58    56   ar
   225    52    51    1
   226    59    57   ar
   227    56    55   ar
   228    57    55   ar
   229    55    54    1
   230    51    54    1
   231    51    50    1
