@<TRIPOS>MOLECULE
tmp/4ba5A00.pdb
 139 132 0 0 0
SMALL
GASTEIGER

@<TRIPOS>ATOM
      1  N         54.5810   -2.2370   -6.6550 N.3    27  LEU27      -0.1231
      2  CA        54.0980   -1.3650   -5.5710 C.3    27  LEU27       0.1693
      3  C         53.0860   -2.1130   -4.7110 C.2    27  LEU27       0.2592
      4  O         52.8980   -1.7870   -3.5420 O.2    27  LEU27      -0.2718
      5  CB        53.5220   -0.0340   -6.0950 C.3    27  LEU27       0.0284
      6  CG        54.5300    0.8930   -6.7860 C.3    27  LEU27       0.0019
      7  CD1       53.8310    1.9830   -7.5710 C.3    27  LEU27       0.0001
      8  CD2       55.4830    1.5290   -5.7690 C.3    27  LEU27       0.0001
      9  N         52.4500   -3.1210   -5.3050 N.am   28  TRP28      -0.1976
     10  CA        51.6230   -4.0950   -4.6110 C.3    28  TRP28       0.1640
     11  C         52.4310   -5.3500   -4.3770 C.2    28  TRP28       0.2290
     12  O         51.8930   -6.4300   -4.1140 O.2    28  TRP28      -0.2864
     13  CB        50.4120   -4.4320   -5.4670 C.3    28  TRP28       0.0576
     14  CG        49.3840   -3.3340   -5.6600 C.ar   28  TRP28       0.0006
     15  CD1       48.1010   -3.2600   -5.1010 C.ar   28  TRP28       0.0946
     16  CD2       49.4800   -2.1590   -6.5460 C.ar   28  TRP28       0.0152
     17  NE1       47.4410   -2.1350   -5.5390 N.ar   28  TRP28      -0.2442
     18  CE2       48.2120   -1.4320   -6.4050 C.ar   28  TRP28       0.0810
     19  CE3       50.4660   -1.6390   -7.3940 C.ar   28  TRP28       0.0012
     20  CZ2       47.9520   -0.2590   -7.1050 C.ar   28  TRP28       0.0191
     21  CZ3       50.1890   -0.4450   -8.0930 C.ar   28  TRP28       0.0001
     22  CH2       48.9610    0.2210   -7.9490 C.ar   28  TRP28       0.0015
     23  N         48.8040   -7.7070    6.9390 N.3    87  SER87      -0.1202
     24  CA        49.0450   -6.6000    5.9920 C.3    87  SER87       0.2020
     25  C         50.2030   -5.7550    6.4620 C.2    87  SER87       0.2619
     26  O         50.6020   -5.8520    7.6260 O.2    87  SER87      -0.2717
     27  CB        47.8160   -5.7030    5.8640 C.3    87  SER87       0.2103
     28  OG        47.5540   -5.0110    7.0920 O.3    87  SER87      -0.2182
     29  N         50.7200   -4.9240    5.5580 N.am   88  GLY88      -0.1942
     30  CA        51.7590   -3.9410    5.9140 C.3    88  GLY88       0.2014
     31  C         51.2260   -2.9410    6.9380 C.2    88  GLY88       0.2639
     32  O         51.9690   -2.5120    7.8470 O.2    88  GLY88      -0.2714
     33  N         49.9500   -2.5750    6.7960 N.am   89  SER89      -0.1949
     34  CA        49.3290   -1.5970    7.7270 C.3    89  SER89       0.1924
     35  C         49.3110   -2.1830    9.1370 C.2    89  SER89       0.2314
     36  O         49.6810   -1.5000   10.1150 O.2    89  SER89      -0.2863
     37  CB        47.9280   -1.2040    7.2560 C.3    89  SER89       0.2116
     38  OG        48.0000   -0.5280    6.0150 O.3    89  SER89      -0.2180
     39  N         52.9510   -2.3060   10.5540 N.3    92  VAL92      -0.1245
     40  CA        53.2970   -0.9630   11.0610 C.3    92  VAL92       0.1561
     41  C         52.6870   -0.7060   12.4370 C.2    92  VAL92       0.2260
     42  O         53.3830   -0.2980   13.3830 O.2    92  VAL92      -0.2867
     43  CB        52.9720    0.1520   10.0250 C.3    92  VAL92       0.0252
     44  CG1       53.1200    1.5330   10.6930 C.3    92  VAL92       0.0019
     45  CG2       53.9630    0.0440    8.8630 C.3    92  VAL92       0.0019
     46  N         54.8710    7.2200    3.9080 N.3   121  TYR121     -0.1227
     47  CA        53.6450    6.4530    3.9300 C.3   121  TYR121      0.1736
     48  C         53.8510    5.1390    4.6500 C.2   121  TYR121      0.2595
     49  O         54.7900    4.3960    4.3310 O.2   121  TYR121     -0.2718
     50  CB        53.0830    6.2150    2.5130 C.3   121  TYR121      0.0548
     51  CG        51.7180    5.6060    2.5920 C.ar  121  TYR121     -0.0200
     52  CD1       50.6330    6.3770    3.0110 C.ar  121  TYR121     -0.0009
     53  CD2       51.5020    4.2510    2.3030 C.ar  121  TYR121     -0.0009
     54  CE1       49.3580    5.8260    3.1180 C.ar  121  TYR121      0.0417
     55  CE2       50.2280    3.6880    2.4100 C.ar  121  TYR121      0.0417
     56  CZ        49.1690    4.4800    2.8290 C.ar  121  TYR121      0.1957
     57  OH        47.9000    3.9570    2.9590 O.3   121  TYR121     -0.2866
     58  N         52.9950    4.8390    5.6340 N.am  122  HIS122     -0.1961
     59  CA        53.1460    3.6530    6.4290 C.3   122  HIS122      0.1787
     60  C         51.8510    2.9320    6.6430 C.2   122  HIS122      0.2620
     61  O         51.6420    2.3350    7.6920 O.2   122  HIS122     -0.2715
     62  CB        53.7970    3.9880    7.7830 C.3   122  HIS122      0.0785
     63  CG        55.1200    4.6880    7.6370 C.ar  122  HIS122      0.0821
     64  ND1       56.2080    4.0750    7.1090 N.ar  122  HIS122     -0.2267
     65  CD2       55.4930    6.0100    7.8970 C.ar  122  HIS122      0.1154
     66  CE1       57.2410    4.9590    7.0700 C.ar  122  HIS122      0.1986
     67  NE2       56.7880    6.1480    7.5360 N.ar  122  HIS122     -0.2212
     68  N         50.9720    2.9930    5.6460 N.am  123  GLY123     -0.1954
     69  CA        49.7010    2.2890    5.7320 C.3   123  GLY123      0.1869
     70  C         48.5430    3.1000    6.2890 C.2   123  GLY123      0.2309
     71  O         48.6570    4.3240    6.5100 O.2   123  GLY123     -0.2863
     72  N         60.8390    4.6170    5.2640 N.3   194  GLU194     -0.1245
     73  CA        61.0560    3.7960    4.0860 C.3   194  GLU194      0.1567
     74  C         62.4120    4.1780    3.4860 C.2   194  GLU194      0.2260
     75  O         62.6870    5.3590    3.2860 O.2   194  GLU194     -0.2867
     76  CB        59.9930    4.0900    3.0000 C.3   194  GLU194      0.0388
     77  CG        58.5640    4.1690    3.5110 C.3   194  GLU194      0.1160
     78  CD        57.7470    5.0650    2.6110 C.2   194  GLU194      0.3649
     79  OE1       57.3440    4.5650    1.5250 O.co2 194  GLU194     -0.2457
     80  OE2       57.5570    6.2630    2.9670 O.co2 194  GLU194     -0.2457
     81  N         54.9900    5.4680   -2.0440 N.3   199  ALA199     -0.1245
     82  CA        53.7690    6.2640   -2.3280 C.3   199  ALA199      0.1562
     83  C         54.0240    7.7700   -2.4880 C.2   199  ALA199      0.2260
     84  O         53.3190    8.4340   -3.2390 O.2   199  ALA199     -0.2867
     85  CB        52.6910    6.0030   -1.2660 C.3   199  ALA199      0.0290
     86  N         60.8670    0.7900    7.0340 N.3   227  ASP227     -0.1239
     87  CA        59.6290    0.2730    6.4880 C.3   227  ASP227      0.1674
     88  C         59.9670   -0.2510    5.0950 C.2   227  ASP227      0.2266
     89  O         60.1760    0.5360    4.1730 O.2   227  ASP227     -0.2867
     90  CB        58.5240    1.3430    6.4580 C.3   227  ASP227      0.1410
     91  CG        57.1810    0.7720    5.9910 C.2   227  ASP227      0.3668
     92  OD1       57.1860   -0.3910    5.5470 O.co2 227  ASP227     -0.2456
     93  OD2       56.1490    1.4710    6.0750 O.co2 227  ASP227     -0.2456
     94  N         58.1320   -2.2820    3.2070 N.3   229  VAL229     -0.1231
     95  CA        56.9100   -2.8070    2.5710 C.3   229  VAL229      0.1692
     96  C         56.9920   -2.7250    1.0300 C.2   229  VAL229      0.2591
     97  O         56.4660   -3.6090    0.3280 O.2   229  VAL229     -0.2718
     98  CB        55.6100   -2.1490    3.1490 C.3   229  VAL229      0.0266
     99  CG1       54.3970   -2.3630    2.2210 C.3   229  VAL229      0.0020
    100  CG2       55.2960   -2.7260    4.5340 C.3   229  VAL229      0.0020
    101  N         57.6390   -1.6820    0.5130 N.am  230  ILE230     -0.1980
    102  CA        57.9260   -1.5880   -0.9440 C.3   230  ILE230      0.1595
    103  C         59.3600   -2.0270   -1.3110 C.2   230  ILE230      0.2287
    104  O         59.5860   -2.7000   -2.3280 O.2   230  ILE230     -0.2864
    105  CB        57.6040   -0.1880   -1.4940 C.3   230  ILE230      0.0276
    106  CG1       56.0840   -0.0090   -1.5090 C.3   230  ILE230      0.0022
    107  CG2       58.1540   -0.0050   -2.9230 C.3   230  ILE230      0.0022
    108  CD1       55.6720    1.3820   -1.9100 C.3   230  ILE230      0.0001
    109  N         55.3840   -6.4930    4.0010 N.3   255  ALA255     -0.1231
    110  CA        54.0090   -6.9230    3.8020 C.3   255  ALA255      0.1694
    111  C         53.8980   -7.9380    2.6870 C.2   255  ALA255      0.2591
    112  O         54.4770   -9.0130    2.8030 O.2   255  ALA255     -0.2718
    113  CB        53.1120   -5.7450    3.5490 C.3   255  ALA255      0.0304
    114  N         53.1580   -7.6210    1.6230 N.am  256  LYS256     -0.1980
    115  CA        52.9100   -8.6370    0.5790 C.3   256  LYS256      0.1596
    116  C         54.1510   -9.0350   -0.2490 C.2   256  LYS256      0.2287
    117  O         54.1000   -9.9570   -1.0650 O.2   256  LYS256     -0.2864
    118  CB        51.7580   -8.2120   -0.3300 C.3   256  LYS256      0.0298
    119  CG        50.3690   -8.3990    0.2770 C.3   256  LYS256      0.0038
    120  CD        49.2860   -8.0490   -0.7690 C.3   256  LYS256      0.0206
    121  CE        49.4650   -6.6400   -1.3140 C.3   256  LYS256      0.1093
    122  NZ        48.5560   -5.6560   -0.6580 N.3   256  LYS256     -0.1314
    123  N         52.6500    4.4620  -12.1530 N.3   384  ARG384     -0.1245
    124  CA        51.9600    5.1280  -11.0540 C.3   384  ARG384      0.1563
    125  C         52.2780    6.6180  -11.1100 C.2   384  ARG384      0.2260
    126  O         53.4490    7.0060  -11.2780 O.2   384  ARG384     -0.2867
    127  CB        52.4540    4.5270   -9.7230 C.3   384  ARG384      0.0307
    128  CG        51.3980    4.3630   -8.6380 C.3   384  ARG384      0.0489
    129  CD        50.9430    5.6880   -8.0510 C.3   384  ARG384      0.2205
    130  NE        50.4580    5.5210   -6.6800 N.pl3 384  ARG384     -0.0865
    131  CZ        49.8530    6.4690   -5.9690 C.cat 384  ARG384      0.5346
    132  NH1       49.6410    7.6730   -6.4880 N.pl3 384  ARG384      0.1354
    133  NH2       49.4580    6.2110   -4.7300 N.pl3 384  ARG384      0.1354
    134  N         52.4100    9.8720   -8.8140 N.3   386  CYS386     -0.1235
    135  CA        52.3670   10.2980   -7.4200 C.3   386  CYS386      0.1677
    136  C         52.6280   11.7950   -7.4650 C.2   386  CYS386      0.2270
    137  O         53.7970   12.2340   -7.5830 O.2   386  CYS386     -0.2867
    138  CB        53.4530    9.5860   -6.5770 C.3   386  CYS386      0.0956
    139  SG        53.4340    7.7630   -6.6090 S.3   386  CYS386     -0.0801
@<TRIPOS>BOND
     1   123   124    1
     2   126   125    2
     3   125   124    1
     4   124   127    1
     5   127   128    1
     6   134   135    1
     7   128   129    1
     8    21    22   ar
     9    21    19   ar
    10   129   130    1
    11    22    20   ar
    12   137   136    2
    13     7     6    1
    14   136   135    1
    15   135   138    1
    16    19    16   ar
    17    20    18   ar
    18     6     5    1
    19     6     8    1
    20   130   131    2
    21     1     2    1
    22   139   138    1
    23    16    18   ar
    24    16    14   ar
    25   132   131    1
    26    18    17   ar
    27     5     2    1
    28   131   133    1
    29    14    13    1
    30    14    15   ar
    31     2     3    1
    32    17    15   ar
    33    13    10    1
    34     9     3   am
    35     9    10    1
    36     3     4    2
    37    10    11    1
    38    11    12    2
    39    84    83    2
    40   107   105    1
    41    83    82    1
    42    82    81    1
    43    82    85    1
    44   104   103    2
    45   108   106    1
    46   106   105    1
    47   105   102    1
    48   121   120    1
    49   121   122    1
    50   103   102    1
    51   117   116    2
    52   102   101    1
    53   120   119    1
    54   118   119    1
    55   118   115    1
    56   116   115    1
    57    97    96    2
    58   101    96   am
    59   115   114    1
    60    96    95    1
    61    79    78   ar
    62   114   111   am
    63    99    98    1
    64    53    55   ar
    65    53    51   ar
    66    55    56   ar
    67    50    51    1
    68    50    47    1
    69    95    98    1
    70    95    94    1
    71    51    52   ar
    72    78    80   ar
    73    78    77    1
    74   111   112    2
    75   111   110    1
    76    56    57    1
    77    56    54   ar
    78    76    77    1
    79    76    73    1
    80    52    54   ar
    81    98   100    1
    82    75    74    2
    83    74    73    1
    84   113   110    1
    85   110   109    1
    86    46    47    1
    87    47    48    1
    88    73    72    1
    89    89    88    2
    90    49    48    2
    91    48    58   am
    92    88    87    1
    93    92    91   ar
    94    29    30    1
    95    29    25   am
    96    58    59    1
    97    68    69    1
    98    68    60   am
    99    69    70    1
   100    27    24    1
   101    27    28    1
   102    30    31    1
   103    91    93   ar
   104    91    90    1
   105    24    25    1
   106    24    23    1
   107    38    37    1
   108    70    71    2
   109    59    60    1
   110    59    62    1
   111    90    87    1
   112    25    26    2
   113    87    86    1
   114    60    61    2
   115    33    31   am
   116    33    34    1
   117    31    32    2
   118    66    64   ar
   119    66    67   ar
   120    64    63   ar
   121    37    34    1
   122    67    65   ar
   123    63    62    1
   124    63    65   ar
   125    34    35    1
   126    45    43    1
   127    35    36    2
   128    43    44    1
   129    43    40    1
   130    39    40    1
   131    40    41    1
   132    41    42    2
