@<TRIPOS>MOLECULE
tmp/4baeD00.pdb
 137 124 0 0 0
SMALL
GASTEIGER

@<TRIPOS>ATOM
      1  N          7.1460   -9.8550   40.3630 N.3    28  VAL28      -0.1245
      2  CA         6.0000   -9.5640   39.5010 C.3    28  VAL28       0.1561
      3  C          6.0100   -8.1060   39.0020 C.2    28  VAL28       0.2260
      4  O          5.8610   -7.8630   37.7990 O.2    28  VAL28      -0.2867
      5  CB         4.6540   -9.9880   40.1650 C.3    28  VAL28       0.0252
      6  CG1        3.4480   -9.6280   39.2850 C.3    28  VAL28       0.0019
      7  CG2        4.6500  -11.4960   40.4730 C.3    28  VAL28       0.0019
      8  N          8.7790   -7.2360   36.2890 N.3    31  ASN31      -0.1225
      9  CA         8.3890   -7.6610   34.9410 C.3    31  ASN31       0.1785
     10  C          7.5500   -6.6180   34.2380 C.2    31  ASN31       0.2597
     11  O          7.7310   -6.4190   33.0420 O.2    31  ASN31      -0.2718
     12  CB         7.6740   -8.9850   34.9850 C.3    31  ASN31       0.1169
     13  CG         8.5550  -10.1320   35.4340 C.2    31  ASN31       0.2627
     14  OD1        9.5910  -10.4110   34.8420 O.2    31  ASN31      -0.2716
     15  ND2        8.1530  -10.8450   36.4720 N.am   31  ASN31      -0.0877
     16  N          6.6590   -5.9280   34.9920 N.am   32  ALA32      -0.1979
     17  CA         5.7940   -4.8360   34.5230 C.3    32  ALA32       0.1597
     18  C          6.6050   -3.5460   34.2770 C.2    32  ALA32       0.2287
     19  O          6.3440   -2.8680   33.2840 O.2    32  ALA32      -0.2864
     20  CB         4.6810   -4.5830   35.5260 C.3    32  ALA32       0.0319
     21  N          8.2660   -3.9350   31.1140 N.3    35  GLU35      -0.1245
     22  CA         7.3410   -3.6380   30.0030 C.3    35  GLU35       0.1567
     23  C          7.2000   -2.1550   29.7970 C.2    35  GLU35       0.2260
     24  O          6.9890   -1.7140   28.6620 O.2    35  GLU35      -0.2867
     25  CB         5.9550   -4.2540   30.1880 C.3    35  GLU35       0.0388
     26  CG         5.7170   -5.4080   29.2400 C.3    35  GLU35       0.1160
     27  CD         5.6930   -5.1880   27.7420 C.2    35  GLU35       0.3649
     28  OE1        4.6300   -4.7760   27.2230 O.co2  35  GLU35      -0.2457
     29  OE2        6.6790   -5.5810   27.0750 O.co2  35  GLU35      -0.2457
     30  N         -1.1720   -7.6210   40.7200 N.3    56  VAL56      -0.1245
     31  CA        -0.3430   -6.6220   40.0250 C.3    56  VAL56       0.1561
     32  C         -0.8820   -6.6020   38.6080 C.2    56  VAL56       0.2260
     33  O         -0.9070   -7.6330   37.9200 O.2    56  VAL56      -0.2867
     34  CB         1.1940   -6.9550   40.0580 C.3    56  VAL56       0.0252
     35  CG1        2.0100   -5.9980   39.1900 C.3    56  VAL56       0.0019
     36  CG2        1.7380   -6.9840   41.4830 C.3    56  VAL56       0.0019
     37  N         -0.7670   -4.3020   34.8890 N.3    58  ASP58      -0.1239
     38  CA        -0.0760   -3.3160   34.0730 C.3    58  ASP58       0.1674
     39  C         -0.9200   -3.0670   32.7930 C.2    58  ASP58       0.2266
     40  O         -1.8750   -3.8070   32.5430 O.2    58  ASP58      -0.2867
     41  CB         1.3840   -3.7250   33.7780 C.3    58  ASP58       0.1410
     42  CG         1.5840   -4.9660   32.9270 C.2    58  ASP58       0.3668
     43  OD1        1.1290   -4.9690   31.7630 O.co2  58  ASP58      -0.2456
     44  OD2        2.2990   -5.8810   33.3770 O.co2  58  ASP58      -0.2456
     45  N          1.7670   -4.7840   26.7230 N.3    61  ARG61      -0.1231
     46  CA         1.3330   -5.5900   25.5660 C.3    61  ARG61       0.1694
     47  C          0.5340   -6.8330   25.9620 C.2    61  ARG61       0.2593
     48  O         -0.2340   -7.3500   25.1490 O.2    61  ARG61      -0.2718
     49  CB         2.5420   -6.0360   24.7210 C.3    61  ARG61       0.0321
     50  CG         3.3190   -4.9300   24.0590 C.3    61  ARG61       0.0489
     51  CD         4.4930   -5.4910   23.2960 C.3    61  ARG61       0.2205
     52  NE         5.5950   -5.8460   24.1870 N.pl3  61  ARG61      -0.0865
     53  CZ         6.7560   -6.3450   23.7790 C.cat  61  ARG61       0.5346
     54  NH1        6.9780   -6.5610   22.4870 N.pl3  61  ARG61       0.1354
     55  NH2        7.7040   -6.6390   24.6590 N.pl3  61  ARG61       0.1354
     56  N          0.7720   -7.3200   27.1800 N.am   62  GLY62      -0.1942
     57  CA         0.1700   -8.5300   27.7150 C.3    62  GLY62       0.2014
     58  C          0.9990   -9.7440   27.3500 C.2    62  GLY62       0.2639
     59  O          1.4700   -9.8310   26.2120 O.2    62  GLY62      -0.2714
     60  N          1.2190  -10.6800   28.3170 N.am   63  ILE63      -0.1963
     61  CA         1.9910  -11.9210   28.0790 C.3    63  ILE63       0.1712
     62  C          1.3680  -12.7080   26.8940 C.2    63  ILE63       0.2458
     63  O          0.1620  -12.9590   26.9340 O.2    63  ILE63      -0.2730
     64  CB         2.1300  -12.8330   29.3440 C.3    63  ILE63       0.0289
     65  CG1        2.7630  -12.1010   30.5490 C.3    63  ILE63       0.0022
     66  CG2        2.8930  -14.1240   29.0190 C.3    63  ILE63       0.0023
     67  CD1        2.6150  -12.9120   31.9070 C.3    63  ILE63       0.0001
     68  N          2.1430  -13.0980   25.8430 N.am   64  PRO64      -0.2727
     69  CA         1.5400  -13.8390   24.7160 C.3    64  PRO64       0.1402
     70  C          0.7870  -15.1050   25.1270 C.2    64  PRO64       0.2269
     71  O          1.2400  -15.8410   26.0040 O.2    64  PRO64      -0.2865
     72  CB         2.7370  -14.1420   23.8130 C.3    64  PRO64       0.0296
     73  CG         3.7100  -13.0630   24.1280 C.3    64  PRO64       0.0237
     74  CD         3.5810  -12.8660   25.6040 C.3    64  PRO64       0.0939
     75  N         -0.7010  -17.2780   22.6200 N.3    66  GLU66      -0.1245
     76  CA        -0.5430  -18.2360   21.5220 C.3    66  GLU66       0.1567
     77  C          0.3920  -19.3940   21.8470 C.2    66  GLU66       0.2260
     78  O          1.3420  -19.2100   22.6080 O.2    66  GLU66      -0.2867
     79  CB        -0.1780  -17.5320   20.2030 C.3    66  GLU66       0.0388
     80  CG         1.2320  -16.9840   20.0760 C.3    66  GLU66       0.1160
     81  CD         1.4470  -16.2350   18.7730 C.2    66  GLU66       0.3649
     82  OE1        1.4170  -16.8790   17.6990 O.co2  66  GLU66      -0.2457
     83  OE2        1.6220  -14.9970   18.8270 O.co2  66  GLU66      -0.2457
     84  N          2.3370  -19.8260   25.3690 N.3    74  THR74      -0.1218
     85  CA         3.4840  -18.9870   25.7580 C.3    74  THR74       0.1862
     86  C          3.4310  -18.5740   27.2530 C.2    74  THR74       0.2287
     87  O          4.4570  -18.5530   27.9350 O.2    74  THR74      -0.2866
     88  CB         3.6060  -17.7880   24.8010 C.3    74  THR74       0.1770
     89  OG1        3.4340  -18.2220   23.4530 O.3    74  THR74      -0.2211
     90  CG2        4.9220  -17.0600   24.9380 C.3    74  THR74       0.0375
     91  N          6.1240  -19.2490   30.3360 N.3    78  VAL78      -0.1245
     92  CA         6.5470  -18.1690   31.2180 C.3    78  VAL78       0.1561
     93  C          6.3610  -18.6000   32.6730 C.2    78  VAL78       0.2260
     94  O          7.3070  -18.5190   33.4600 O.2    78  VAL78      -0.2867
     95  CB         5.7690  -16.8490   30.8920 C.3    78  VAL78       0.0252
     96  CG1        5.9610  -15.8000   31.9750 C.3    78  VAL78       0.0019
     97  CG2        6.1770  -16.2770   29.5350 C.3    78  VAL78       0.0019
     98  N         12.7860  -12.5630   33.0890 N.3    85  VAL85      -0.1245
     99  CA        11.4350  -12.9560   33.5060 C.3    85  VAL85       0.1561
    100  C         11.5650  -14.2400   34.3530 C.2    85  VAL85       0.2260
    101  O         12.0320  -15.2590   33.8490 O.2    85  VAL85      -0.2867
    102  CB        10.4660  -13.1180   32.2890 C.3    85  VAL85       0.0252
    103  CG1        9.1750  -13.8210   32.6830 C.3    85  VAL85       0.0019
    104  CG2       10.1450  -11.7610   31.6620 C.3    85  VAL85       0.0019
    105  N          8.8710  -15.0210   36.8420 N.3    87  VAL87      -0.1245
    106  CA         7.5350  -15.1650   37.4480 C.3    87  VAL87       0.1561
    107  C          7.1730  -16.6670   37.7660 C.2    87  VAL87       0.2260
    108  O          6.3060  -16.9100   38.6050 O.2    87  VAL87      -0.2867
    109  CB         6.4600  -14.4560   36.5930 C.3    87  VAL87       0.0252
    110  CG1        6.3170  -15.1340   35.2360 C.3    87  VAL87       0.0019
    111  CG2        5.1180  -14.3910   37.3210 C.3    87  VAL87       0.0019
    112  N         -5.2390   -9.0970   25.2850 N.3   103  ARG103     -0.1245
    113  CA        -4.5600   -9.0180   23.9850 C.3   103  ARG103      0.1563
    114  C         -5.3020   -9.7910   22.8870 C.2   103  ARG103      0.2260
    115  O         -6.1220  -10.6630   23.1880 O.2   103  ARG103     -0.2867
    116  CB        -3.0590   -9.4010   24.0580 C.3   103  ARG103      0.0307
    117  CG        -2.7400  -10.8410   24.4510 C.3   103  ARG103      0.0489
    118  CD        -1.2390  -11.1040   24.4220 C.3   103  ARG103      0.2205
    119  NE        -0.7510  -11.3180   23.0560 N.pl3 103  ARG103     -0.0865
    120  CZ         0.2840  -10.6870   22.5080 C.cat 103  ARG103      0.5346
    121  NH1        0.9780   -9.8010   23.2110 N.pl3 103  ARG103      0.1354
    122  NH2        0.6420  -10.9490   21.2580 N.pl3 103  ARG103      0.1354
    123  N         -1.4230   -7.0840   31.5310 N.3   131  THR131     -0.1218
    124  CA        -1.2160   -8.3320   32.2680 C.3   131  THR131      0.1862
    125  C         -1.6350   -8.1350   33.7150 C.2   131  THR131      0.2287
    126  O         -1.1700   -7.2050   34.3710 O.2   131  THR131     -0.2866
    127  CB         0.2860   -8.8040   32.1880 C.3   131  THR131      0.1770
    128  OG1        0.6450   -9.0610   30.8350 O.3   131  THR131     -0.2211
    129  CG2        0.5630  -10.0710   32.9910 C.3   131  THR131      0.0375
    130  N         -1.7050  -10.2830   37.3710 N.3   133  ILE133     -0.1245
    131  CA        -1.1830  -11.4440   38.0840 C.3   133  ILE133      0.1561
    132  C         -1.6410  -11.3580   39.5180 C.2   133  ILE133      0.2260
    133  O         -1.3310  -10.3830   40.2120 O.2   133  ILE133     -0.2867
    134  CB         0.3790  -11.6420   38.0180 C.3   133  ILE133      0.0252
    135  CG1        0.9360  -11.6720   36.5590 C.3   133  ILE133      0.0019
    136  CG2        0.8240  -12.8750   38.8340 C.3   133  ILE133      0.0019
    137  CD1        0.4710  -12.8210   35.6780 C.3   133  ILE133      0.0001
@<TRIPOS>BOND
     1    82    81   ar
     2    81    83   ar
     3    81    80    1
     4    80    79    1
     5    79    76    1
     6   122   120    1
     7    76    77    1
     8    76    75    1
     9    77    78    2
    10    54    53    1
    11   120   119    2
    12   120   121    1
    13   114   115    2
    14   114   113    1
    15   119   118    1
    16    51    50    1
    17    51    52    1
    18    89    88    1
    19    53    52    2
    20    53    55    1
    21    72    73    1
    22    72    69    1
    23   113   116    1
    24   113   112    1
    25   116   117    1
    26    50    49    1
    27    73    74    1
    28   118   117    1
    29    69    70    1
    30    69    68    1
    31    49    46    1
    32    88    90    1
    33    88    85    1
    34    70    71    2
    35    48    47    2
    36    84    85    1
    37    46    47    1
    38    46    45    1
    39    74    68    1
    40    85    86    1
    41    68    62   am
    42    47    56   am
    43    59    58    2
    44    62    63    2
    45    62    61    1
    46    29    27   ar
    47    56    57    1
    48    28    27   ar
    49    86    87    2
    50    58    57    1
    51    58    60   am
    52    27    26    1
    53    61    60    1
    54    61    64    1
    55    24    23    2
    56    66    64    1
    57    26    25    1
    58    64    65    1
    59    97    95    1
    60    23    22    1
    61    22    25    1
    62    22    21    1
    63    91    92    1
    64    65    67    1
    65   128   127    1
    66    95    92    1
    67    95    96    1
    68    92    93    1
    69   123   124    1
    70   104   102    1
    71    43    42   ar
    72   127   124    1
    73   127   129    1
    74   124   125    1
    75   102   103    1
    76   102    99    1
    77    40    39    2
    78    93    94    2
    79    39    38    1
    80    42    44   ar
    81    42    41    1
    82    11    10    2
    83    98    99    1
    84    19    18    2
    85    99   100    1
    86   125   126    2
    87    41    38    1
    88   101   100    2
    89    38    37    1
    90    10     9    1
    91    10    16   am
    92    18    17    1
    93    17    16    1
    94    17    20    1
    95    14    13    2
    96     9    12    1
    97     9     8    1
    98    12    13    1
    99   110   109    1
   100    13    15   am
   101   137   135    1
   102   135   134    1
   103   109   111    1
   104   109   106    1
   105   105   106    1
   106   130   131    1
   107   106   107    1
   108   107   108    2
   109     4     3    2
   110    33    32    2
   111   134   131    1
   112   134   136    1
   113   131   132    1
   114    32    31    1
   115     3     2    1
   116    35    34    1
   117     6     5    1
   118     2     5    1
   119     2     1    1
   120   132   133    2
   121    31    34    1
   122    31    30    1
   123    34    36    1
   124     5     7    1
