@<TRIPOS>MOLECULE
tmp/4baoB02.pdb
 205 205 0 0 0
SMALL
GASTEIGER

@<TRIPOS>ATOM
      1  N         22.6860   -5.9950   17.9940 N.3    43  HIS43      -0.1241
      2  CA        22.5180   -7.3590   17.5310 C.3    43  HIS43       0.1621
      3  C         21.7780   -7.4530   16.2170 C.2    43  HIS43       0.2264
      4  O         21.8210   -8.4920   15.5820 O.2    43  HIS43      -0.2867
      5  CB        21.9540   -8.2860   18.6130 C.3    43  HIS43       0.0745
      6  CG        20.4700   -8.2880   18.6920 C.ar   43  HIS43       0.0817
      7  ND1       19.7940   -7.4850   19.5990 N.ar   43  HIS43      -0.2268
      8  CD2       19.5680   -9.0010   17.9720 C.ar   43  HIS43       0.1154
      9  CE1       18.5060   -7.7270   19.3930 C.ar   43  HIS43       0.1986
     10  NE2       18.3240   -8.6530   18.4380 N.ar   43  HIS43      -0.2212
     11  N         25.8210  -10.0240   14.9940 N.3    47  TYR47      -0.1241
     12  CA        25.5290  -11.1300   15.8810 C.3    47  TYR47       0.1605
     13  C         26.2470  -12.4170   15.4130 C.2    47  TYR47       0.2264
     14  O         25.6170  -13.2830   14.7860 O.2    47  TYR47      -0.2867
     15  CB        24.0300  -11.3230   16.1210 C.3    47  TYR47       0.0534
     16  CG        23.7600  -12.1510   17.3460 C.ar   47  TYR47      -0.0201
     17  CD1       24.2550  -11.7710   18.5930 C.ar   47  TYR47      -0.0009
     18  CD2       23.0540  -13.3420   17.2570 C.ar   47  TYR47      -0.0009
     19  CE1       24.0430  -12.5580   19.7240 C.ar   47  TYR47       0.0417
     20  CE2       22.8400  -14.1390   18.3790 C.ar   47  TYR47       0.0417
     21  CZ        23.3490  -13.7480   19.6070 C.ar   47  TYR47       0.1957
     22  OH        23.1340  -14.5360   20.7040 O.3    47  TYR47      -0.2866
     23  N         24.8310  -16.1790   14.9730 N.3    50  TRP50      -0.1241
     24  CA        23.9250  -16.4570   13.8450 C.3    50  TRP50       0.1605
     25  C         24.4890  -15.9960   12.5100 C.2    50  TRP50       0.2264
     26  O         23.7420  -15.9100   11.5240 O.2    50  TRP50      -0.2867
     27  CB        22.5470  -15.8050   14.0770 C.3    50  TRP50       0.0550
     28  CG        21.8150  -16.2290   15.3200 C.ar   50  TRP50       0.0003
     29  CD1       22.0720  -17.3170   16.1110 C.ar   50  TRP50       0.0946
     30  CD2       20.6360  -15.6120   15.8540 C.ar   50  TRP50       0.0152
     31  NE1       21.1460  -17.3900   17.1310 N.ar   50  TRP50      -0.2442
     32  CE2       20.2590  -16.3490   17.0030 C.ar   50  TRP50       0.0810
     33  CE3       19.8670  -14.4940   15.4800 C.ar   50  TRP50       0.0012
     34  CZ2       19.1550  -15.9950   17.7890 C.ar   50  TRP50       0.0191
     35  CZ3       18.7730  -14.1440   16.2600 C.ar   50  TRP50       0.0001
     36  CH2       18.4220  -14.8940   17.3940 C.ar   50  TRP50       0.0015
     37  N         27.7400  -13.0500   25.6330 N.3    94  GLU94      -0.1182
     38  CA        27.0330  -13.5470   26.8000 C.3    94  GLU94       0.1915
     39  C         25.5660  -13.1510   26.9590 C.2    94  GLU94       0.2634
     40  O         24.6750  -14.0160   26.9610 O.2    94  GLU94      -0.2714
     41  CB        27.8630  -13.1400   28.0480 C.2    94  GLU94       0.0085
     42  CG        27.3130  -13.5740   29.3980 C.2    94  GLU94       0.0835
     43  CD        27.8820  -12.8650   30.6190 C.2    94  GLU94       0.3877
     44  OE1       28.7800  -12.0040   30.4630 O.co2  94  GLU94      -0.2406
     45  OE2       27.4080  -13.1590   31.7390 O.co2  94  GLU94      -0.2406
     46  N         25.3210  -11.8430   27.1630 N.am   95  ASN95      -0.1958
     47  CA        24.0020  -11.3600   27.5610 C.3    95  ASN95       0.1819
     48  C         23.5100  -10.1600   26.8130 C.2    95  ASN95       0.2621
     49  O         22.5490   -9.5500   27.2650 O.2    95  ASN95      -0.2715
     50  CB        24.0650  -11.0360   29.0590 C.3    95  ASN95       0.1195
     51  CG        25.1590  -10.0470   29.4290 C.2    95  ASN95       0.2630
     52  OD1       25.9470   -9.5730   28.5820 O.2    95  ASN95      -0.2716
     53  ND2       25.2390   -9.7180   30.7080 N.am   95  ASN95      -0.0877
     54  N         24.1900   -9.7660   25.7200 N.am   96  LEU96      -0.1977
     55  CA        23.7990   -8.6040   24.9040 C.3    96  LEU96       0.1596
     56  C         23.9120   -7.2870   25.6790 C.2    96  LEU96       0.2287
     57  O         23.1500   -6.3290   25.4340 O.2    96  LEU96      -0.2864
     58  CB        22.4080   -8.8030   24.2710 C.3    96  LEU96       0.0297
     59  CG        22.3350   -9.3430   22.8340 C.3    96  LEU96       0.0022
     60  CD1       23.3540  -10.4440   22.5630 C.3    96  LEU96       0.0001
     61  CD2       20.9480   -9.8560   22.5350 C.3    96  LEU96       0.0001
     62  N          5.3470  -16.6930   19.3050 N.3   146  GLU146     -0.1245
     63  CA         6.6650  -17.3140   19.4670 C.3   146  GLU146      0.1567
     64  C          6.9630  -18.3730   18.3770 C.2   146  GLU146      0.2260
     65  O          8.0400  -18.3290   17.7730 O.2   146  GLU146     -0.2867
     66  CB         6.7760  -17.9320   20.8580 C.3   146  GLU146      0.0388
     67  CG         8.2050  -18.2370   21.2570 C.3   146  GLU146      0.1160
     68  CD         8.3210  -19.0400   22.5290 C.2   146  GLU146      0.3649
     69  OE1        7.8200  -18.5780   23.5800 O.co2 146  GLU146     -0.2457
     70  OE2        8.9840  -20.0990   22.4910 O.co2 146  GLU146     -0.2457
     71  N         20.3290  -15.8980   32.8610 N.3   173  ILE173     -0.1245
     72  CA        21.2340  -14.9130   32.2570 C.3   173  ILE173      0.1561
     73  C         21.5670  -13.8080   33.2540 C.2   173  ILE173      0.2260
     74  O         20.6880  -13.3480   33.9970 O.2   173  ILE173     -0.2867
     75  CB        20.6130  -14.3730   30.9210 C.3   173  ILE173      0.0252
     76  CG1       20.2040  -15.5240   29.9500 C.3   173  ILE173      0.0019
     77  CG2       21.4740  -13.3080   30.2200 C.3   173  ILE173      0.0019
     78  CD1       21.3590  -16.5710   29.5450 C.3   173  ILE173      0.0001
     79  N          4.2980   -8.8420   24.8220 N.3   193  ASP193     -0.1225
     80  CA         5.7560   -8.8640   24.7390 C.3   193  ASP193      0.1805
     81  C          6.2110   -8.5320   23.3560 C.2   193  ASP193      0.2598
     82  O          5.4500   -8.6570   22.3890 O.2   193  ASP193     -0.2718
     83  CB         6.2830  -10.2810   25.0930 C.3   193  ASP193      0.1424
     84  CG         7.7560  -10.3970   25.4510 C.2   193  ASP193      0.3668
     85  OD1        8.4290   -9.3370   25.5960 O.co2 193  ASP193     -0.2456
     86  OD2        8.2270  -11.5370   25.6420 O.co2 193  ASP193     -0.2456
     87  N          7.4920   -8.1490   23.2490 N.am  194  ALA194     -0.1966
     88  CA         8.1450   -7.9960   21.9760 C.3   194  ALA194      0.1728
     89  C          8.5400   -9.4220   21.5520 C.2   194  ALA194      0.2616
     90  O          8.4670  -10.3490   22.3450 O.2   194  ALA194     -0.2715
     91  CB         9.3920   -7.1350   22.1460 C.3   194  ALA194      0.0334
     92  N          8.9640   -9.6110   20.3260 N.am  195  CYS195     -0.1954
     93  CA         9.3500  -10.9460   19.8570 C.3   195  CYS195      0.1843
     94  C         10.3310  -10.7790   18.7320 C.2   195  CYS195      0.2625
     95  O         10.6940   -9.6380   18.4430 O.2   195  CYS195     -0.2714
     96  CB         8.1050  -11.7180   19.4060 C.3   195  CYS195      0.0997
     97  SG         8.3570  -13.5300   19.2570 S.3   195  CYS195     -0.0797
     98  N         10.7740  -11.8890   18.0830 N.am  196  GLU196     -0.1963
     99  CA        11.6860  -11.8230   16.9170 C.3   196  GLU196      0.1733
    100  C         11.1660  -10.8660   15.8570 C.2   196  GLU196      0.2616
    101  O          9.9850  -10.8930   15.5380 O.2   196  GLU196     -0.2715
    102  CB        11.8530  -13.2150   16.2880 C.3   196  GLU196      0.0429
    103  CG        13.1290  -13.8980   16.7430 C.3   196  GLU196      0.1163
    104  CD        13.1570  -14.5080   18.1360 C.2   196  GLU196      0.3649
    105  OE1       12.0780  -14.6440   18.7700 O.co2 196  GLU196     -0.2457
    106  OE2       14.2630  -14.8930   18.5750 O.co2 196  GLU196     -0.2457
    107  N         12.0550  -10.0490   15.3110 N.am  197  GLY197     -0.1955
    108  CA        11.7310   -9.0290   14.3220 C.3   197  GLY197      0.1869
    109  C         11.4220   -7.6670   14.9400 C.2   197  GLY197      0.2309
    110  O         11.5080   -6.6640   14.2350 O.2   197  GLY197     -0.2863
    111  N         13.2700   -6.5360   17.6050 N.3   199  SER199     -0.1217
    112  CA        14.5830   -6.0710   18.0760 C.3   199  SER199      0.1889
    113  C         14.9390   -4.7790   17.4300 C.2   199  SER199      0.2288
    114  O         14.6860   -4.6180   16.2420 O.2   199  SER199     -0.2866
    115  CB        15.6700   -7.0650   17.6730 C.3   199  SER199      0.2089
    116  OG        15.4640   -8.3260   18.2730 O.3   199  SER199     -0.2183
    117  N         14.3820   -2.6200   22.1250 N.3   219  VAL219     -0.1231
    118  CA        14.0450   -4.0520   22.2150 C.3   219  VAL219      0.1692
    119  C         15.3590   -4.8300   22.0530 C.2   219  VAL219      0.2593
    120  O         16.0420   -4.6360   21.0480 O.2   219  VAL219     -0.2718
    121  CB        12.9970   -4.4370   21.1530 C.3   219  VAL219      0.0266
    122  CG1       12.6460   -5.9300   21.2350 C.3   219  VAL219      0.0020
    123  CG2       11.7520   -3.5820   21.3250 C.3   219  VAL219      0.0020
    124  N         15.7480   -5.6220   23.0790 N.am  220  SER220     -0.1938
    125  CA        17.0200   -6.3290   23.0230 C.3   220  SER220      0.2055
    126  C         16.8780   -7.8470   22.9690 C.2   220  SER220      0.2643
    127  O         17.2430   -8.4630   21.9730 O.2   220  SER220     -0.2714
    128  CB        17.9120   -5.8950   24.1860 C.3   220  SER220      0.2130
    129  OG        19.1830   -6.5090   24.1160 O.3   220  SER220     -0.2179
    130  N         16.3890   -8.4580   24.0400 N.am  221  TRP221     -0.1959
    131  CA        16.2840   -9.9100   24.0600 C.3   221  TRP221      0.1771
    132  C         15.2230  -10.4190   24.9930 C.2   221  TRP221      0.2620
    133  O         14.5830   -9.6760   25.7230 O.2   221  TRP221     -0.2715
    134  CB        17.6690  -10.5380   24.4030 C.3   221  TRP221      0.0590
    135  CG        18.1860  -10.1960   25.7770 C.ar  221  TRP221      0.0006
    136  CD1       18.9270   -9.1080   26.1340 C.ar  221  TRP221      0.0946
    137  CD2       18.0340  -10.9870   26.9650 C.ar  221  TRP221      0.0152
    138  NE1       19.2030   -9.1450   27.4790 N.ar  221  TRP221     -0.2442
    139  CE2       18.7020  -10.3110   28.0060 C.ar  221  TRP221      0.0810
    140  CE3       17.3980  -12.2100   27.2480 C.ar  221  TRP221      0.0012
    141  CZ2       18.7400  -10.8080   29.3170 C.ar  221  TRP221      0.0191
    142  CZ3       17.4240  -12.6910   28.5540 C.ar  221  TRP221      0.0001
    143  CH2       18.1010  -12.0030   29.5640 C.ar  221  TRP221      0.0015
    144  N         15.0400  -11.7240   24.9420 N.am  222  GLY222     -0.1940
    145  CA        14.1170  -12.4570   25.7900 C.3   222  GLY222      0.2014
    146  C         14.3640  -13.9260   25.5500 C.2   222  GLY222      0.2639
    147  O         15.2090  -14.2860   24.7280 O.2   222  GLY222     -0.2714
    148  N         13.6270  -14.7670   26.2390 N.am  223  GLU223     -0.1963
    149  CA        13.7340  -16.2220   26.0840 C.3   223  GLU223      0.1733
    150  C         12.3400  -16.6860   25.7230 C.2   223  GLU223      0.2617
    151  O         11.4430  -16.7320   26.5640 O.2   223  GLU223     -0.2715
    152  CB        14.3140  -16.8500   27.3510 C.3   223  GLU223      0.0429
    153  CG        15.7770  -16.4750   27.5610 C.3   223  GLU223      0.1163
    154  CD        16.3050  -16.7840   28.9500 C.2   223  GLU223      0.3649
    155  OE1       15.8890  -16.1070   29.9200 O.co2 223  GLU223     -0.2457
    156  OE2       17.1470  -17.7040   29.0600 O.co2 223  GLU223     -0.2457
    157  N         12.1410  -16.8720   24.4250 N.am  224  GLY224     -0.1940
    158  CA        10.8220  -17.0990   23.8600 C.3   224  GLY224      0.2014
    159  C         10.0950  -15.7530   23.8230 C.2   224  GLY224      0.2639
    160  O         10.7320  -14.6940   23.9430 O.2   224  GLY224     -0.2714
    161  N          8.7600  -15.7690   23.6650 N.am  225  CYS225     -0.1967
    162  CA         7.9530  -14.5460   23.6050 C.3   225  CYS225      0.1712
    163  C          6.6930  -14.7410   24.3740 C.2   225  CYS225      0.2296
    164  O          5.9730  -15.7270   24.1530 O.2   225  CYS225     -0.2864
    165  CB         7.6430  -14.1220   22.1650 C.3   225  CYS225      0.0983
    166  SG         9.0830  -14.0250   21.0870 S.3   225  CYS225     -0.0798
    167  N         10.1310  -12.1610   31.0660 N.3   231  TYR231     -0.1227
    168  CA         9.9890  -10.7500   30.7120 C.3   231  TYR231      0.1736
    169  C         10.8860  -10.3980   29.5520 C.2   231  TYR231      0.2596
    170  O         11.9380  -10.9970   29.3840 O.2   231  TYR231     -0.2718
    171  CB        10.3670   -9.8460   31.9070 C.3   231  TYR231      0.0548
    172  CG         9.5610  -10.1420   33.1490 C.ar  231  TYR231     -0.0200
    173  CD1        8.2870   -9.6080   33.3180 C.ar  231  TYR231     -0.0009
    174  CD2       10.0370  -11.0190   34.1190 C.ar  231  TYR231     -0.0009
    175  CE1        7.4950   -9.9570   34.4080 C.ar  231  TYR231      0.0417
    176  CE2        9.2550  -11.3740   35.2200 C.ar  231  TYR231      0.0417
    177  CZ         7.9880  -10.8300   35.3640 C.ar  231  TYR231      0.1957
    178  OH         7.2160  -11.1410   36.4510 O.3   231  TYR231     -0.2866
    179  N         10.4990   -9.3740   28.8140 N.am  232  GLY232     -0.1942
    180  CA        11.3200   -8.8600   27.7250 C.3   232  GLY232      0.2014
    181  C         12.3760   -7.9500   28.3130 C.2   232  GLY232      0.2639
    182  O         12.0900   -7.2260   29.2680 O.2   232  GLY232     -0.2714
    183  N         13.5870   -7.9590   27.7300 N.am  233  PHE233     -0.1959
    184  CA        14.7150   -7.1310   28.1630 C.3   233  PHE233      0.1771
    185  C         15.0270   -6.0720   27.1440 C.2   233  PHE233      0.2619
    186  O         14.9070   -6.3020   25.9400 O.2   233  PHE233     -0.2715
    187  CB        15.9620   -7.9660   28.4540 C.3   233  PHE233      0.0574
    188  CG        15.8310   -8.7170   29.7520 C.ar  233  PHE233     -0.0200
    189  CD1       15.0150   -9.8440   29.8440 C.ar  233  PHE233     -0.0042
    190  CD2       16.4530   -8.2510   30.9080 C.ar  233  PHE233     -0.0042
    191  CE1       14.8610  -10.5230   31.0630 C.ar  233  PHE233     -0.0003
    192  CE2       16.3100   -8.9320   32.1200 C.ar  233  PHE233     -0.0003
    193  CZ        15.5250  -10.0690   32.1840 C.ar  233  PHE233     -0.0000
    194  N         15.3760   -4.8890   27.6510 N.am  234  TYR234     -0.1974
    195  CA        15.5980   -3.7010   26.8470 C.3   234  TYR234      0.1639
    196  C         16.8780   -3.0370   27.1880 C.2   234  TYR234      0.2290
    197  O         17.2540   -2.9810   28.3540 O.2   234  TYR234     -0.2864
    198  CB        14.4250   -2.7120   27.0900 C.3   234  TYR234      0.0560
    199  CG        13.0780   -3.3120   26.7390 C.ar  234  TYR234     -0.0198
    200  CD1       12.3870   -4.1120   27.6490 C.ar  234  TYR234     -0.0009
    201  CD2       12.5050   -3.1020   25.4890 C.ar  234  TYR234     -0.0009
    202  CE1       11.1950   -4.7370   27.2980 C.ar  234  TYR234      0.0417
    203  CE2       11.2930   -3.6930   25.1440 C.ar  234  TYR234      0.0417
    204  CZ        10.6580   -4.5350   26.0410 C.ar  234  TYR234      0.1957
    205  OH         9.4670   -5.1340   25.6940 O.3   234  TYR234     -0.2866
@<TRIPOS>BOND
     1    26    25    2
     2    25    24    1
     3    24    27    1
     4    24    23    1
     5    27    28    1
     6   110   109    2
     7   108   109    1
     8   108   107    1
     9    14    13    2
    10    11    12    1
    11   107   100   am
    12    28    30   ar
    13    28    29   ar
    14    13    12    1
    15    33    30   ar
    16    33    35   ar
    17   101   100    2
    18     4     3    2
    19    30    32   ar
    20   100    99    1
    21    12    15    1
    22    29    31   ar
    23    15    16    1
    24     3     2    1
    25   114   113    2
    26    35    36   ar
    27   102   103    1
    28   102    99    1
    29   103   104    1
    30    99    98    1
    31    32    31   ar
    32    32    34   ar
    33    18    16   ar
    34    18    20   ar
    35    16    17   ar
    36    36    34   ar
    37   113   112    1
    38     2     1    1
    39     2     5    1
    40   111   112    1
    41   115   112    1
    42   115   116    1
    43    65    64    2
    44     8    10   ar
    45     8     6   ar
    46    98    94   am
    47   104   106   ar
    48   104   105   ar
    49    64    63    1
    50    20    21   ar
    51    10     9   ar
    52    95    94    2
    53    17    19   ar
    54     5     6    1
    55     6     7   ar
    56    94    93    1
    57    97    96    1
    58    97   166    1
    59    62    63    1
    60     9     7   ar
    61    96    93    1
    62    63    66    1
    63    21    19   ar
    64    21    22    1
    65    93    92    1
    66    92    89   am
    67    66    67    1
    68   120   119    2
    69   166   165    1
    70   121   122    1
    71   121   123    1
    72   121   118    1
    73    67    68    1
    74    89    88    1
    75    89    90    2
    76   127   126    2
    77    88    91    1
    78    88    87    1
    79   119   118    1
    80   119   124   am
    81   117   118    1
    82   165   162    1
    83    82    81    2
    84    70    68   ar
    85    68    69   ar
    86    61    59    1
    87    60    59    1
    88    59    58    1
    89   126   125    1
    90   126   130   am
    91   125   124    1
    92   125   128    1
    93    87    81   am
    94    81    80    1
    95   162   161    1
    96   162   163    1
    97   161   159   am
    98   159   158    1
    99   159   160    2
   100   158   157    1
   101   130   131    1
   102   131   134    1
   103   131   132    1
   104   129   128    1
   105   164   163    2
   106    58    55    1
   107   134   135    1
   108   157   150   am
   109   147   146    2
   110    80    79    1
   111    80    83    1
   112    55    56    1
   113    55    54    1
   114   144   132   am
   115   144   145    1
   116   132   133    2
   117    83    84    1
   118   203   201   ar
   119   203   204   ar
   120    57    56    2
   121    84    85   ar
   122    84    86   ar
   123   201   199   ar
   124   146   145    1
   125   146   148   am
   126    37    38    1
   127   205   204    1
   128    54    48   am
   129   150   149    1
   130   150   151    2
   131   135   136   ar
   132   135   137   ar
   133   186   185    2
   134   204   202   ar
   135   149   148    1
   136   149   152    1
   137   136   138   ar
   138   199   198    1
   139   199   200   ar
   140    38    39    1
   141    38    41    1
   142    48    49    2
   143    48    47    1
   144   195   198    1
   145   195   196    1
   146   195   194    1
   147    39    40    2
   148    39    46   am
   149   137   140   ar
   150   137   139   ar
   151   185   194   am
   152   185   184    1
   153    46    47    1
   154   196   197    2
   155   140   142   ar
   156   202   200   ar
   157   152   153    1
   158   138   139   ar
   159    47    50    1
   160   153   154    1
   161   180   181    1
   162   180   179    1
   163   183   184    1
   164   183   181   am
   165   139   141   ar
   166    41    42    2
   167   184   187    1
   168   181   182    2
   169   187   188    1
   170   142   143   ar
   171    52    51    2
   172   179   169   am
   173   154   156   ar
   174   154   155   ar
   175    50    51    1
   176   141   143   ar
   177   170   169    2
   178    42    43    1
   179    51    53   am
   180    78    76    1
   181   169   168    1
   182   188   189   ar
   183   188   190   ar
   184   189   191   ar
   185    76    75    1
   186    77    75    1
   187    44    43   ar
   188    43    45   ar
   189   168   167    1
   190   168   171    1
   191   190   192   ar
   192    75    72    1
   193   191   193   ar
   194   171   172    1
   195   192   193   ar
   196    72    71    1
   197    72    73    1
   198   172   173   ar
   199   172   174   ar
   200    73    74    2
   201   173   175   ar
   202   174   176   ar
   203   175   177   ar
   204   176   177   ar
   205   177   178    1
