@<TRIPOS>MOLECULE
tmp/4baqB02.pdb
 209 208 0 0 0
SMALL
GASTEIGER

@<TRIPOS>ATOM
      1  N         22.7630   -5.9220   17.9490 N.3    43  HIS43      -0.1241
      2  CA        22.5860   -7.2970   17.5030 C.3    43  HIS43       0.1621
      3  C         21.8390   -7.4090   16.1930 C.2    43  HIS43       0.2264
      4  O         21.9110   -8.4420   15.5410 O.2    43  HIS43      -0.2867
      5  CB        22.0170   -8.1940   18.6160 C.3    43  HIS43       0.0745
      6  CG        20.5310   -8.1770   18.7010 C.ar   43  HIS43       0.0817
      7  ND1       19.8620   -7.3480   19.5950 N.ar   43  HIS43      -0.2268
      8  CD2       19.6230   -8.8920   17.9970 C.ar   43  HIS43       0.1154
      9  CE1       18.5750   -7.5710   19.3850 C.ar   43  HIS43       0.1986
     10  NE2       18.3850   -8.5120   18.4450 N.ar   43  HIS43      -0.2212
     11  N         25.8900   -9.9930   14.9760 N.3    47  TYR47      -0.1241
     12  CA        25.5730  -11.1010   15.8500 C.3    47  TYR47       0.1605
     13  C         26.2840  -12.3890   15.3720 C.2    47  TYR47       0.2264
     14  O         25.6670  -13.2400   14.7080 O.2    47  TYR47      -0.2867
     15  CB        24.0670  -11.2570   16.1160 C.3    47  TYR47       0.0534
     16  CG        23.7970  -12.0910   17.3410 C.ar   47  TYR47      -0.0201
     17  CD1       24.3170  -11.7310   18.5850 C.ar   47  TYR47      -0.0009
     18  CD2       23.0730  -13.2700   17.2520 C.ar   47  TYR47      -0.0009
     19  CE1       24.1190  -12.5300   19.7100 C.ar   47  TYR47       0.0417
     20  CE2       22.8670  -14.0760   18.3690 C.ar   47  TYR47       0.0417
     21  CZ        23.3950  -13.7040   19.5960 C.ar   47  TYR47       0.1957
     22  OH        23.2030  -14.5190   20.6790 O.3    47  TYR47      -0.2866
     23  N         24.8290  -16.1670   14.8770 N.3    50  TRP50      -0.1241
     24  CA        23.9130  -16.4600   13.7650 C.3    50  TRP50       0.1605
     25  C         24.4770  -16.0060   12.4340 C.2    50  TRP50       0.2264
     26  O         23.7350  -15.9230   11.4480 O.2    50  TRP50      -0.2867
     27  CB        22.5320  -15.8190   13.9980 C.3    50  TRP50       0.0550
     28  CG        21.8070  -16.2610   15.2390 C.ar   50  TRP50       0.0003
     29  CD1       22.0420  -17.3830   15.9870 C.ar   50  TRP50       0.0946
     30  CD2       20.6660  -15.6180   15.8240 C.ar   50  TRP50       0.0152
     31  NE1       21.1500  -17.4490   17.0370 N.ar   50  TRP50      -0.2442
     32  CE2       20.2870  -16.3820   16.9560 C.ar   50  TRP50       0.0810
     33  CE3       19.9330  -14.4580   15.5110 C.ar   50  TRP50       0.0012
     34  CZ2       19.2130  -16.0190   17.7760 C.ar   50  TRP50       0.0191
     35  CZ3       18.8680  -14.1030   16.3240 C.ar   50  TRP50       0.0001
     36  CH2       18.5150  -14.8800   17.4390 C.ar   50  TRP50       0.0015
     37  N         27.7210  -13.0570   25.6540 N.3    94  GLU94      -0.1182
     38  CA        27.0130  -13.5760   26.8110 C.3    94  GLU94       0.1915
     39  C         25.5530  -13.1500   26.9910 C.2    94  GLU94       0.2634
     40  O         24.6510  -14.0050   27.0190 O.2    94  GLU94      -0.2714
     41  CB        27.8630  -13.2250   28.0700 C.2    94  GLU94       0.0085
     42  CG        27.2890  -13.6160   29.4300 C.2    94  GLU94       0.0835
     43  CD        27.8890  -12.9230   30.6470 C.2    94  GLU94       0.3877
     44  OE1       28.8270  -12.1060   30.4870 O.co2  94  GLU94      -0.2406
     45  OE2       27.4000  -13.1890   31.7690 O.co2  94  GLU94      -0.2406
     46  N         25.3250  -11.8350   27.1830 N.am   95  ASN95      -0.1958
     47  CA        24.0130  -11.3300   27.5850 C.3    95  ASN95       0.1819
     48  C         23.5420  -10.1230   26.8310 C.2    95  ASN95       0.2621
     49  O         22.6150   -9.4630   27.2980 O.2    95  ASN95      -0.2715
     50  CB        24.0830  -10.9920   29.0760 C.3    95  ASN95       0.1195
     51  CG        25.2000  -10.0360   29.4400 C.2    95  ASN95       0.2630
     52  OD1       25.9910   -9.5880   28.5900 O.2    95  ASN95      -0.2716
     53  ND2       25.2870   -9.6960   30.7170 N.am   95  ASN95      -0.0877
     54  N         24.2180   -9.7760   25.7190 N.am   96  LEU96      -0.1977
     55  CA        23.8640   -8.6090   24.9000 C.3    96  LEU96       0.1596
     56  C         23.9740   -7.2900   25.6890 C.2    96  LEU96       0.2287
     57  O         23.1840   -6.3380   25.4890 O.2    96  LEU96      -0.2864
     58  CB        22.4920   -8.8110   24.2030 C.3    96  LEU96       0.0297
     59  CG        22.5340   -9.3220   22.7530 C.3    96  LEU96       0.0022
     60  CD1       23.2920  -10.6190   22.6250 C.3    96  LEU96       0.0001
     61  CD2       21.1430   -9.5170   22.2120 C.3    96  LEU96       0.0001
     62  N          7.1610  -10.9540   14.9840 N.3   143  ASN143     -0.1240
     63  CA         6.2600  -12.0870   15.1360 C.3   143  ASN143      0.1653
     64  C          5.1150  -11.8410   16.1130 C.2   143  ASN143      0.2266
     65  O          5.3280  -11.3500   17.2340 O.2   143  ASN143     -0.2867
     66  CB         7.0560  -13.3330   15.5700 C.3   143  ASN143      0.1155
     67  CG         8.0030  -13.9090   14.5330 C.2   143  ASN143      0.2627
     68  OD1        8.2670  -13.3390   13.4660 O.2   143  ASN143     -0.2716
     69  ND2        8.5480  -15.0650   14.8330 N.am  143  ASN143     -0.0877
     70  N          5.4980  -16.7080   19.2290 N.3   146  GLU146     -0.1245
     71  CA         6.8390  -17.2840   19.4150 C.3   146  GLU146      0.1567
     72  C          7.1820  -18.3350   18.3250 C.2   146  GLU146      0.2260
     73  O          8.2640  -18.2730   17.7320 O.2   146  GLU146     -0.2867
     74  CB         6.9470  -17.9040   20.8130 C.3   146  GLU146      0.0388
     75  CG         8.3660  -18.2450   21.2210 C.3   146  GLU146      0.1160
     76  CD         8.4650  -19.0720   22.4830 C.2   146  GLU146      0.3649
     77  OE1        7.9160  -18.6460   23.5250 O.co2 146  GLU146     -0.2457
     78  OE2        9.1440  -20.1230   22.4450 O.co2 146  GLU146     -0.2457
     79  N         20.3660  -15.9100   32.8700 N.3   173  ILE173     -0.1245
     80  CA        21.2810  -14.9270   32.2750 C.3   173  ILE173      0.1561
     81  C         21.5960  -13.8200   33.2610 C.2   173  ILE173      0.2260
     82  O         20.6990  -13.3470   33.9680 O.2   173  ILE173     -0.2867
     83  CB        20.6920  -14.3690   30.9340 C.3   173  ILE173      0.0252
     84  CG1       20.2680  -15.5160   29.9560 C.3   173  ILE173      0.0019
     85  CG2       21.6150  -13.3350   30.2650 C.3   173  ILE173      0.0019
     86  CD1       21.4300  -16.5570   29.5240 C.3   173  ILE173      0.0001
     87  N          4.4290   -8.8500   24.8420 N.3   193  ASP193     -0.1225
     88  CA         5.8830   -8.8970   24.7540 C.3   193  ASP193      0.1805
     89  C          6.3270   -8.5680   23.3610 C.2   193  ASP193      0.2598
     90  O          5.5410   -8.6710   22.4090 O.2   193  ASP193     -0.2718
     91  CB         6.3920  -10.3240   25.1140 C.3   193  ASP193      0.1424
     92  CG         7.8640  -10.4490   25.4750 C.2   193  ASP193      0.3668
     93  OD1        8.5460   -9.3920   25.6120 O.co2 193  ASP193     -0.2456
     94  OD2        8.3450  -11.6020   25.6070 O.co2 193  ASP193     -0.2456
     95  N          7.6030   -8.1690   23.2340 N.am  194  ALA194     -0.1966
     96  CA         8.2180   -8.0070   21.9380 C.3   194  ALA194      0.1728
     97  C          8.6200   -9.4360   21.5140 C.2   194  ALA194      0.2616
     98  O          8.6150  -10.3470   22.3240 O.2   194  ALA194     -0.2715
     99  CB         9.4640   -7.1430   22.0600 C.3   194  ALA194      0.0334
    100  N          9.0000   -9.6310   20.2780 N.am  195  CYS195     -0.1954
    101  CA         9.3980  -10.9580   19.7980 C.3   195  CYS195      0.1843
    102  C         10.4020  -10.8060   18.6890 C.2   195  CYS195      0.2625
    103  O         10.8090   -9.6730   18.4390 O.2   195  CYS195     -0.2714
    104  CB         8.1690  -11.7410   19.3350 C.3   195  CYS195      0.0997
    105  SG         8.4390  -13.5450   19.2220 S.3   195  CYS195     -0.0797
    106  N         10.8430  -11.9150   18.0280 N.am  196  GLU196     -0.1977
    107  CA        11.8000  -11.8240   16.9060 C.3   196  GLU196      0.1602
    108  C         11.2450  -10.9020   15.7940 C.2   196  GLU196      0.2287
    109  O         10.0620  -10.9710   15.4650 O.2   196  GLU196     -0.2864
    110  CB        12.1370  -13.2300   16.3470 C.3   196  GLU196      0.0415
    111  CG        13.5160  -13.2590   15.6790 C.3   196  GLU196      0.1163
    112  CD        14.7330  -13.3820   16.5950 C.2   196  GLU196      0.3649
    113  OE1       14.7310  -14.2610   17.4880 O.co2 196  GLU196     -0.2457
    114  OE2       15.7320  -12.6630   16.3490 O.co2 196  GLU196     -0.2457
    115  N         13.3130   -6.5380   17.5270 N.3   199  SER199     -0.1217
    116  CA        14.6430   -6.0860   17.9820 C.3   199  SER199      0.1889
    117  C         15.0090   -4.7860   17.3620 C.2   199  SER199      0.2288
    118  O         14.7460   -4.5900   16.1820 O.2   199  SER199     -0.2866
    119  CB        15.7180   -7.0980   17.5850 C.3   199  SER199      0.2089
    120  OG        15.3960   -8.3870   18.0530 O.3   199  SER199     -0.2183
    121  N         14.4370   -2.6430   22.1410 N.3   219  VAL219     -0.1231
    122  CA        14.1160   -4.0700   22.2150 C.3   219  VAL219      0.1692
    123  C         15.4310   -4.8370   22.0560 C.2   219  VAL219      0.2593
    124  O         16.1220   -4.6110   21.0790 O.2   219  VAL219     -0.2718
    125  CB        13.0900   -4.4690   21.1340 C.3   219  VAL219      0.0266
    126  CG1       12.7660   -5.9700   21.1860 C.3   219  VAL219      0.0020
    127  CG2       11.8340   -3.6420   21.2900 C.3   219  VAL219      0.0020
    128  N         15.8070   -5.6660   23.0510 N.am  220  SER220     -0.1938
    129  CA        17.0980   -6.3370   22.9680 C.3   220  SER220      0.2055
    130  C         16.9780   -7.8470   22.9040 C.2   220  SER220      0.2643
    131  O         17.2780   -8.4420   21.8700 O.2   220  SER220     -0.2714
    132  CB        17.9970   -5.8520   24.1120 C.3   220  SER220      0.2130
    133  OG        19.2320   -6.5350   24.1460 O.3   220  SER220     -0.2179
    134  N         16.4920   -8.4710   23.9680 N.am  221  TRP221     -0.1959
    135  CA        16.3860   -9.9270   24.0200 C.3   221  TRP221      0.1771
    136  C         15.2940  -10.4320   24.9220 C.2   221  TRP221      0.2620
    137  O         14.6210   -9.6770   25.6130 O.2   221  TRP221     -0.2715
    138  CB        17.7580  -10.5630   24.4170 C.3   221  TRP221      0.0590
    139  CG        18.2710  -10.1840   25.7860 C.ar  221  TRP221      0.0006
    140  CD1       19.0150   -9.0890   26.1070 C.ar  221  TRP221      0.0946
    141  CD2       18.1800  -10.9730   26.9890 C.ar  221  TRP221      0.0152
    142  NE1       19.3460   -9.1130   27.4420 N.ar  221  TRP221     -0.2442
    143  CE2       18.8680  -10.2740   28.0020 C.ar  221  TRP221      0.0810
    144  CE3       17.5240  -12.1710   27.3240 C.ar  221  TRP221      0.0012
    145  CZ2       18.9310  -10.7390   29.3280 C.ar  221  TRP221      0.0191
    146  CZ3       17.5740  -12.6240   28.6380 C.ar  221  TRP221      0.0001
    147  CH2       18.2770  -11.9170   29.6200 C.ar  221  TRP221      0.0015
    148  N         15.1340  -11.7420   24.8900 N.am  222  GLY222     -0.1940
    149  CA        14.1870  -12.4770   25.7100 C.3   222  GLY222      0.2014
    150  C         14.4530  -13.9510   25.5150 C.2   222  GLY222      0.2639
    151  O         15.3330  -14.3250   24.7420 O.2   222  GLY222     -0.2714
    152  N         13.7080  -14.7830   26.2050 N.am  223  GLU223     -0.1963
    153  CA        13.8350  -16.2390   26.0970 C.3   223  GLU223      0.1733
    154  C         12.4270  -16.6950   25.7860 C.2   223  GLU223      0.2617
    155  O         11.5560  -16.7070   26.6550 O.2   223  GLU223     -0.2715
    156  CB        14.4280  -16.8200   27.3920 C.3   223  GLU223      0.0429
    157  CG        15.8960  -16.4550   27.5870 C.3   223  GLU223      0.1163
    158  CD        16.4440  -16.8020   28.9620 C.2   223  GLU223      0.3649
    159  OE1       16.0000  -16.1810   29.9550 O.co2 223  GLU223     -0.2457
    160  OE2       17.3350  -17.6800   29.0420 O.co2 223  GLU223     -0.2457
    161  N         12.1900  -16.9100   24.5000 N.am  224  GLY224     -0.1940
    162  CA        10.8600  -17.1580   23.9770 C.3   224  GLY224      0.2014
    163  C         10.1550  -15.8040   23.8630 C.2   224  GLY224      0.2639
    164  O         10.8170  -14.7500   23.8920 O.2   224  GLY224     -0.2714
    165  N          8.8200  -15.8130   23.6940 N.am  225  CYS225     -0.1967
    166  CA         8.0150  -14.5800   23.5990 C.3   225  CYS225      0.1712
    167  C          6.7410  -14.7740   24.3710 C.2   225  CYS225      0.2296
    168  O          5.9950  -15.7380   24.1310 O.2   225  CYS225     -0.2864
    169  CB         7.7070  -14.1670   22.1510 C.3   225  CYS225      0.0983
    170  SG         9.1500  -14.0200   21.0760 S.3   225  CYS225     -0.0798
    171  N         10.1800  -12.1830   31.0250 N.3   231  TYR231     -0.1227
    172  CA        10.0390  -10.7660   30.6990 C.3   231  TYR231      0.1736
    173  C         10.9410  -10.4100   29.5490 C.2   231  TYR231      0.2596
    174  O         11.9840  -11.0270   29.3780 O.2   231  TYR231     -0.2718
    175  CB        10.4310   -9.8920   31.9130 C.3   231  TYR231      0.0548
    176  CG         9.6210  -10.1730   33.1590 C.ar  231  TYR231     -0.0200
    177  CD1        8.3630   -9.6050   33.3370 C.ar  231  TYR231     -0.0009
    178  CD2       10.0780  -11.0670   34.1250 C.ar  231  TYR231     -0.0009
    179  CE1        7.5670   -9.9370   34.4320 C.ar  231  TYR231      0.0417
    180  CE2        9.3030  -11.3840   35.2430 C.ar  231  TYR231      0.0417
    181  CZ         8.0580  -10.7970   35.4000 C.ar  231  TYR231      0.1957
    182  OH         7.2860  -11.0720   36.4930 O.3   231  TYR231     -0.2866
    183  N         10.5590   -9.3860   28.8050 N.am  232  GLY232     -0.1942
    184  CA        11.3810   -8.8680   27.7170 C.3   232  GLY232      0.2014
    185  C         12.4420   -7.9690   28.3160 C.2   232  GLY232      0.2639
    186  O         12.1610   -7.2400   29.2720 O.2   232  GLY232     -0.2714
    187  N         13.6630   -7.9960   27.7410 N.am  233  PHE233     -0.1959
    188  CA        14.7990   -7.1700   28.1640 C.3   233  PHE233      0.1771
    189  C         15.0810   -6.0940   27.1420 C.2   233  PHE233      0.2619
    190  O         15.0050   -6.3300   25.9330 O.2   233  PHE233     -0.2715
    191  CB        16.0620   -8.0060   28.4240 C.3   233  PHE233      0.0574
    192  CG        15.9450   -8.7410   29.7370 C.ar  233  PHE233     -0.0200
    193  CD1       15.1500   -9.8830   29.8460 C.ar  233  PHE233     -0.0042
    194  CD2       16.5190   -8.2210   30.8940 C.ar  233  PHE233     -0.0042
    195  CE1       14.9740  -10.5190   31.0810 C.ar  233  PHE233     -0.0003
    196  CE2       16.3640   -8.8740   32.1280 C.ar  233  PHE233     -0.0003
    197  CZ        15.5850  -10.0060   32.2100 C.ar  233  PHE233     -0.0000
    198  N         15.3810   -4.9000   27.6470 N.am  234  TYR234     -0.1974
    199  CA        15.5880   -3.7090   26.8410 C.3   234  TYR234      0.1639
    200  C         16.8960   -3.0480   27.1570 C.2   234  TYR234      0.2290
    201  O         17.2640   -2.9560   28.3200 O.2   234  TYR234     -0.2864
    202  CB        14.4240   -2.7150   27.1120 C.3   234  TYR234      0.0560
    203  CG        13.0790   -3.3100   26.7570 C.ar  234  TYR234     -0.0198
    204  CD1       12.4210   -4.1700   27.6370 C.ar  234  TYR234     -0.0009
    205  CD2       12.5160   -3.1060   25.5010 C.ar  234  TYR234     -0.0009
    206  CE1       11.2290   -4.7860   27.2850 C.ar  234  TYR234      0.0417
    207  CE2       11.3030   -3.6990   25.1520 C.ar  234  TYR234      0.0417
    208  CZ        10.6820   -4.5620   26.0380 C.ar  234  TYR234      0.1957
    209  OH         9.5040   -5.1730   25.7010 O.3   234  TYR234     -0.2866
@<TRIPOS>BOND
     1    26    25    2
     2    25    24    1
     3    68    67    2
     4    24    27    1
     5    24    23    1
     6    27    28    1
     7    67    69   am
     8    67    66    1
     9    14    13    2
    10    11    12    1
    11    62    63    1
    12    63    66    1
    13    63    64    1
    14    28    30   ar
    15    28    29   ar
    16    13    12    1
    17   109   108    2
    18    33    30   ar
    19    33    35   ar
    20     4     3    2
    21   111   110    1
    22   111   112    1
    23   108   107    1
    24    30    32   ar
    25    12    15    1
    26    29    31   ar
    27    64    65    2
    28    15    16    1
    29   118   117    2
    30     3     2    1
    31    35    36   ar
    32   110   107    1
    33   114   112   ar
    34   112   113   ar
    35   107   106    1
    36    32    31   ar
    37    32    34   ar
    38    18    16   ar
    39    18    20   ar
    40    16    17   ar
    41   117   116    1
    42    36    34   ar
    43     2     1    1
    44     2     5    1
    45   115   116    1
    46   119   116    1
    47   119   120    1
    48    73    72    2
    49     8    10   ar
    50     8     6   ar
    51   106   102   am
    52    72    71    1
    53    20    21   ar
    54   103   102    2
    55    10     9   ar
    56    17    19   ar
    57     5     6    1
    58   102   101    1
    59     6     7   ar
    60   105   104    1
    61   105   170    1
    62    70    71    1
    63   104   101    1
    64     9     7   ar
    65    71    74    1
    66    21    19   ar
    67    21    22    1
    68   101   100    1
    69   100    97   am
    70    74    75    1
    71   170   169    1
    72   124   123    2
    73   125   126    1
    74   125   127    1
    75   125   122    1
    76    75    76    1
    77    97    96    1
    78    97    98    2
    79   131   130    2
    80    96    99    1
    81    96    95    1
    82   123   122    1
    83   123   128   am
    84   121   122    1
    85   169   166    1
    86    61    59    1
    87    90    89    2
    88    78    76   ar
    89    76    77   ar
    90    60    59    1
    91    59    58    1
    92   130   129    1
    93   130   134   am
    94   129   128    1
    95   129   132    1
    96    95    89   am
    97    89    88    1
    98   166   165    1
    99   166   167    1
   100   165   163   am
   101   163   164    2
   102   163   162    1
   103   134   135    1
   104   162   161    1
   105   135   138    1
   106   135   136    1
   107   132   133    1
   108   168   167    2
   109    58    55    1
   110   138   139    1
   111   161   154   am
   112   151   150    2
   113    88    87    1
   114    88    91    1
   115   148   136   am
   116   148   149    1
   117    55    56    1
   118    55    54    1
   119   136   137    2
   120    91    92    1
   121   207   205   ar
   122   207   208   ar
   123    92    94   ar
   124    92    93   ar
   125    57    56    2
   126   205   203   ar
   127   150   149    1
   128   150   152   am
   129    37    38    1
   130   209   208    1
   131    54    48   am
   132   154   153    1
   133   154   155    2
   134   139   140   ar
   135   139   141   ar
   136   190   189    2
   137   208   206   ar
   138   153   152    1
   139   153   156    1
   140   140   142   ar
   141   203   202    1
   142   203   204   ar
   143    38    39    1
   144    38    41    1
   145    48    49    2
   146    48    47    1
   147   199   202    1
   148   199   200    1
   149   199   198    1
   150   141   144   ar
   151   141   143   ar
   152    39    40    2
   153    39    46   am
   154   189   198   am
   155   189   188    1
   156   200   201    2
   157    46    47    1
   158   206   204   ar
   159   144   146   ar
   160   156   157    1
   161   142   143   ar
   162    47    50    1
   163   157   158    1
   164   184   185    1
   165   184   183    1
   166   187   188    1
   167   187   185   am
   168   143   145   ar
   169    41    42    2
   170   188   191    1
   171   185   186    2
   172   191   192    1
   173    52    51    2
   174   146   147   ar
   175   183   173   am
   176   158   160   ar
   177   158   159   ar
   178    50    51    1
   179   145   147   ar
   180   174   173    2
   181    42    43    1
   182    51    53   am
   183    86    84    1
   184   173   172    1
   185   192   193   ar
   186   192   194   ar
   187   193   195   ar
   188    84    83    1
   189    85    83    1
   190    44    43   ar
   191    43    45   ar
   192   172   171    1
   193   172   175    1
   194   194   196   ar
   195    83    80    1
   196   195   197   ar
   197   175   176    1
   198   196   197   ar
   199    80    79    1
   200    80    81    1
   201   176   177   ar
   202   176   178   ar
   203    81    82    2
   204   177   179   ar
   205   178   180   ar
   206   179   181   ar
   207   180   181   ar
   208   181   182    1
