@<TRIPOS>MOLECULE
tmp/4basA00.pdb
 147 141 0 0 0
SMALL
GASTEIGER

@<TRIPOS>ATOM
      1  N         46.1780   24.9500    6.9540 N.3    11  ASP11      -0.1225
      2  CA        45.7990   23.5650    6.8390 C.3    11  ASP11       0.1805
      3  C         46.7910   22.6780    7.6200 C.2    11  ASP11       0.2598
      4  O         47.9860   22.9450    7.6810 O.2    11  ASP11      -0.2718
      5  CB        45.7230   23.1480    5.3670 C.3    11  ASP11       0.1424
      6  CG        46.9760   23.4990    4.6100 C.2    11  ASP11       0.3668
      7  OD1       47.2360   24.7130    4.3710 O.co2  11  ASP11      -0.2456
      8  OD2       47.7260   22.5630    4.3030 O.co2  11  ASP11      -0.2456
      9  N         46.2500   21.6290    8.2250 N.am   12  ASN12      -0.1960
     10  CA        47.0140   20.6570    8.9610 C.3    12  ASN12       0.1819
     11  C         47.6110   21.1830   10.2660 C.2    12  ASN12       0.2622
     12  O         48.4670   20.5300   10.8430 O.2    12  ASN12      -0.2715
     13  CB        48.1360   20.0890    8.0810 C.3    12  ASN12       0.1195
     14  CG        48.5300   18.6720    8.4870 C.2    12  ASN12       0.2630
     15  OD1       47.6820   17.7920    8.5980 O.2    12  ASN12      -0.2716
     16  ND2       49.8290   18.4470    8.6820 N.am   12  ASN12      -0.0877
     17  N         47.1670   22.3480   10.7280 N.am   13  SER13      -0.1936
     18  CA        47.6840   22.9010   11.9770 C.3    13  SER13       0.2055
     19  C         47.1050   22.1970   13.2120 C.2    13  SER13       0.2644
     20  O         47.7680   22.1160   14.2550 O.2    13  SER13      -0.2714
     21  CB        47.4690   24.4240   12.0320 C.3    13  SER13       0.2130
     22  OG        46.1030   24.7650   11.9870 O.3    13  SER13      -0.2179
     23  N         45.8750   21.6930   13.0930 N.am   14  GLY14      -0.1939
     24  CA        45.2200   20.9220   14.1490 C.3    14  GLY14       0.2014
     25  C         43.9670   21.5560   14.7460 C.2    14  GLY14       0.2639
     26  O         43.5510   21.1670   15.8120 O.2    14  GLY14      -0.2714
     27  N         43.3520   22.4970   14.0310 N.am   15  LYS15      -0.1963
     28  CA        42.1750   23.2180   14.4730 C.3    15  LYS15       0.1728
     29  C         41.0420   22.3040   14.9150 C.2    15  LYS15       0.2617
     30  O         40.5260   22.4310   16.0340 O.2    15  LYS15      -0.2715
     31  CB        41.7010   24.1410   13.3300 C.3    15  LYS15       0.0311
     32  CG        42.6880   25.2610   13.0130 C.3    15  LYS15       0.0038
     33  CD        42.2660   26.1730   11.8630 C.3    15  LYS15       0.0206
     34  CE        42.1700   25.4950   10.5030 C.3    15  LYS15       0.1093
     35  NZ        43.4210   24.8820    9.9700 N.3    15  LYS15      -0.1314
     36  N         40.6800   21.3570   14.0450 N.am   16  THR16      -0.1937
     37  CA        39.5530   20.4610   14.2860 C.3    16  THR16       0.2028
     38  C         39.8590   19.4610   15.4190 C.2    16  THR16       0.2642
     39  O         38.9850   19.1350   16.2320 O.2    16  THR16      -0.2714
     40  CB        39.1560   19.7310   12.9720 C.3    16  THR16       0.1808
     41  OG1       38.8350   20.7100   11.9740 O.3    16  THR16      -0.2208
     42  CG2       37.9490   18.8440   13.1570 C.3    16  THR16       0.0379
     43  N         41.0870   18.9710   15.4660 N.am   17  THR17      -0.1950
     44  CA        41.5050   18.0840   16.5470 C.3    17  THR17       0.1897
     45  C         41.3580   18.7690   17.9090 C.2    17  THR17       0.2313
     46  O         40.8290   18.1920   18.8520 O.2    17  THR17      -0.2863
     47  CB        42.9530   17.6620   16.3470 C.3    17  THR17       0.1794
     48  OG1       43.0630   16.9670   15.0980 O.3    17  THR17      -0.2208
     49  CG2       43.4160   16.7560   17.4920 C.3    17  THR17       0.0378
     50  N         38.4880   12.2260   12.0550 N.3    28  ILE28      -0.1231
     51  CA        38.7210   13.6000   11.6010 C.3    28  ILE28       0.1692
     52  C         39.3570   13.6130   10.2060 C.2    28  ILE28       0.2593
     53  O         40.2740   12.8620    9.9260 O.2    28  ILE28      -0.2718
     54  CB        39.5960   14.3990   12.5930 C.3    28  ILE28       0.0266
     55  CG1       38.8030   14.6660   13.8740 C.3    28  ILE28       0.0019
     56  CG2       40.0230   15.7190   11.9670 C.3    28  ILE28       0.0020
     57  CD1       39.6100   15.2160   15.0250 C.3    28  ILE28       0.0001
     58  N         38.8560   14.4930    9.3460 N.am   29  THR29      -0.1939
     59  CA        39.4380   14.7250    8.0320 C.3    29  THR29       0.2028
     60  C         39.5580   16.2290    7.7680 C.2    29  THR29       0.2642
     61  O         38.9750   17.0510    8.5000 O.2    29  THR29      -0.2714
     62  CB        38.5590   14.1050    6.9310 C.3    29  THR29       0.1808
     63  OG1       37.2780   14.7420    6.9610 O.3    29  THR29      -0.2208
     64  CG2       38.3720   12.5920    7.1720 C.3    29  THR29       0.0379
     65  N         40.2860   16.5800    6.7030 N.am   30  ALA30      -0.1963
     66  CA        40.5350   17.9700    6.3610 C.3    30  ALA30       0.1728
     67  C         39.1840   18.6540    6.2100 C.2    30  ALA30       0.2616
     68  O         38.2510   18.0680    5.6390 O.2    30  ALA30      -0.2715
     69  CB        41.3380   18.0720    5.0670 C.3    30  ALA30       0.0334
     70  N         39.0820   19.8730    6.7310 N.am   31  THR31      -0.1951
     71  CA        37.8260   20.6210    6.7430 C.3    31  THR31       0.1897
     72  C         37.6620   21.3950    5.4370 C.2    31  THR31       0.2313
     73  O         38.4570   22.2740    5.1260 O.2    31  THR31      -0.2863
     74  CB        37.7620   21.6160    7.9260 C.3    31  THR31       0.1794
     75  OG1       38.0090   20.9180    9.1690 O.3    31  THR31      -0.2208
     76  CG2       36.3780   22.2870    7.9940 C.3    31  THR31       0.0378
     77  N         37.2020   26.9390   10.7320 N.3    51  MET51      -0.1230
     78  CA        37.4900   27.2310    9.3480 C.3    51  MET51       0.1702
     79  C         38.4360   26.1820    8.7210 C.2    51  MET51       0.2593
     80  O         39.3490   25.6810    9.3650 O.2    51  MET51      -0.2718
     81  CB        38.1150   28.6250    9.2540 C.3    51  MET51       0.0401
     82  CG        37.3030   29.7790    9.8540 C.3    51  MET51       0.0596
     83  SD        35.5670   29.7620    9.3720 S.3    51  MET51      -0.1393
     84  CE        35.7390   29.9770    7.5840 C.3    51  MET51       0.0692
     85  N         38.2210   25.8640    7.4520 N.am   52  GLY52      -0.1942
     86  CA        39.2360   25.1810    6.6550 C.3    52  GLY52       0.2014
     87  C         40.4360   26.0920    6.4850 C.2    52  GLY52       0.2639
     88  O         40.2720   27.3040    6.2650 O.2    52  GLY52      -0.2714
     89  N         41.6420   25.5220    6.6060 N.am   53  GLY53      -0.1939
     90  CA        42.8880   26.2810    6.5650 C.3    53  GLY53       0.2014
     91  C         43.6460   26.2740    5.2410 C.2    53  GLY53       0.2638
     92  O         44.5890   27.0320    5.0770 O.2    53  GLY53      -0.2714
     93  N         43.2580   25.4080    4.3160 N.am   54  ALA54      -0.1977
     94  CA        43.8210   25.4230    2.9510 C.3    54  ALA54       0.1597
     95  C         43.6850   26.8070    2.3100 C.2    54  ALA54       0.2287
     96  O         42.7160   27.5310    2.5710 O.2    54  ALA54      -0.2864
     97  CB        43.1390   24.3720    2.0840 C.3    54  ALA54       0.0319
     98  N         50.8620   24.3520   18.5540 N.3   116  ASN116     -0.1225
     99  CA        50.4730   22.9430   18.5250 C.3   116  ASN116      0.1785
    100  C         51.5170   21.9880   17.9400 C.2   116  ASN116      0.2597
    101  O         52.5160   22.4020   17.3460 O.2   116  ASN116     -0.2718
    102  CB        49.1530   22.8460   17.7620 C.3   116  ASN116      0.1169
    103  CG        48.4010   21.5780   18.0330 C.2   116  ASN116      0.2627
    104  OD1       48.2200   21.1770   19.1870 O.2   116  ASN116     -0.2716
    105  ND2       47.9270   20.9410   16.9580 N.am  116  ASN116     -0.0877
    106  N         51.2670   20.6980   18.1370 N.am  117  LYS117     -0.1980
    107  CA        52.1940   19.6220   17.8000 C.3   117  LYS117      0.1596
    108  C         53.4900   19.7710   18.5860 C.2   117  LYS117      0.2287
    109  O         54.5760   19.5480   18.0630 O.2   117  LYS117     -0.2864
    110  CB        52.4300   19.5190   16.2760 C.3   117  LYS117      0.0298
    111  CG        51.1430   19.6130   15.4420 C.3   117  LYS117      0.0038
    112  CD        51.2630   18.8950   14.0890 C.3   117  LYS117      0.0206
    113  CE        49.9800   19.0320   13.2840 C.3   117  LYS117      0.1093
    114  NZ        49.9790   18.3480   11.9480 N.3   117  LYS117     -0.1314
    115  N         54.5810   17.8560   20.6880 N.3   119  ASP119     -0.1225
    116  CA        55.1780   16.5300   20.6420 C.3   119  ASP119      0.1805
    117  C         55.9560   16.2110   19.3610 C.2   119  ASP119      0.2597
    118  O         56.8070   15.3400   19.3780 O.2   119  ASP119     -0.2718
    119  CB        54.0920   15.4590   20.8400 C.3   119  ASP119      0.1424
    120  CG        53.0590   15.4420   19.7080 C.2   119  ASP119      0.3668
    121  OD1       52.4350   16.4780   19.4130 O.co2 119  ASP119     -0.2456
    122  OD2       52.8560   14.3820   19.1170 O.co2 119  ASP119     -0.2456
    123  N         55.6650   16.8970   18.2590 N.am  120  ALA120     -0.1979
    124  CA        56.2790   16.5460   16.9710 C.3   120  ALA120      0.1597
    125  C         57.7740   16.8150   16.9680 C.2   120  ALA120      0.2287
    126  O         58.2550   17.7120   17.6630 O.2   120  ALA120     -0.2864
    127  CB        55.6140   17.3050   15.8280 C.3   120  ALA120      0.0319
    128  N         49.2520   19.9150   22.5700 N.3   150  ASN150     -0.1225
    129  CA        49.2300   18.6290   21.9160 C.3   150  ASN150      0.1785
    130  C         47.7740   18.3190   21.7470 C.2   150  ASN150      0.2598
    131  O         47.0980   17.9330   22.7050 O.2   150  ASN150     -0.2718
    132  CB        49.9040   17.5730   22.7840 C.3   150  ASN150      0.1169
    133  CG        49.8870   16.1920   22.1520 C.2   150  ASN150      0.2627
    134  OD1       48.9940   15.8500   21.3840 O.2   150  ASN150     -0.2716
    135  ND2       50.8850   15.3910   22.4810 N.am  150  ASN150     -0.0877
    136  N         47.2830   18.5100   20.5320 N.am  151  GLY151     -0.1942
    137  CA        45.8670   18.3780   20.2520 C.3   151  GLY151      0.2014
    138  C         45.3450   16.9500   20.3450 C.2   151  GLY151      0.2638
    139  O         44.1540   16.7380   20.5730 O.2   151  GLY151     -0.2714
    140  N         46.2360   15.9850   20.1520 N.am  152  LEU152     -0.1977
    141  CA        45.8790   14.5660   20.2470 C.3   152  LEU152      0.1596
    142  C         45.5250   14.1930   21.6820 C.2   152  LEU152      0.2287
    143  O         44.6370   13.4040   21.9080 O.2   152  LEU152     -0.2864
    144  CB        47.0320   13.6880   19.7610 C.3   152  LEU152      0.0297
    145  CG        47.5710   13.8500   18.3270 C.3   152  LEU152      0.0022
    146  CD1       48.7510   12.9160   18.1450 C.3   152  LEU152      0.0001
    147  CD2       46.5270   13.5510   17.2600 C.3   152  LEU152      0.0001
@<TRIPOS>BOND
     1    97    94    1
     2    95    96    2
     3    95    94    1
     4    94    93    1
     5     8     6   ar
     6    93    91   am
     7     7     6   ar
     8     6     5    1
     9    69    66    1
    10    92    91    2
    11    73    72    2
    12    91    90    1
    13     5     2    1
    14    72    71    1
    15    68    67    2
    16    67    66    1
    17    67    70   am
    18    88    87    2
    19    66    65    1
    20    87    89   am
    21    87    86    1
    22    90    89    1
    23    86    85    1
    24    65    60   am
    25    70    71    1
    26    71    74    1
    27     2     1    1
    28     2     3    1
    29    62    63    1
    30    62    64    1
    31    62    59    1
    32    85    79   am
    33    84    83    1
    34     3     4    2
    35     3     9   am
    36    60    59    1
    37    60    61    2
    38    74    76    1
    39    74    75    1
    40    59    58    1
    41    13    14    1
    42    13    10    1
    43     9    10    1
    44    14    15    2
    45    14    16   am
    46    79    78    1
    47    79    80    2
    48    10    11    1
    49    81    78    1
    50    81    82    1
    51    58    52   am
    52    78    77    1
    53    83    82    1
    54    53    52    2
    55    35    34    1
    56    52    51    1
    57    11    17   am
    58    11    12    2
    59    34    33    1
    60    17    18    1
    61    51    50    1
    62    51    54    1
    63    33    32    1
    64   114   113    1
    65    56    54    1
    66    41    40    1
    67    18    21    1
    68    18    19    1
    69    22    21    1
    70    54    55    1
    71    40    42    1
    72    40    37    1
    73    32    31    1
    74    23    19   am
    75    23    24    1
    76    19    20    2
    77   113   112    1
    78    31    28    1
    79    55    57    1
    80    27    28    1
    81    27    25   am
    82    36    37    1
    83    36    29   am
    84   112   111    1
    85    24    25    1
    86    37    38    1
    87    28    29    1
    88    25    26    2
    89    29    30    2
    90    48    47    1
    91    38    43   am
    92    38    39    2
    93   111   110    1
    94    43    44    1
    95   127   124    1
    96   110   107    1
    97    47    44    1
    98    47    49    1
    99    44    45    1
   100   105   103   am
   101   125   124    1
   102   125   126    2
   103   124   123    1
   104   147   145    1
   105   101   100    2
   106   102   103    1
   107   102    99    1
   108   107   106    1
   109   107   108    1
   110    45    46    2
   111   100   106   am
   112   100    99    1
   113   103   104    2
   114   109   108    2
   115   146   145    1
   116   123   117   am
   117   145   144    1
   118    99    98    1
   119   122   120   ar
   120   117   118    2
   121   117   116    1
   122   121   120   ar
   123   120   119    1
   124   144   141    1
   125   140   141    1
   126   140   138   am
   127   141   142    1
   128   137   138    1
   129   137   136    1
   130   138   139    2
   131   136   130   am
   132   116   115    1
   133   116   119    1
   134   134   133    2
   135   142   143    2
   136   130   129    1
   137   130   131    2
   138   129   128    1
   139   129   132    1
   140   133   135   am
   141   133   132    1
