@<TRIPOS>MOLECULE
tmp/4bb2A00.pdb
 78 71 0 0 0
SMALL
GASTEIGER

@<TRIPOS>ATOM
      1  N        -32.4150   -9.1470   10.4400 N.3     6  ALA6       -0.1231
      2  CA       -31.3400   -9.4540    9.5140 C.3     6  ALA6        0.1694
      3  C        -30.4900   -8.2170    9.2720 C.2     6  ALA6        0.2592
      4  O        -29.2690   -8.2580    9.4270 O.2     6  ALA6       -0.2718
      5  CB       -31.9010   -9.9900    8.2050 C.3     6  ALA6        0.0304
      6  N        -31.1460   -7.1110    8.9340 N.am    7  SER7       -0.1952
      7  CA       -30.4440   -5.8880    8.5880 C.3     7  SER7        0.1924
      8  C        -29.5480   -5.3980    9.7200 C.2     7  SER7        0.2314
      9  O        -28.4020   -5.0260    9.4850 O.2     7  SER7       -0.2863
     10  CB       -31.4260   -4.8000    8.1230 C.3     7  SER7        0.2116
     11  OG       -32.3340   -4.4550    9.1500 O.3     7  SER7       -0.2180
     12  N        -26.6530   -8.2280   10.4560 N.3    10  VAL10      -0.1245
     13  CA       -25.6620   -8.2860    9.3900 C.3    10  VAL10       0.1561
     14  C        -24.8160   -7.0100    9.3810 C.2    10  VAL10       0.2260
     15  O        -23.6160   -7.0740    9.1410 O.2    10  VAL10      -0.2867
     16  CB       -26.2790   -8.6150    8.0130 C.3    10  VAL10       0.0252
     17  CG1      -25.2400   -8.4900    6.9150 C.3    10  VAL10       0.0019
     18  CG2      -26.8230  -10.0370    8.0070 C.3    10  VAL10       0.0019
     19  N        -20.5770  -18.0650   -5.4950 N.3   215  GLN215     -0.1245
     20  CA       -21.5420  -18.4070   -4.4760 C.3   215  GLN215      0.1566
     21  C        -21.8710  -19.8980   -4.5660 C.2   215  GLN215      0.2260
     22  O        -22.0270  -20.4380   -5.6620 O.2   215  GLN215     -0.2867
     23  CB       -22.8060  -17.5790   -4.6290 C.3   215  GLN215      0.0367
     24  CG       -23.7590  -17.7990   -3.4750 C.3   215  GLN215      0.0905
     25  CD       -25.0610  -17.0530   -3.6120 C.2   215  GLN215      0.2608
     26  OE1      -25.2510  -16.2760   -4.5500 O.2   215  GLN215     -0.2717
     27  NE2      -25.9690  -17.2730   -2.6610 N.am  215  GLN215     -0.0878
     28  N        -25.8770  -21.0420    2.5230 N.3   223  THR223     -0.1218
     29  CA       -25.1970  -20.6100    1.3140 C.3   223  THR223      0.1862
     30  C        -23.8910  -19.9120    1.6840 C.2   223  THR223      0.2287
     31  O        -23.7400  -19.4070    2.7980 O.2   223  THR223     -0.2866
     32  CB       -26.0930  -19.7120    0.4440 C.3   223  THR223      0.1770
     33  OG1      -25.6480  -19.7930   -0.9100 O.3   223  THR223     -0.2211
     34  CG2      -26.0480  -18.2620    0.9000 C.3   223  THR223      0.0375
     35  N        -20.4890  -17.3710    0.2510 N.3   225  PHE225     -0.1241
     36  CA       -19.7650  -16.5590   -0.7040 C.3   225  PHE225      0.1605
     37  C        -18.2840  -16.7400   -0.4670 C.2   225  PHE225      0.2264
     38  O        -17.8090  -16.5770    0.6480 O.2   225  PHE225     -0.2867
     39  CB       -20.1340  -15.0800   -0.5400 C.3   225  PHE225      0.0534
     40  CG       -21.5460  -14.7530   -0.9530 C.ar  225  PHE225     -0.0203
     41  CD1      -22.5880  -14.8180   -0.0370 C.ar  225  PHE225     -0.0042
     42  CD2      -21.8320  -14.3770   -2.2600 C.ar  225  PHE225     -0.0042
     43  CE1      -23.8900  -14.5170   -0.4100 C.ar  225  PHE225     -0.0003
     44  CE2      -23.1300  -14.0710   -2.6440 C.ar  225  PHE225     -0.0003
     45  CZ       -24.1640  -14.1450   -1.7180 C.ar  225  PHE225     -0.0000
     46  N        -24.5690   -4.9560    3.2410 N.3   243  ARG243     -0.1245
     47  CA       -25.7430   -5.6140    2.6880 C.3   243  ARG243      0.1563
     48  C        -25.9380   -5.2160    1.2280 C.2   243  ARG243      0.2260
     49  O        -26.3000   -6.0510    0.3850 O.2   243  ARG243     -0.2867
     50  CB       -26.9870   -5.2590    3.4880 C.3   243  ARG243      0.0307
     51  CG       -27.1810   -6.0870    4.7440 C.3   243  ARG243      0.0489
     52  CD       -28.3790   -5.5980    5.5350 C.3   243  ARG243      0.2205
     53  NE       -28.1670   -4.2860    6.1450 N.pl3 243  ARG243     -0.0865
     54  CZ       -28.9030   -3.2110    5.8790 C.cat 243  ARG243      0.5346
     55  NH1      -29.9070   -3.2790    5.0120 N.pl3 243  ARG243      0.1354
     56  NH2      -28.6520   -2.0660    6.4950 N.pl3 243  ARG243      0.1354
     57  N        -23.5680   -7.0340   -1.0290 N.3   246  ILE246     -0.1231
     58  CA       -24.0570   -8.3920   -1.2460 C.3   246  ILE246      0.1692
     59  C        -25.2330   -8.4100   -2.2070 C.2   246  ILE246      0.2592
     60  O        -25.3240   -9.3100   -3.0450 O.2   246  ILE246     -0.2718
     61  CB       -24.4370   -9.1200    0.0460 C.3   246  ILE246      0.0266
     62  CG1      -23.1920   -9.3470    0.8980 C.3   246  ILE246      0.0019
     63  CG2      -25.0770  -10.4690   -0.2760 C.3   246  ILE246      0.0020
     64  CD1      -23.5410   -9.5020    2.3510 C.3   246  ILE246      0.0001
     65  N        -26.1130   -7.4170   -2.1060 N.am  247  ASN247     -0.1974
     66  CA       -27.2280   -7.3360   -3.0400 C.3   247  ASN247      0.1688
     67  C        -26.7750   -7.1360   -4.4760 C.2   247  ASN247      0.2292
     68  O        -27.3490   -7.7470   -5.3810 O.2   247  ASN247     -0.2864
     69  CB       -28.2630   -6.2790   -2.6290 C.3   247  ASN247      0.1181
     70  CG       -29.1170   -6.7330   -1.4660 C.2   247  ASN247      0.2629
     71  OD1      -29.2460   -7.9210   -1.2200 O.2   247  ASN247     -0.2716
     72  ND2      -29.6830   -5.7940   -0.7360 N.am  247  ASN247     -0.0877
     73  N        -25.2050  -10.3570   -5.6410 N.3   250  SER250     -0.1217
     74  CA       -26.2770  -11.3110   -5.8770 C.3   250  SER250      0.1889
     75  C        -26.9670  -11.0540   -7.2310 C.2   250  SER250      0.2288
     76  O        -27.3080  -11.9900   -7.9340 O.2   250  SER250     -0.2866
     77  CB       -27.2650  -11.2900   -4.7100 C.3   250  SER250      0.2089
     78  OG       -28.2690  -12.2750   -4.8700 O.3   250  SER250     -0.2183
@<TRIPOS>BOND
     1    76    75    2
     2    75    74    1
     3    74    73    1
     4    74    77    1
     5    22    21    2
     6    19    20    1
     7    68    67    2
     8    78    77    1
     9    23    20    1
    10    23    24    1
    11    21    20    1
    12    26    25    2
    13    67    66    1
    14    25    24    1
    15    25    27   am
    16    60    59    2
    17    66    69    1
    18    66    65    1
    19    44    42   ar
    20    44    45   ar
    21    69    70    1
    22    42    40   ar
    23    59    65   am
    24    59    58    1
    25    45    43   ar
    26    70    71    2
    27    70    72   am
    28    58    57    1
    29    58    61    1
    30    40    39    1
    31    40    41   ar
    32    33    32    1
    33    36    39    1
    34    36    37    1
    35    36    35    1
    36    37    38    2
    37    43    41   ar
    38    63    61    1
    39    61    62    1
    40    49    48    2
    41    32    34    1
    42    32    29    1
    43    62    64    1
    44    48    47    1
    45    29    30    1
    46    29    28    1
    47    30    31    2
    48    47    46    1
    49    47    50    1
    50    50    51    1
    51    51    52    1
    52    55    54    1
    53    52    53    1
    54    54    53    2
    55    54    56    1
    56    17    16    1
    57    18    16    1
    58    16    13    1
    59    10     7    1
    60    10    11    1
    61     5     2    1
    62     7     6    1
    63     7     8    1
    64     6     3   am
    65    15    14    2
    66     3     4    2
    67     3     2    1
    68    14    13    1
    69    13    12    1
    70     9     8    2
    71     2     1    1
