@<TRIPOS>MOLECULE
tmp/4bb3A00.pdb
 149 138 0 0 0
SMALL
GASTEIGER

@<TRIPOS>ATOM
      1  N         21.0730   36.0100   10.8270 N.3    85  ARG85      -0.1245
      2  CA        20.0690   35.6540    9.8260 C.3    85  ARG85       0.1563
      3  C         19.4420   34.3070   10.2070 C.2    85  ARG85       0.2260
      4  O         18.2150   34.1110   10.1110 O.2    85  ARG85      -0.2867
      5  CB        20.6700   35.4900    8.3880 C.3    85  ARG85       0.0307
      6  CG        21.2250   36.7900    7.7600 C.3    85  ARG85       0.0489
      7  CD        21.8540   36.4970    6.4090 C.3    85  ARG85       0.2205
      8  NE        20.7860   36.2020    5.4220 N.pl3  85  ARG85      -0.0865
      9  CZ        21.0280   35.6590    4.2310 C.cat  85  ARG85       0.5346
     10  NH1       22.2620   35.3140    3.7870 N.pl3  85  ARG85       0.1354
     11  NH2       20.0200   35.4970    3.3950 N.pl3  85  ARG85       0.1354
     12  N         13.1300   33.0270   15.2160 N.3    89  TYR89      -0.1241
     13  CA        12.6880   34.4230   15.4650 C.3    89  TYR89       0.1605
     14  C         11.4120   34.2510   16.2980 C.2    89  TYR89       0.2264
     15  O         10.3630   33.8310   15.8320 O.2    89  TYR89      -0.2867
     16  CB        12.3040   35.0730   14.1290 C.3    89  TYR89       0.0534
     17  CG        13.4660   35.3440   13.1360 C.ar   89  TYR89      -0.0201
     18  CD1       14.3690   34.3510   12.7830 C.ar   89  TYR89      -0.0009
     19  CD2       13.5980   36.5960   12.5750 C.ar   89  TYR89      -0.0009
     20  CE1       15.3500   34.5780   11.8760 C.ar   89  TYR89       0.0417
     21  CE2       14.5730   36.8230   11.6040 C.ar   89  TYR89       0.0417
     22  CZ        15.4370   35.7860   11.2710 C.ar   89  TYR89       0.1957
     23  OH        16.4580   36.1150   10.3420 O.3    89  TYR89      -0.2866
     24  N         14.5430   30.5410   10.1280 N.3   102  CYS102     -0.1235
     25  CA        15.2590   30.8680    8.8290 C.3   102  CYS102      0.1677
     26  C         16.4690   29.9610    8.7510 C.2   102  CYS102      0.2270
     27  O         17.2170   29.7640    9.7170 O.2   102  CYS102     -0.2867
     28  CB        15.6500   32.3320    8.8570 C.3   102  CYS102      0.0956
     29  SG        16.7190   32.8310    7.4630 S.3   102  CYS102     -0.0801
     30  N         17.8360   32.2970    1.1130 N.3   181  SER181     -0.1217
     31  CA        17.2790   31.8210    2.4320 C.3   181  SER181      0.1889
     32  C         15.9150   31.2480    2.2810 C.2   181  SER181      0.2288
     33  O         15.1500   31.6790    1.4190 O.2   181  SER181     -0.2866
     34  CB        17.2560   32.9690    3.4640 C.3   181  SER181      0.2089
     35  OG        16.3970   34.0080    2.9360 O.3   181  SER181     -0.2183
     36  N         12.5480   30.8310    4.7510 N.3   183  VAL183     -0.1245
     37  CA        11.9590   31.2070    6.0320 C.3   183  VAL183      0.1561
     38  C         10.6570   30.4240    6.2220 C.2   183  VAL183      0.2260
     39  O          9.7910   30.4710    5.3740 O.2   183  VAL183     -0.2867
     40  CB        11.7450   32.7140    6.2100 C.3   183  VAL183      0.0252
     41  CG1       11.3500   33.0390    7.6920 C.3   183  VAL183      0.0019
     42  CG2       12.9560   33.4980    5.7960 C.3   183  VAL183      0.0019
     43  N          2.2350   42.8780    8.4720 N.3   209  PHE209     -0.1241
     44  CA         3.5530   43.4650    8.0660 C.3   209  PHE209      0.1605
     45  C          3.2620   44.5920    7.0920 C.2   209  PHE209      0.2264
     46  O          2.3930   44.4620    6.1830 O.2   209  PHE209     -0.2867
     47  CB         4.4700   42.4400    7.4090 C.3   209  PHE209      0.0534
     48  CG         4.9580   41.4120    8.3710 C.ar  209  PHE209     -0.0203
     49  CD1        5.9330   41.7480    9.3440 C.ar  209  PHE209     -0.0042
     50  CD2        4.4530   40.0890    8.2930 C.ar  209  PHE209     -0.0042
     51  CE1        6.3580   40.7860   10.2970 C.ar  209  PHE209     -0.0003
     52  CE2        4.9100   39.1310    9.2270 C.ar  209  PHE209     -0.0003
     53  CZ         5.8820   39.4740   10.1900 C.ar  209  PHE209     -0.0000
     54  N          6.4790   47.0800    1.7590 N.3   212  HIS212     -0.1241
     55  CA         7.9370   46.9870    1.4710 C.3   212  HIS212      0.1621
     56  C          8.1490   46.4620    0.0780 C.2   212  HIS212      0.2264
     57  O          7.2360   45.9080   -0.5300 O.2   212  HIS212     -0.2867
     58  CB         8.5930   45.9970    2.4880 C.3   212  HIS212      0.0745
     59  CG         8.0230   44.6050    2.4050 C.ar  212  HIS212      0.0817
     60  ND1        6.7900   44.2440    2.9090 N.ar  212  HIS212     -0.2268
     61  CD2        8.5840   43.4760    1.8120 C.ar  212  HIS212      0.1154
     62  CE1        6.6000   42.9140    2.6090 C.ar  212  HIS212      0.1986
     63  NE2        7.6600   42.4540    1.9330 N.ar  212  HIS212     -0.2212
     64  N         10.7950   43.5470   -1.5860 N.3   214  ASP214     -0.1225
     65  CA        11.6770   42.4670   -1.0620 C.3   214  ASP214      0.1805
     66  C         13.1620   42.6930   -1.3270 C.2   214  ASP214      0.2597
     67  O         13.5450   43.3320   -2.3040 O.2   214  ASP214     -0.2718
     68  CB        11.3260   41.1510   -1.7310 C.3   214  ASP214      0.1424
     69  CG        10.0740   40.5500   -1.2050 C.2   214  ASP214      0.3668
     70  OD1        9.5460   40.9580   -0.1200 O.co2 214  ASP214     -0.2456
     71  OD2        9.4740   39.6830   -1.8590 O.co2 214  ASP214     -0.2456
     72  N         13.9540   42.2190   -0.3780 N.am  215  VAL215     -0.1980
     73  CA        15.4450   42.1800   -0.5140 C.3   215  VAL215      0.1595
     74  C         15.7220   40.8180   -1.1100 C.2   215  VAL215      0.2287
     75  O         15.7930   39.7790   -0.4050 O.2   215  VAL215     -0.2864
     76  CB        16.0890   42.3830    0.8560 C.3   215  VAL215      0.0276
     77  CG1       17.6300   42.3720    0.6710 C.3   215  VAL215      0.0022
     78  CG2       15.7000   43.7550    1.4380 C.3   215  VAL215      0.0022
     79  N          4.4300   45.6000   -1.5950 N.3   268  HIS268     -0.1241
     80  CA         3.3550   44.7550   -1.1250 C.3   268  HIS268      0.1621
     81  C          3.3420   44.7700    0.3780 C.2   268  HIS268      0.2264
     82  O          4.3100   45.1890    1.0660 O.2   268  HIS268     -0.2867
     83  CB         3.5370   43.3170   -1.7290 C.3   268  HIS268      0.0745
     84  CG         4.8570   42.7220   -1.4570 C.ar  268  HIS268      0.0817
     85  ND1        6.0040   43.0430   -2.1080 N.ar  268  HIS268     -0.2268
     86  CD2        5.1860   41.7460   -0.5330 C.ar  268  HIS268      0.1154
     87  CE1        7.0400   42.3240   -1.5710 C.ar  268  HIS268      0.1986
     88  NE2        6.5210   41.4990   -0.6230 N.ar  268  HIS268     -0.2212
     89  N          1.2440   42.6510    4.0560 N.3   270  VAL270     -0.1245
     90  CA         0.5380   41.4190    4.5500 C.3   270  VAL270      0.1561
     91  C         -0.6350   41.8440    5.4500 C.2   270  VAL270      0.2260
     92  O         -0.3760   42.4290    6.5320 O.2   270  VAL270     -0.2867
     93  CB         1.5300   40.5310    5.3430 C.3   270  VAL270      0.0252
     94  CG1        0.7850   39.2870    5.8840 C.3   270  VAL270      0.0019
     95  CG2        2.8320   40.2220    4.5320 C.3   270  VAL270      0.0019
     96  N         13.9700   33.3780   -0.6280 N.3   283  PHE283     -0.1241
     97  CA        14.5190   34.6440   -1.2000 C.3   283  PHE283      0.1605
     98  C         15.7140   34.2450   -2.0180 C.2   283  PHE283      0.2264
     99  O         16.7280   33.7720   -1.4900 O.2   283  PHE283     -0.2867
    100  CB        14.8820   35.5780   -0.0290 C.3   283  PHE283      0.0534
    101  CG        13.6750   36.0350    0.7520 C.ar  283  PHE283     -0.0203
    102  CD1       12.7370   36.8900    0.1740 C.ar  283  PHE283     -0.0042
    103  CD2       13.4110   35.5660    2.0700 C.ar  283  PHE283     -0.0042
    104  CE1       11.6080   37.2940    0.8900 C.ar  283  PHE283     -0.0003
    105  CE2       12.2530   35.9900    2.7790 C.ar  283  PHE283     -0.0003
    106  CZ        11.3400   36.8440    2.1750 C.ar  283  PHE283     -0.0000
    107  N         18.8180   34.8520   -3.6770 N.3   285  ASN285     -0.1240
    108  CA        19.9730   35.7820   -3.6120 C.3   285  ASN285      0.1653
    109  C         21.0920   35.1480   -4.3830 C.2   285  ASN285      0.2266
    110  O         21.2430   33.8920   -4.4850 O.2   285  ASN285     -0.2867
    111  CB        20.3910   35.9050   -2.1410 C.3   285  ASN285      0.1155
    112  CG        19.3540   36.6480   -1.2920 C.2   285  ASN285      0.2627
    113  OD1       18.6860   37.6080   -1.7920 O.2   285  ASN285     -0.2716
    114  ND2       19.0950   36.2310   -0.0490 N.am  285  ASN285     -0.0877
    115  N         19.1010   44.0790    4.2870 N.3   319  LEU319     -0.1245
    116  CA        18.4980   43.3790    5.4100 C.3   319  LEU319      0.1561
    117  C         18.3910   44.3380    6.5900 C.2   319  LEU319      0.2260
    118  O         17.3660   44.3700    7.2910 O.2   319  LEU319     -0.2867
    119  CB        19.3170   42.1220    5.7650 C.3   319  LEU319      0.0270
    120  CG        19.3190   41.0120    4.6930 C.3   319  LEU319      0.0019
    121  CD1       20.3640   39.9430    5.1000 C.3   319  LEU319      0.0001
    122  CD2       17.8840   40.5260    4.4670 C.3   319  LEU319      0.0001
    123  N         15.5180   46.9740    5.9550 N.3   322  LEU322     -0.1245
    124  CA        14.2060   46.3970    6.1060 C.3   322  LEU322      0.1561
    125  C         13.8170   46.2860    7.5990 C.2   322  LEU322      0.2260
    126  O         12.6830   46.6240    7.9810 O.2   322  LEU322     -0.2867
    127  CB        14.2020   45.0410    5.4090 C.3   322  LEU322      0.0270
    128  CG        12.8280   44.4120    5.2740 C.3   322  LEU322      0.0019
    129  CD1       11.8010   45.3830    4.6690 C.3   322  LEU322      0.0001
    130  CD2       13.0880   43.1780    4.4090 C.3   322  LEU322      0.0001
    131  N         10.5660   48.3270    8.9790 N.3   326  ASN326     -0.1225
    132  CA         9.3570   47.6170    9.3860 C.3   326  ASN326      0.1785
    133  C          9.5030   46.8210   10.6840 C.2   326  ASN326      0.2597
    134  O          8.5390   46.1470   11.0950 O.2   326  ASN326     -0.2718
    135  CB         8.8670   46.7370    8.2340 C.3   326  ASN326      0.1169
    136  CG         8.1870   47.5300    7.1400 C.2   326  ASN326      0.2627
    137  OD1        8.0900   48.7720    7.2030 O.2   326  ASN326     -0.2716
    138  ND2        7.6780   46.8120    6.1290 N.am  326  ASN326     -0.0877
    139  N         10.6790   46.9170   11.3080 N.am  327  GLY327     -0.1957
    140  CA        10.9010   46.2940   12.6200 C.3   327  GLY327      0.1869
    141  C         11.4490   44.8690   12.5820 C.2   327  GLY327      0.2309
    142  O         11.3610   44.1520   11.5730 O.2   327  GLY327     -0.2863
    143  N         11.5760   41.0990   12.7790 N.3   329  THR329     -0.1218
    144  CA        10.5820   40.0170   12.5940 C.3   329  THR329      0.1862
    145  C         10.8730   38.8500   13.5200 C.2   329  THR329      0.2287
    146  O         10.0410   37.8980   13.4970 O.2   329  THR329     -0.2866
    147  CB        10.4580   39.5200   11.1160 C.3   329  THR329      0.1770
    148  OG1       11.6230   38.7910   10.7260 O.3   329  THR329     -0.2211
    149  CG2       10.2960   40.7450   10.1940 C.3   329  THR329      0.0375
@<TRIPOS>BOND
     1   110   109    2
     2   109   108    1
     3   107   108    1
     4   108   111    1
     5    67    66    2
     6   111   112    1
     7    85    87   ar
     8    85    84   ar
     9    98    99    2
    10    98    97    1
    11    71    69   ar
    12   113   112    2
    13    68    69    1
    14    68    65    1
    15    83    84    1
    16    83    80    1
    17    79    80    1
    18    64    65    1
    19    87    88   ar
    20    84    86   ar
    21    66    65    1
    22    66    72   am
    23   112   114   am
    24    69    70   ar
    25    97    96    1
    26    97   100    1
    27    80    81    1
    28    74    73    1
    29    74    75    2
    30    88    86   ar
    31    57    56    2
    32    73    72    1
    33    73    76    1
    34   100   101    1
    35    56    55    1
    36   102   101   ar
    37   102   104   ar
    38    81    82    2
    39    77    76    1
    40   101   103   ar
    41    76    78    1
    42   104   106   ar
    43    30    31    1
    44    33    32    2
    45    55    54    1
    46    55    58    1
    47    61    63   ar
    48    61    59   ar
    49    63    62   ar
    50   103   105   ar
    51   106   105   ar
    52    32    31    1
    53    59    58    1
    54    59    60   ar
    55    31    34    1
    56    62    60   ar
    57    35    34    1
    58    11     9    1
    59    10     9    1
    60    89    90    1
    61     9     8    2
    62   115   116    1
    63   130   128    1
    64   122   120    1
    65    95    93    1
    66    90    93    1
    67    90    91    1
    68   129   128    1
    69   120   121    1
    70   120   119    1
    71    36    37    1
    72   128   127    1
    73    93    94    1
    74    39    38    2
    75   127   124    1
    76   116   119    1
    77   116   117    1
    78     8     7    1
    79    91    92    2
    80    42    40    1
    81   123   124    1
    82    37    40    1
    83    37    38    1
    84   124   125    1
    85   138   136   am
    86    46    45    2
    87    40    41    1
    88     7     6    1
    89   117   118    2
    90    45    44    1
    91   136   137    2
    92   136   135    1
    93    47    44    1
    94    47    48    1
    95    29    28    1
    96   125   126    2
    97     6     5    1
    98    44    43    1
    99   135   132    1
   100    50    48   ar
   101    50    52   ar
   102    48    49   ar
   103     5     2    1
   104    26    25    1
   105    26    27    2
   106    25    28    1
   107    25    24    1
   108   131   132    1
   109    52    53   ar
   110    49    51   ar
   111   132   133    1
   112     2     3    1
   113     2     1    1
   114     4     3    2
   115    53    51   ar
   116   149   147    1
   117    23    22    1
   118   133   134    2
   119   133   139   am
   120   148   147    1
   121   147   144    1
   122    22    21   ar
   123    22    20   ar
   124   139   140    1
   125   142   141    2
   126    21    19   ar
   127    20    18   ar
   128    19    17   ar
   129   141   140    1
   130   144   143    1
   131   144   145    1
   132    18    17   ar
   133    17    16    1
   134   146   145    2
   135    16    13    1
   136    12    13    1
   137    13    14    1
   138    15    14    2
