@<TRIPOS>MOLECULE
tmp/4bb4A00.pdb
 173 164 0 0 0
SMALL
GASTEIGER

@<TRIPOS>ATOM
      1  N         12.1750   13.6080   21.5290 N.3    14  GLU14      -0.1182
      2  CA        11.4370   14.5910   20.7100 C.3    14  GLU14       0.1915
      3  C         10.5880   13.9330   19.6300 C.2    14  GLU14       0.2634
      4  O         10.9020   12.8180   19.2180 O.2    14  GLU14      -0.2714
      5  CB        12.3840   15.6260   20.0610 C.2    14  GLU14       0.0085
      6  CG        13.4200   15.0500   19.1040 C.2    14  GLU14       0.0835
      7  CD        14.2710   16.0640   18.3630 C.2    14  GLU14       0.3877
      8  OE1       13.7290   17.1120   17.9390 O.co2  14  GLU14      -0.2406
      9  OE2       15.4750   15.7830   18.1610 O.co2  14  GLU14      -0.2406
     10  N          9.5450   14.6490   19.1350 N.am   15  VAL15      -0.1963
     11  CA         8.6830   14.1810   18.0410 C.3    15  VAL15       0.1727
     12  C          9.4510   14.4560   16.7500 C.2    15  VAL15       0.2616
     13  O          9.8940   15.5890   16.5200 O.2    15  VAL15      -0.2715
     14  CB         7.2720   14.8460   18.0380 C.3    15  VAL15       0.0290
     15  CG1        6.3930   14.2870   16.9110 C.3    15  VAL15       0.0023
     16  CG2        6.5800   14.6790   19.3900 C.3    15  VAL15       0.0023
     17  N          9.6510   13.4130   15.9450 N.am   16  ILE16      -0.1963
     18  CA        10.4310   13.4830   14.7090 C.3    16  ILE16       0.1727
     19  C          9.5910   13.2360   13.4600 C.2    16  ILE16       0.2616
     20  O         10.0870   13.3690   12.3440 O.2    16  ILE16      -0.2715
     21  CB        11.6700   12.5320   14.7900 C.3    16  ILE16       0.0290
     22  CG1       11.2180   11.0550   14.9810 C.3    16  ILE16       0.0022
     23  CG2       12.6440   13.0040   15.8980 C.3    16  ILE16       0.0023
     24  CD1       12.2780    9.9800   14.8840 C.3    16  ILE16       0.0001
     25  N          8.3370   12.8700   13.6540 N.am   17  GLY17      -0.1955
     26  CA         7.4420   12.6060   12.5390 C.3    17  GLY17       0.1869
     27  C          6.0290   12.2480   12.9430 C.2    17  GLY17       0.2309
     28  O          5.6960   12.1920   14.1310 O.2    17  GLY17      -0.2863
     29  N          5.7140    9.7980   15.8860 N.3    24  VAL24      -0.1245
     30  CA         6.9780    9.0800   15.7560 C.3    24  VAL24       0.1561
     31  C          7.9560    9.9380   16.5550 C.2    24  VAL24       0.2260
     32  O          8.0490   11.1490   16.3190 O.2    24  VAL24      -0.2867
     33  CB         7.4410    8.8350   14.2930 C.3    24  VAL24       0.0252
     34  CG1        8.8250    8.1870   14.2570 C.3    24  VAL24       0.0019
     35  CG2        6.4280    7.9790   13.5320 C.3    24  VAL24       0.0019
     36  N         13.8080    4.7680   17.5890 N.3    40  ALA40      -0.1231
     37  CA        12.6620    5.4560   17.0400 C.3    40  ALA40       0.1694
     38  C         11.5040    4.7960   17.7550 C.2    40  ALA40       0.2592
     39  O         11.5460    3.5880   18.0090 O.2    40  ALA40      -0.2718
     40  CB        12.5520    5.2420   15.5540 C.3    40  ALA40       0.0304
     41  N         10.5130    5.5920   18.1450 N.am   41  ILE41      -0.1966
     42  CA         9.3760    5.0950   18.9190 C.3    41  ILE41       0.1727
     43  C          8.0550    5.4300   18.2280 C.2    41  ILE41       0.2616
     44  O          7.7590    6.6110   18.0240 O.2    41  ILE41      -0.2715
     45  CB         9.3960    5.6620   20.3770 C.3    41  ILE41       0.0290
     46  CG1       10.7200    5.3530   21.1060 C.3    41  ILE41       0.0022
     47  CG2        8.1640    5.1710   21.1920 C.3    41  ILE41       0.0023
     48  CD1       11.0280    6.2960   22.3030 C.3    41  ILE41       0.0001
     49  N          7.2340    4.3980   17.9540 N.am   42  LYS42      -0.1977
     50  CA         5.8830    4.6030   17.4270 C.3    42  LYS42       0.1596
     51  C          4.9160    4.3760   18.5790 C.2    42  LYS42       0.2287
     52  O          4.9800    3.3330   19.2380 O.2    42  LYS42      -0.2864
     53  CB         5.5860    3.6900   16.2260 C.3    42  LYS42       0.0298
     54  CG         5.3280    4.4910   14.9500 C.3    42  LYS42       0.0038
     55  CD         5.4860    3.6920   13.6520 C.3    42  LYS42       0.0206
     56  CE         4.4720    2.5900   13.4780 C.3    42  LYS42       0.1093
     57  NZ         4.2170    2.3000   12.0420 N.3    42  LYS42      -0.1314
     58  N          2.8620   -5.3610   13.5690 N.3    56  GLU56      -0.1245
     59  CA         4.0900   -4.8060   12.9740 C.3    56  GLU56       0.1567
     60  C          5.2880   -5.2810   13.7780 C.2    56  GLU56       0.2260
     61  O          6.2740   -5.7530   13.2080 O.2    56  GLU56      -0.2867
     62  CB         4.0540   -3.2610   12.9470 C.3    56  GLU56       0.0388
     63  CG         5.3870   -2.6440   12.5370 C.3    56  GLU56       0.1160
     64  CD         5.3440   -1.3770   11.7120 C.2    56  GLU56       0.3649
     65  OE1        4.6230   -0.4310   12.1030 O.co2  56  GLU56      -0.2457
     66  OE2        6.0960   -1.3010   10.7130 O.co2  56  GLU56      -0.2457
     67  N          8.2990   -8.0350   12.7060 N.3    60  MET60      -0.1245
     68  CA         9.6110   -7.3810   12.7060 C.3    60  MET60       0.1570
     69  C         10.5800   -8.1450   13.6190 C.2    60  MET60       0.2261
     70  O         11.7250   -8.3730   13.2300 O.2    60  MET60      -0.2867
     71  CB         9.4780   -5.9150   13.1650 C.3    60  MET60       0.0387
     72  CG        10.5010   -5.0070   12.5740 C.3    60  MET60       0.0595
     73  SD        10.4760   -3.3350   13.2950 S.3    60  MET60      -0.1393
     74  CE         9.0850   -2.6750   12.5460 C.3    60  MET60       0.0692
     75  N         14.5680   -3.1710    9.0430 N.3    69  ILE69      -0.1245
     76  CA        14.5400   -2.4060   10.2990 C.3    69  ILE69       0.1561
     77  C         14.4820   -3.3540   11.5120 C.2    69  ILE69       0.2260
     78  O         13.6990   -4.3120   11.5070 O.2    69  ILE69      -0.2867
     79  CB        13.3690   -1.3680   10.2620 C.3    69  ILE69       0.0252
     80  CG1       13.7250   -0.2050    9.2980 C.3    69  ILE69       0.0019
     81  CG2       12.9850   -0.8370   11.6550 C.3    69  ILE69       0.0019
     82  CD1       14.9780    0.7000    9.7580 C.3    69  ILE69       0.0001
     83  N          6.1100    0.8090   20.0890 N.3    83  ILE83      -0.1245
     84  CA         6.9880   -0.0330   19.2710 C.3    83  ILE83       0.1561
     85  C          8.3080    0.7440   19.1700 C.2    83  ILE83       0.2260
     86  O          8.3260    1.8950   18.7230 O.2    83  ILE83      -0.2867
     87  CB         6.4120   -0.3650   17.8630 C.3    83  ILE83       0.0252
     88  CG1        5.0600   -1.1100   17.9640 C.3    83  ILE83       0.0019
     89  CG2        7.4350   -1.1440   17.0020 C.3    83  ILE83       0.0019
     90  CD1        4.3230   -1.2010   16.6340 C.3    83  ILE83       0.0001
     91  N         12.1650    0.7950   17.5790 N.3    85  THR85      -0.1203
     92  CA        13.0360    0.2310   16.5450 C.3    85  THR85       0.1994
     93  C         14.3750    0.9290   16.6050 C.2    85  THR85       0.2618
     94  O         14.4830    1.9600   17.2740 O.2    85  THR85      -0.2717
     95  CB        12.4160    0.4040   15.1330 C.3    85  THR85       0.1784
     96  OG1       12.2770    1.8050   14.8270 O.3    85  THR85      -0.2211
     97  CG2       11.0750   -0.3090   14.9900 C.3    85  THR85       0.0376
     98  N         15.3710    0.4440   15.8320 N.am   86  GLU86      -0.1965
     99  CA        16.6390    1.1630   15.7250 C.3    86  GLU86       0.1733
    100  C         16.3330    2.5560   15.1160 C.2    86  GLU86       0.2616
    101  O         15.3730    2.7080   14.3440 O.2    86  GLU86      -0.2715
    102  CB        17.6290    0.4020   14.8330 C.3    86  GLU86       0.0429
    103  CG        17.1410    0.1840   13.4070 C.3    86  GLU86       0.1163
    104  CD        18.1000   -0.5900   12.5220 C.2    86  GLU86       0.3649
    105  OE1       19.2940   -0.2240   12.4660 O.co2  86  GLU86      -0.2457
    106  OE2       17.6460   -1.5550   11.8710 O.co2  86  GLU86      -0.2457
    107  N         17.0970    3.5540   15.5130 N.am   87  PHE87      -0.1960
    108  CA        16.9160    4.9070   14.9830 C.3    87  PHE87       0.1771
    109  C         17.6870    5.0040   13.6500 C.2    87  PHE87       0.2619
    110  O         18.8000    4.4860   13.5420 O.2    87  PHE87      -0.2715
    111  CB        17.4050    5.9450   15.9920 C.3    87  PHE87       0.0574
    112  CG        17.3090    7.3620   15.4850 C.ar   87  PHE87      -0.0200
    113  CD1       16.0710    7.9450   15.2270 C.ar   87  PHE87      -0.0042
    114  CD2       18.4570    8.1010   15.2230 C.ar   87  PHE87      -0.0042
    115  CE1       15.9830    9.2500   14.7270 C.ar   87  PHE87      -0.0003
    116  CE2       18.3680    9.4180   14.7550 C.ar   87  PHE87      -0.0003
    117  CZ        17.1290    9.9750   14.4880 C.ar   87  PHE87      -0.0000
    118  N         17.0970    5.6630   12.6500 N.am   88  MET88      -0.1963
    119  CA        17.7050    5.8020   11.3230 C.3    88  MET88       0.1736
    120  C         17.8680    7.2850   11.0800 C.2    88  MET88       0.2616
    121  O         16.8930    7.9950   10.8570 O.2    88  MET88      -0.2715
    122  CB        16.8330    5.1290   10.2500 C.3    88  MET88       0.0427
    123  CG        16.6130    3.6360   10.5120 C.3    88  MET88       0.0599
    124  SD        18.1370    2.6980   10.2590 S.3    88  MET88      -0.1393
    125  CE        18.1270    2.5840    8.4680 C.3    88  MET88       0.0692
    126  N         19.0920    7.7590   11.2660 N.am   89  GLU89      -0.1963
    127  CA        19.4580    9.1830   11.2410 C.3    89  GLU89       0.1733
    128  C         18.9060    9.9830   10.0610 C.2    89  GLU89       0.2616
    129  O         18.4860   11.1330   10.2450 O.2    89  GLU89      -0.2715
    130  CB        20.9800    9.3080   11.3440 C.3    89  GLU89       0.0429
    131  CG        21.5290    8.6360   12.6160 C.3    89  GLU89       0.1163
    132  CD        21.9660    7.1700   12.6050 C.2    89  GLU89       0.3649
    133  OE1       21.6150    6.4020   11.6740 O.co2  89  GLU89      -0.2457
    134  OE2       22.6820    6.7910   13.5600 O.co2  89  GLU89      -0.2457
    135  N         18.8890    9.3730    8.8550 N.am   90  ASN90      -0.1958
    136  CA        18.4500   10.0280    7.6250 C.3    90  ASN90       0.1819
    137  C         16.9910    9.8520    7.2220 C.2    90  ASN90       0.2622
    138  O         16.5700   10.3260    6.1560 O.2    90  ASN90      -0.2715
    139  CB        19.4150    9.7380    6.4860 C.3    90  ASN90       0.1195
    140  CG        20.7490   10.4050    6.7200 C.2    90  ASN90       0.2630
    141  OD1       20.8110   11.5970    7.0340 O.2    90  ASN90      -0.2716
    142  ND2       21.8390    9.6730    6.5440 N.am   90  ASN90      -0.0877
    143  N         16.2180    9.2250    8.0950 N.am   91  GLY91      -0.1940
    144  CA        14.7870    9.0700    7.8880 C.3    91  GLY91       0.2014
    145  C         14.3760    8.3660    6.6120 C.2    91  GLY91       0.2638
    146  O         15.0880    7.4820    6.1200 O.2    91  GLY91      -0.2714
    147  N         13.2120    8.7650    6.0800 N.am   92  ALA92      -0.1977
    148  CA        12.6120    8.1480    4.9000 C.3    92  ALA92       0.1597
    149  C         13.4350    8.4560    3.6390 C.2    92  ALA92       0.2287
    150  O         13.8750    9.5930    3.4420 O.2    92  ALA92      -0.2864
    151  CB        11.1660    8.6400    4.7390 C.3    92  ALA92       0.0319
    152  N         14.0040    3.2160    5.1460 N.3   139  LEU139     -0.1245
    153  CA        14.6930    4.1270    6.0920 C.3   139  LEU139      0.1561
    154  C         16.1830    4.0900    5.8480 C.2   139  LEU139      0.2260
    155  O         16.7090    3.0730    5.4060 O.2   139  LEU139     -0.2867
    156  CB        14.3430    3.7960    7.5370 C.3   139  LEU139      0.0270
    157  CG        12.8710    4.0450    7.9230 C.3   139  LEU139      0.0019
    158  CD1       12.5290    3.3280    9.2000 C.3   139  LEU139      0.0001
    159  CD2       12.5670    5.5360    8.0740 C.3   139  LEU139      0.0001
    160  N         11.1100   -1.0410    5.9040 N.3   149  SER149     -0.1202
    161  CA        10.2870   -0.8340    7.0840 C.3   149  SER149      0.2020
    162  C          8.8340   -1.0510    6.6670 C.2   149  SER149      0.2618
    163  O          8.5830   -1.5250    5.5460 O.2   149  SER149     -0.2717
    164  CB        10.5080    0.5820    7.6210 C.3   149  SER149      0.2103
    165  OG         9.7820    0.8110    8.8170 O.3   149  SER149     -0.2182
    166  N          7.8830   -0.6990    7.5510 N.am  150  ASP150     -0.1973
    167  CA         6.4410   -0.7770    7.2920 C.3   150  ASP150      0.1709
    168  C          5.9860   -2.2280    7.1650 C.2   150  ASP150      0.2293
    169  O          5.6720   -2.7060    6.0650 O.2   150  ASP150     -0.2864
    170  CB         6.0650    0.0690    6.0520 C.3   150  ASP150      0.1436
    171  CG         4.6000    0.1160    5.6740 C.2   150  ASP150      0.3671
    172  OD1        3.7590    0.0820    6.5760 O.co2 150  ASP150     -0.2456
    173  OD2        4.3070    0.1330    4.4710 O.co2 150  ASP150     -0.2456
@<TRIPOS>BOND
     1   150   149    2
     2   149   148    1
     3   173   171   ar
     4   151   148    1
     5   148   147    1
     6   152   153    1
     7   155   154    2
     8   163   162    2
     9   171   170    1
    10   171   172   ar
    11   154   153    1
    12   160   161    1
    13   170   167    1
    14   169   168    2
    15   147   145   am
    16   153   156    1
    17   146   145    2
    18   138   137    2
    19   139   140    1
    20   139   136    1
    21   142   140   am
    22   145   144    1
    23   162   161    1
    24   162   166   am
    25   140   141    2
    26   161   164    1
    27   168   167    1
    28   137   136    1
    29   137   143   am
    30   167   166    1
    31   156   157    1
    32   164   165    1
    33   136   135    1
    34   144   143    1
    35   157   159    1
    36   157   158    1
    37   125   124    1
    38   135   128   am
    39    75    76    1
    40    80    82    1
    41    80    79    1
    42   128   129    2
    43   128   127    1
    44   122   123    1
    45   122   119    1
    46   124   123    1
    47    79    76    1
    48    79    81    1
    49    76    77    1
    50    66    64   ar
    51   121   120    2
    52   120   126   am
    53   120   119    1
    54   127   126    1
    55   127   130    1
    56   119   118    1
    57   130   131    1
    58    78    77    2
    59   133   132   ar
    60    64    65   ar
    61    64    63    1
    62   106   104   ar
    63    57    56    1
    64    20    19    2
    65   105   104   ar
    66   104   103    1
    67    63    62    1
    68    26    27    1
    69    26    25    1
    70    74    73    1
    71    72    71    1
    72    72    73    1
    73   132   131    1
    74   132   134   ar
    75   118   109   am
    76    68    67    1
    77    68    71    1
    78    68    69    1
    79    27    28    2
    80    62    59    1
    81    59    58    1
    82    59    60    1
    83    61    60    2
    84    70    69    2
    85   103   102    1
    86    19    25   am
    87    19    18    1
    88    56    55    1
    89    35    33    1
    90   110   109    2
    91   109   108    1
    92    55    54    1
    93    34    33    1
    94    33    30    1
    95   101   100    2
    96   117   115   ar
    97   117   116   ar
    98    18    21    1
    99    18    17    1
   100   115   113   ar
   101   116   114   ar
   102    21    22    1
   103    21    23    1
   104    96    95    1
   105   102    99    1
   106    24    22    1
   107    54    53    1
   108   108   107    1
   109   108   111    1
   110    97    95    1
   111   100   107   am
   112   100    99    1
   113    95    92    1
   114   114   112   ar
   115   113   112   ar
   116   112   111    1
   117    40    37    1
   118    99    98    1
   119    30    29    1
   120    30    31    1
   121    98    93   am
   122    17    12   am
   123    53    50    1
   124    32    31    2
   125    13    12    2
   126    92    93    1
   127    92    91    1
   128    93    94    2
   129    90    88    1
   130    12    11    1
   131    15    14    1
   132    89    87    1
   133    37    36    1
   134    37    38    1
   135    50    49    1
   136    50    51    1
   137    38    39    2
   138    38    41   am
   139    87    88    1
   140    87    84    1
   141     8     7   ar
   142    49    43   am
   143    44    43    2
   144    14    11    1
   145    14    16    1
   146    11    10    1
   147    41    42    1
   148     9     7   ar
   149    43    42    1
   150     7     6    1
   151    51    52    2
   152    86    85    2
   153    42    45    1
   154     6     5    2
   155    10     3   am
   156    85    84    1
   157     4     3    2
   158    84    83    1
   159     3     2    1
   160     5     2    1
   161    45    46    1
   162    45    47    1
   163     2     1    1
   164    46    48    1
