@<TRIPOS>MOLECULE
tmp/4bb5A01.pdb
 177 166 0 0 0
SMALL
GASTEIGER

@<TRIPOS>ATOM
      1  N         18.7240  -13.4880  -41.7750 N.3    95  ILE95      -0.1245
      2  CA        18.8100  -12.0210  -41.7530 C.3    95  ILE95       0.1561
      3  C         19.0820  -11.6120  -43.1900 C.2    95  ILE95       0.2260
      4  O         19.5440  -12.4280  -43.9850 O.2    95  ILE95      -0.2867
      5  CB        19.8880  -11.4080  -40.7830 C.3    95  ILE95       0.0252
      6  CG1       21.3200  -11.9110  -41.0830 C.3    95  ILE95       0.0019
      7  CG2       19.5100  -11.5640  -39.3350 C.3    95  ILE95       0.0019
      8  CD1       22.4940  -10.9500  -40.6600 C.3    95  ILE95       0.0001
      9  N         24.1030   -7.9060  -44.5230 N.3    98  THR98      -0.1218
     10  CA        24.4680   -6.7000  -43.8010 C.3    98  THR98       0.1862
     11  C         25.9770   -6.5670  -43.8060 C.2    98  THR98       0.2287
     12  O         26.6850   -7.5470  -43.5980 O.2    98  THR98      -0.2866
     13  CB        23.9310   -6.8330  -42.3270 C.3    98  THR98       0.1770
     14  OG1       22.5420   -7.1660  -42.3310 O.3    98  THR98      -0.2211
     15  CG2       24.1540   -5.6040  -41.4920 C.3    98  THR98       0.0375
     16  N         29.2690   -3.7010  -42.3270 N.3   100  LEU100     -0.1245
     17  CA        29.5770   -2.6530  -41.3510 C.3   100  LEU100      0.1561
     18  C         29.7470   -1.3330  -42.0690 C.2   100  LEU100      0.2260
     19  O         30.5780   -1.2430  -42.9560 O.2   100  LEU100     -0.2867
     20  CB        30.8430   -2.9760  -40.5270 C.3   100  LEU100      0.0270
     21  CG        30.8410   -4.2510  -39.6640 C.3   100  LEU100      0.0019
     22  CD1       32.0360   -4.2670  -38.7570 C.3   100  LEU100      0.0001
     23  CD2       29.6330   -4.3380  -38.7720 C.3   100  LEU100      0.0001
     24  N         21.3220  -10.9790  -31.2010 N.3   144  SER144     -0.1202
     25  CA        22.7180  -10.5920  -31.0740 C.3   144  SER144      0.2020
     26  C         22.9220   -9.7110  -29.8610 C.2   144  SER144      0.2619
     27  O         21.9640   -9.1210  -29.3630 O.2   144  SER144     -0.2717
     28  CB        23.1410   -9.8350  -32.3440 C.3   144  SER144      0.2103
     29  OG        24.2880   -9.0170  -32.1550 O.3   144  SER144     -0.2182
     30  N         24.1980   -9.5330  -29.4380 N.am  145  LEU145     -0.1965
     31  CA        24.5260   -8.5480  -28.3980 C.3   145  LEU145      0.1728
     32  C         24.0230   -7.1710  -28.9180 C.2   145  LEU145      0.2616
     33  O         23.5560   -6.3570  -28.1400 O.2   145  LEU145     -0.2715
     34  CB        26.0460   -8.4540  -28.1640 C.3   145  LEU145      0.0311
     35  CG        26.8120   -9.6570  -27.5650 C.3   145  LEU145      0.0022
     36  CD1       28.3140   -9.2990  -27.3860 C.3   145  LEU145      0.0001
     37  CD2       26.2140  -10.1660  -26.2110 C.3   145  LEU145      0.0001
     38  N         24.0960   -6.9530  -30.2460 N.am  146  ALA146     -0.1977
     39  CA        23.6300   -5.7230  -30.9130 C.3   146  ALA146      0.1597
     40  C         22.0750   -5.5580  -30.8650 C.2   146  ALA146      0.2287
     41  O         21.5480   -4.5330  -31.2900 O.2   146  ALA146     -0.2864
     42  CB        24.1700   -5.6450  -32.3480 C.3   146  ALA146      0.0319
     43  N         25.8350   -0.4960  -30.5790 N.3   151  TYR151     -0.1228
     44  CA        27.1490   -0.5310  -31.2090 C.3   151  TYR151      0.1721
     45  C         27.1040    0.3330  -32.4340 C.2   151  TYR151      0.2437
     46  O         26.0880    0.3220  -33.1260 O.2   151  TYR151     -0.2733
     47  CB        27.4880   -1.9510  -31.6740 C.3   151  TYR151      0.0547
     48  CG        27.6960   -2.9210  -30.5470 C.ar  151  TYR151     -0.0200
     49  CD1       28.8200   -2.8400  -29.7290 C.ar  151  TYR151     -0.0009
     50  CD2       26.7450   -3.8880  -30.2540 C.ar  151  TYR151     -0.0009
     51  CE1       29.0190   -3.7350  -28.6810 C.ar  151  TYR151      0.0417
     52  CE2       26.9370   -4.7940  -29.2140 C.ar  151  TYR151      0.0417
     53  CZ        28.0850   -4.7220  -28.4390 C.ar  151  TYR151      0.1957
     54  OH        28.2850   -5.5840  -27.3920 O.3   151  TYR151     -0.2866
     55  N         28.2040    1.0150  -32.8080 N.am  152  PRO152     -0.2718
     56  CA        28.1880    1.7360  -34.0960 C.3   152  PRO152      0.1535
     57  C         28.3020    0.7330  -35.2500 C.2   152  PRO152      0.2598
     58  O         28.6940   -0.4310  -35.0300 O.2   152  PRO152     -0.2715
     59  CB        29.4300    2.6400  -34.0220 C.3   152  PRO152      0.0310
     60  CG        30.3430    1.9690  -33.0790 C.3   152  PRO152      0.0237
     61  CD        29.5050    1.1400  -32.1200 C.3   152  PRO152      0.0939
     62  N         27.9690    1.1900  -36.4810 N.am  153  LEU153     -0.1964
     63  CA        28.1240    0.4820  -37.7590 C.3   153  LEU153      0.1728
     64  C         27.0670   -0.5450  -38.1080 C.2   153  LEU153      0.2616
     65  O         27.1530   -1.1400  -39.1760 O.2   153  LEU153     -0.2715
     66  CB        29.5390   -0.1190  -37.9210 C.3   153  LEU153      0.0311
     67  CG        30.7730    0.7700  -37.6250 C.3   153  LEU153      0.0022
     68  CD1       32.0590   -0.0900  -37.6720 C.3   153  LEU153      0.0001
     69  CD2       30.8570    1.9500  -38.5910 C.3   153  LEU153      0.0001
     70  N         26.0880   -0.7720  -37.2150 N.am  154  VAL154     -0.1977
     71  CA        25.0220   -1.7760  -37.3750 C.3   154  VAL154      0.1596
     72  C         23.6520   -1.1740  -37.0180 C.2   154  VAL154      0.2287
     73  O         22.8150   -1.8950  -36.4720 O.2   154  VAL154     -0.2864
     74  CB        25.3140   -3.0570  -36.5190 C.3   154  VAL154      0.0276
     75  CG1       26.4410   -3.8840  -37.1140 C.3   154  VAL154      0.0022
     76  CG2       25.6110   -2.7240  -35.0400 C.3   154  VAL154      0.0022
     77  N         20.5010   -3.0220  -38.4970 N.3   157  TYR157     -0.1241
     78  CA        20.6010   -4.3930  -37.9720 C.3   157  TYR157      0.1605
     79  C         20.2010   -4.4090  -36.4830 C.2   157  TYR157      0.2264
     80  O         19.4320   -5.2650  -36.0790 O.2   157  TYR157     -0.2867
     81  CB        22.0490   -4.8940  -38.1410 C.3   157  TYR157      0.0534
     82  CG        22.3500   -6.2330  -37.4900 C.ar  157  TYR157     -0.0201
     83  CD1       22.0260   -7.4290  -38.1280 C.ar  157  TYR157     -0.0009
     84  CD2       23.0190   -6.3030  -36.2690 C.ar  157  TYR157     -0.0009
     85  CE1       22.3530   -8.6630  -37.5660 C.ar  157  TYR157      0.0417
     86  CE2       23.3590   -7.5360  -35.6960 C.ar  157  TYR157      0.0417
     87  CZ        23.0430   -8.7130  -36.3630 C.ar  157  TYR157      0.1957
     88  OH        23.3950   -9.9290  -35.8290 O.3   157  TYR157     -0.2866
     89  N         23.7100  -13.4620  -29.1560 N.3   189  LEU189     -0.1231
     90  CA        25.0220  -13.9230  -29.5960 C.3   189  LEU189      0.1693
     91  C         26.0280  -12.8280  -29.7610 C.2   189  LEU189      0.2593
     92  O         25.7300  -11.7770  -30.3430 O.2   189  LEU189     -0.2718
     93  CB        24.9390  -14.7000  -30.9300 C.3   189  LEU189      0.0284
     94  CG        23.8470  -15.7490  -31.1170 C.3   189  LEU189      0.0019
     95  CD1       23.9490  -16.3760  -32.5070 C.3   189  LEU189      0.0001
     96  CD2       23.8770  -16.8180  -30.0110 C.3   189  LEU189      0.0001
     97  N         27.2460  -13.1410  -29.3540 N.am  190  GLY190     -0.1942
     98  CA        28.3920  -12.2800  -29.5950 C.3   190  GLY190      0.2014
     99  C         28.9110  -12.5940  -30.9800 C.2   190  GLY190      0.2639
    100  O         28.2060  -13.2290  -31.7740 O.2   190  GLY190     -0.2714
    101  N         30.1320  -12.1820  -31.2900 N.am  191  LEU191     -0.1963
    102  CA        30.7210  -12.4460  -32.6050 C.3   191  LEU191      0.1728
    103  C         31.0090  -13.9300  -32.8190 C.2   191  LEU191      0.2616
    104  O         31.6220  -14.5730  -31.9730 O.2   191  LEU191     -0.2715
    105  CB        31.9770  -11.5880  -32.7670 C.3   191  LEU191      0.0311
    106  CG        32.3900  -11.2290  -34.1740 C.3   191  LEU191      0.0022
    107  CD1       31.3230  -10.3680  -34.8660 C.3   191  LEU191      0.0001
    108  CD2       33.7520  -10.5090  -34.1390 C.3   191  LEU191      0.0001
    109  N         30.4750  -14.4940  -33.9110 N.am  192  ILE192     -0.1977
    110  CA        30.5840  -15.9150  -34.2620 C.3   192  ILE192      0.1596
    111  C         31.3930  -16.0540  -35.5540 C.2   192  ILE192      0.2287
    112  O         31.1870  -15.2710  -36.4820 O.2   192  ILE192     -0.2864
    113  CB        29.1700  -16.5860  -34.3750 C.3   192  ILE192      0.0276
    114  CG1       28.1950  -16.1930  -33.2190 C.3   192  ILE192      0.0022
    115  CG2       29.2580  -18.1040  -34.5710 C.3   192  ILE192      0.0022
    116  CD1       28.6060  -16.5650  -31.7670 C.3   192  ILE192      0.0001
    117  N         31.4230  -17.2650  -38.4550 N.3   194  THR194     -0.1218
    118  CA        30.8460  -17.6150  -39.7560 C.3   194  THR194      0.1862
    119  C         31.6590  -16.8760  -40.8230 C.2   194  THR194      0.2287
    120  O         32.2450  -15.8280  -40.5310 O.2   194  THR194     -0.2866
    121  CB        29.3480  -17.2880  -39.8410 C.3   194  THR194      0.1770
    122  OG1       29.1510  -15.8710  -39.7460 O.3   194  THR194     -0.2211
    123  CG2       28.5290  -18.0160  -38.7900 C.3   194  THR194      0.0375
    124  N         30.5630  -15.1660  -43.3740 N.3   196  THR196     -0.1203
    125  CA        29.9220  -13.8370  -43.4850 C.3   196  THR196      0.1994
    126  C         30.4650  -12.8630  -42.4190 C.2   196  THR196      0.2617
    127  O         30.8560  -11.7440  -42.7510 O.2   196  THR196     -0.2717
    128  CB        28.3990  -13.9930  -43.3220 C.3   196  THR196      0.1784
    129  OG1       27.9040  -14.7710  -44.3970 O.3   196  THR196     -0.2211
    130  CG2       27.6490  -12.6490  -43.2370 C.3   196  THR196      0.0376
    131  N         30.4880  -13.2990  -41.1420 N.am  197  ALA197     -0.1979
    132  CA        30.9390  -12.4370  -40.0440 C.3   197  ALA197      0.1597
    133  C         32.4180  -12.1200  -40.1320 C.2   197  ALA197      0.2287
    134  O         32.7980  -10.9820  -39.8960 O.2   197  ALA197     -0.2864
    135  CB        30.6220  -13.0610  -38.7020 C.3   197  ALA197      0.0319
    136  N         32.9350   -9.5370  -42.9520 N.3   200  ALA200     -0.1231
    137  CA        32.3700   -8.2280  -42.6050 C.3   200  ALA200      0.1694
    138  C         33.1850   -7.4450  -41.6020 C.2   200  ALA200      0.2591
    139  O         33.3140   -6.2280  -41.7200 O.2   200  ALA200     -0.2718
    140  CB        30.9390   -8.3970  -42.0990 C.3   200  ALA200      0.0304
    141  N         33.7670   -8.1590  -40.6530 N.am  201  VAL201     -0.1980
    142  CA        34.4890   -7.6660  -39.4940 C.3   201  VAL201      0.1595
    143  C         36.0190   -7.4460  -39.6390 C.2   201  VAL201      0.2287
    144  O         36.5860   -6.7030  -38.8330 O.2   201  VAL201     -0.2864
    145  CB        34.0630   -8.6120  -38.3400 C.3   201  VAL201      0.0276
    146  CG1       35.2170   -9.2640  -37.5740 C.3   201  VAL201      0.0022
    147  CG2       33.0060   -7.9850  -37.4410 C.3   201  VAL201      0.0022
    148  N         37.0410   -5.1460  -36.3190 N.3   205  VAL205     -0.1245
    149  CA        36.8430   -5.7520  -35.0100 C.3   205  VAL205      0.1561
    150  C         38.0190   -6.6410  -34.6460 C.2   205  VAL205      0.2260
    151  O         38.3590   -7.5650  -35.3870 O.2   205  VAL205     -0.2867
    152  CB        35.4550   -6.4420  -34.9070 C.3   205  VAL205      0.0252
    153  CG1       35.3210   -7.2230  -33.6090 C.3   205  VAL205      0.0019
    154  CG2       34.3300   -5.4080  -35.0320 C.3   205  VAL205      0.0019
    155  N         38.4490   -8.7850  -32.0350 N.3   207  MET207     -0.1245
    156  CA        38.0680   -9.7560  -31.0130 C.3   207  MET207      0.1570
    157  C         37.8500  -11.1530  -31.5440 C.2   207  MET207      0.2261
    158  O         37.3690  -11.3210  -32.6670 O.2   207  MET207     -0.2867
    159  CB        36.9560   -9.2570  -30.0610 C.3   207  MET207      0.0387
    160  CG        35.5210   -9.4980  -30.5370 C.3   207  MET207      0.0595
    161  SD        34.5470  -10.6910  -29.5530 S.3   207  MET207     -0.1393
    162  CE        34.7850  -10.0490  -27.8690 C.3   207  MET207      0.0692
    163  N         28.7300  -15.6470  -25.9180 N.3   233  ASP233     -0.1239
    164  CA        29.8250  -14.7630  -26.3290 C.3   233  ASP233      0.1674
    165  C         31.1780  -15.3540  -25.9230 C.2   233  ASP233      0.2266
    166  O         31.2580  -16.0910  -24.9380 O.2   233  ASP233     -0.2867
    167  CB        29.6710  -13.2960  -25.8560 C.3   233  ASP233      0.1410
    168  CG        30.7480  -12.3390  -26.4270 C.2   233  ASP233      0.3668
    169  OD1       30.9320  -12.3060  -27.6730 O.co2 233  ASP233     -0.2456
    170  OD2       31.4690  -11.7130  -25.6290 O.co2 233  ASP233     -0.2456
    171  N         31.2530  -10.1640  -20.7750 N.3   238  THR238     -0.1218
    172  CA        30.2030   -9.4390  -21.4920 C.3   238  THR238      0.1862
    173  C         28.9320  -10.1970  -21.1460 C.2   238  THR238      0.2287
    174  O         27.9030   -9.5700  -20.9120 O.2   238  THR238     -0.2866
    175  CB        30.4120   -9.2430  -23.0220 C.3   238  THR238      0.1770
    176  OG1       29.5990  -10.1070  -23.8180 O.3   238  THR238     -0.2211
    177  CG2       31.8490   -9.1950  -23.4570 C.3   238  THR238      0.0375
@<TRIPOS>BOND
     1     9    10    1
     2   129   128    1
     3     4     3    2
     4    11    10    1
     5    11    12    2
     6    10    13    1
     7   125   124    1
     8   125   128    1
     9   125   126    1
    10   128   130    1
    11     3     2    1
    12    19    18    2
    13   136   137    1
    14   127   126    2
    15   137   140    1
    16   137   138    1
    17   126   131   am
    18    14    13    1
    19    13    15    1
    20    16    17    1
    21    18    17    1
    22     1     2    1
    23     2     5    1
    24   139   138    2
    25   138   141   am
    26    17    20    1
    27   131   132    1
    28     6     5    1
    29     6     8    1
    30   119   120    2
    31   119   118    1
    32     5     7    1
    33   141   142    1
    34    20    21    1
    35   133   132    1
    36   133   134    2
    37   132   135    1
    38   121   118    1
    39   121   122    1
    40   121   123    1
    41   118   117    1
    42    21    23    1
    43    21    22    1
    44   143   142    1
    45   143   144    2
    46   142   145    1
    47    65    64    2
    48    69    67    1
    49    77    78    1
    50   145   146    1
    51   145   147    1
    52    81    78    1
    53    81    82    1
    54    83    85   ar
    55    83    82   ar
    56    64    63    1
    57    64    70   am
    58    78    79    1
    59    66    63    1
    60    66    67    1
    61    63    62    1
    62    68    67    1
    63    85    87   ar
    64    82    84   ar
    65    71    70    1
    66    71    72    1
    67    71    74    1
    68    75    74    1
    69    72    73    2
    70    74    76    1
    71    79    80    2
    72   112   111    2
    73    62    57   am
    74    87    88    1
    75    87    86   ar
    76   148   149    1
    77    84    86   ar
    78   111   110    1
    79   151   150    2
    80    57    58    2
    81    57    56    1
    82   154   152    1
    83   149   152    1
    84   149   150    1
    85   152   153    1
    86   107   106    1
    87   115   113    1
    88   113   110    1
    89   113   114    1
    90   110   109    1
    91   106   108    1
    92   106   105    1
    93    56    59    1
    94    56    55    1
    95    59    60    1
    96   109   103   am
    97   114   116    1
    98    46    45    2
    99    60    61    1
   100   103   102    1
   101   103   104    2
   102    55    45   am
   103    55    61    1
   104   105   102    1
   105   158   157    2
   106   102   101    1
   107    95    94    1
   108    45    44    1
   109    42    39    1
   110    28    29    1
   111    28    25    1
   112   155   156    1
   113   100    99    2
   114    47    44    1
   115    47    48    1
   116   157   156    1
   117    41    40    2
   118   101    99   am
   119    44    43    1
   120    24    25    1
   121    94    93    1
   122    94    96    1
   123    25    26    1
   124   156   159    1
   125    99    98    1
   126    93    90    1
   127    39    40    1
   128    39    38    1
   129    48    50   ar
   130    48    49   ar
   131   160   159    1
   132   160   161    1
   133    92    91    2
   134    50    52   ar
   135    38    32   am
   136    26    30   am
   137    26    27    2
   138    91    90    1
   139    91    97   am
   140    49    51   ar
   141    90    89    1
   142    98    97    1
   143   161   162    1
   144    30    31    1
   145    52    53   ar
   146    32    31    1
   147    32    33    2
   148    51    53   ar
   149    53    54    1
   150    31    34    1
   151    34    35    1
   152   169   168   ar
   153    35    36    1
   154    35    37    1
   155   168   167    1
   156   168   170   ar
   157   164   165    1
   158   164   163    1
   159   164   167    1
   160   165   166    2
   161   176   175    1
   162   177   175    1
   163   175   172    1
   164   172   173    1
   165   172   171    1
   166   173   174    2
