@<TRIPOS>MOLECULE
tmp/4bb6B01.pdb
 170 159 0 0 0
SMALL
GASTEIGER

@<TRIPOS>ATOM
      1  N         -0.7940   45.5510   41.8820 N.3    96  ILE96      -0.1245
      2  CA        -1.4660   46.8740   41.8900 C.3    96  ILE96       0.1561
      3  C         -1.0980   47.6480   43.1470 C.2    96  ILE96       0.2260
      4  O         -0.7490   47.0530   44.1630 O.2    96  ILE96      -0.2867
      5  CB        -3.0080   46.7730   41.8880 C.3    96  ILE96       0.0252
      6  CG1       -3.4880   45.8330   43.0050 C.3    96  ILE96       0.0019
      7  CG2       -3.5110   46.3130   40.5560 C.3    96  ILE96       0.0019
      8  CD1       -4.9730   46.0200   43.3510 C.3    96  ILE96       0.0001
      9  N         -5.6120   50.3730   46.9440 N.3    99  THR99      -0.1218
     10  CA        -6.7810   51.1880   46.6110 C.3    99  THR99       0.1862
     11  C         -7.9060   50.9420   47.5810 C.2    99  THR99       0.2287
     12  O         -8.1990   49.8030   47.9340 O.2    99  THR99      -0.2866
     13  CB        -7.3530   50.7870   45.2420 C.3    99  THR99       0.1770
     14  OG1       -6.2710   50.6180   44.3290 O.3    99  THR99      -0.2211
     15  CG2       -8.3240   51.8300   44.7110 C.3    99  THR99       0.0375
     16  N        -12.1780   51.8560   48.0820 N.3   101  LEU101     -0.1245
     17  CA       -13.4020   52.3480   47.5280 C.3   101  LEU101      0.1561
     18  C        -13.7170   53.6840   48.1680 C.2   101  LEU101      0.2260
     19  O        -14.1580   53.7410   49.3100 O.2   101  LEU101     -0.2867
     20  CB       -14.5280   51.3460   47.8460 C.3   101  LEU101      0.0270
     21  CG       -14.3610   49.9200   47.2850 C.3   101  LEU101      0.0019
     22  CD1      -15.5710   49.0500   47.6200 C.3   101  LEU101      0.0001
     23  CD2      -14.1200   49.9860   45.7480 C.3   101  LEU101      0.0001
     24  N         -9.6600   43.7140   35.3150 N.3   145  SER145     -0.1202
     25  CA       -10.8850   43.6040   36.0690 C.3   145  SER145      0.2020
     26  C        -12.0890   43.9900   35.2260 C.2   145  SER145      0.2619
     27  O        -11.9820   44.7060   34.2210 O.2   145  SER145     -0.2717
     28  CB       -10.7990   44.6010   37.2260 C.3   145  SER145      0.2103
     29  OG       -12.0630   44.7580   37.8690 O.3   145  SER145     -0.2182
     30  N        -13.2490   43.5870   35.6870 N.am  146  LEU146     -0.1965
     31  CA       -14.4920   44.1310   35.1630 C.3   146  LEU146      0.1728
     32  C        -14.4400   45.6600   35.1110 C.2   146  LEU146      0.2616
     33  O        -14.9290   46.2720   34.1870 O.2   146  LEU146     -0.2715
     34  CB       -15.6560   43.6910   36.0460 C.3   146  LEU146      0.0311
     35  CG       -16.8060   42.8190   35.5380 C.3   146  LEU146      0.0022
     36  CD1      -16.6790   42.3310   34.0810 C.3   146  LEU146      0.0001
     37  CD2      -17.0480   41.6600   36.5400 C.3   146  LEU146      0.0001
     38  N        -13.8780   46.2610   36.1460 N.am  147  ALA147     -0.1977
     39  CA       -13.7370   47.7040   36.2490 C.3   147  ALA147      0.1597
     40  C        -12.7020   48.2400   35.2750 C.2   147  ALA147      0.2287
     41  O        -12.5260   49.4350   35.2070 O.2   147  ALA147     -0.2864
     42  CB       -13.3520   48.0890   37.6730 C.3   147  ALA147      0.0319
     43  N        -17.7140   51.7930   37.0950 N.3   152  TYR152     -0.1228
     44  CA       -18.2960   51.6530   38.4450 C.3   152  TYR152      0.1721
     45  C        -17.8750   52.8800   39.2760 C.2   152  TYR152      0.2437
     46  O        -16.8100   53.4660   39.0650 O.2   152  TYR152     -0.2733
     47  CB       -17.7480   50.4130   39.1370 C.3   152  TYR152      0.0547
     48  CG       -18.1520   49.1160   38.5020 C.ar  152  TYR152     -0.0200
     49  CD1      -19.4870   48.6970   38.4970 C.ar  152  TYR152     -0.0009
     50  CD2      -17.2100   48.2960   37.8970 C.ar  152  TYR152     -0.0009
     51  CE1      -19.8760   47.5000   37.8920 C.ar  152  TYR152      0.0417
     52  CE2      -17.5840   47.0950   37.3160 C.ar  152  TYR152      0.0417
     53  CZ       -18.9090   46.7120   37.3270 C.ar  152  TYR152      0.1957
     54  OH       -19.2420   45.5450   36.7240 O.3   152  TYR152     -0.2866
     55  N        -18.7280   53.3070   40.1970 N.am  153  PRO153     -0.2718
     56  CA       -18.2620   54.3800   41.0680 C.3   153  PRO153      0.1535
     57  C        -17.2530   53.8510   42.0660 C.2   153  PRO153      0.2598
     58  O        -17.1430   52.6260   42.2620 O.2   153  PRO153     -0.2715
     59  CB       -19.5330   54.8160   41.7990 C.3   153  PRO153      0.0310
     60  CG       -20.3630   53.5220   41.8590 C.3   153  PRO153      0.0237
     61  CD       -20.0900   52.8620   40.5240 C.3   153  PRO153      0.0939
     62  N        -16.5370   54.7890   42.6790 N.am  154  LEU154     -0.1964
     63  CA       -15.6820   54.5410   43.8360 C.3   154  LEU154      0.1728
     64  C        -14.2930   53.9540   43.4740 C.2   154  LEU154      0.2616
     65  O        -13.5110   53.6740   44.3480 O.2   154  LEU154     -0.2715
     66  CB       -16.3860   53.6700   44.8830 C.3   154  LEU154      0.0311
     67  CG       -17.8170   54.0140   45.3520 C.3   154  LEU154      0.0022
     68  CD1      -18.2860   52.9260   46.3170 C.3   154  LEU154      0.0001
     69  CD2      -17.9320   55.4110   46.0180 C.3   154  LEU154      0.0001
     70  N        -13.9580   53.8550   42.2000 N.am  155  VAL155     -0.1977
     71  CA       -12.6670   53.3380   41.7850 C.3   155  VAL155      0.1596
     72  C        -12.1370   54.0620   40.5390 C.2   155  VAL155      0.2287
     73  O        -11.5960   53.4230   39.6220 O.2   155  VAL155     -0.2864
     74  CB       -12.7630   51.8290   41.4530 C.3   155  VAL155      0.0276
     75  CG1      -12.8070   51.0230   42.7090 C.3   155  VAL155      0.0022
     76  CG2      -13.9770   51.5210   40.4600 C.3   155  VAL155      0.0022
     77  N         -8.2590   53.6580   39.7770 N.3   158  TYR158     -0.1241
     78  CA        -8.0820   52.2360   39.4790 C.3   158  TYR158      0.1605
     79  C         -8.5900   51.8480   38.0740 C.2   158  TYR158      0.2264
     80  O         -7.9030   51.1630   37.3000 O.2   158  TYR158     -0.2867
     81  CB        -8.8440   51.4480   40.5530 C.3   158  TYR158      0.0534
     82  CG        -8.8120   49.9590   40.4210 C.ar  158  TYR158     -0.0201
     83  CD1       -7.6720   49.2430   40.6990 C.ar  158  TYR158     -0.0009
     84  CD2       -9.9430   49.2480   40.0610 C.ar  158  TYR158     -0.0009
     85  CE1       -7.6560   47.8560   40.6040 C.ar  158  TYR158      0.0417
     86  CE2       -9.9280   47.8870   39.9600 C.ar  158  TYR158      0.0417
     87  CZ        -8.7960   47.1930   40.2340 C.ar  158  TYR158      0.1957
     88  OH        -8.7840   45.8300   40.1220 O.3   158  TYR158     -0.2866
     89  N        -11.3790   40.0590   35.4910 N.3   190  LEU190     -0.1231
     90  CA       -11.8040   39.3350   36.6850 C.3   190  LEU190      0.1693
     91  C        -12.9630   39.9900   37.3890 C.2   190  LEU190      0.2593
     92  O        -13.0170   41.2150   37.5130 O.2   190  LEU190     -0.2718
     93  CB       -10.6750   39.2090   37.6940 C.3   190  LEU190      0.0284
     94  CG        -9.3730   38.5140   37.2800 C.3   190  LEU190      0.0019
     95  CD1       -8.5890   38.0890   38.5660 C.3   190  LEU190      0.0001
     96  CD2       -9.5960   37.3050   36.3460 C.3   190  LEU190      0.0001
     97  N        -13.8840   39.1470   37.8730 N.am  191  GLY191     -0.1942
     98  CA       -14.8600   39.5540   38.8600 C.3   191  GLY191      0.2014
     99  C        -14.2490   39.5790   40.2540 C.2   191  GLY191      0.2638
    100  O        -13.0260   39.4320   40.4000 O.2   191  GLY191     -0.2714
    101  N        -15.1110   39.7790   41.2610 N.am  192  LEU192     -0.1977
    102  CA       -14.7400   39.8370   42.6450 C.3   192  LEU192      0.1596
    103  C        -14.1790   38.4830   43.0720 C.2   192  LEU192      0.2287
    104  O        -14.8350   37.4620   42.8750 O.2   192  LEU192     -0.2864
    105  CB       -15.9510   40.2340   43.5010 C.3   192  LEU192      0.0297
    106  CG       -15.7080   40.3670   45.0400 C.3   192  LEU192      0.0022
    107  CD1      -15.1850   41.7540   45.3980 C.3   192  LEU192      0.0001
    108  CD2      -16.9460   40.0470   45.8690 C.3   192  LEU192      0.0001
    109  N         -9.8670   37.1550   47.7410 N.3   195  THR195     -0.1218
    110  CA        -8.5800   37.4980   48.3240 C.3   195  THR195      0.1862
    111  C         -8.8030   38.4500   49.4870 C.2   195  THR195      0.2287
    112  O         -9.8220   39.1760   49.5640 O.2   195  THR195     -0.2866
    113  CB        -7.6520   38.1620   47.3430 C.3   195  THR195      0.1770
    114  OG1       -8.0590   39.5200   47.1920 O.3   195  THR195     -0.2211
    115  CG2       -7.6660   37.4490   46.0070 C.3   195  THR195      0.0375
    116  N         -7.4060   41.1500   50.4710 N.3   197  THR197     -0.1203
    117  CA        -7.5390   42.5550   50.1430 C.3   197  THR197      0.1994
    118  C         -8.9960   42.8390   49.8010 C.2   197  THR197      0.2617
    119  O         -9.5880   43.7620   50.3810 O.2   197  THR197     -0.2717
    120  CB        -6.6660   42.9530   48.9410 C.3   197  THR197      0.1784
    121  OG1       -5.3020   42.6940   49.2630 O.3   197  THR197     -0.2211
    122  CG2       -6.8370   44.4280   48.5600 C.3   197  THR197      0.0376
    123  N         -9.5710   42.0650   48.8720 N.am  198  ALA198     -0.1979
    124  CA       -10.9620   42.3140   48.4380 C.3   198  ALA198      0.1597
    125  C        -11.9480   42.2090   49.6020 C.2   198  ALA198      0.2287
    126  O        -12.7840   43.1030   49.7970 O.2   198  ALA198     -0.2864
    127  CB       -11.3830   41.3830   47.2690 C.3   198  ALA198      0.0319
    128  N        -11.8200   45.1770   51.7900 N.3   201  ALA201     -0.1231
    129  CA       -12.1730   46.4510   51.1450 C.3   201  ALA201      0.1694
    130  C        -13.6680   46.5290   50.8440 C.2   201  ALA201      0.2591
    131  O        -14.2750   47.5950   50.8950 O.2   201  ALA201     -0.2718
    132  CB       -11.3590   46.6380   49.8810 C.3   201  ALA201      0.0304
    133  N        -14.2460   45.3780   50.5580 N.am  202  VAL202     -0.1980
    134  CA       -15.6360   45.2650   50.1570 C.3   202  VAL202      0.1595
    135  C        -16.4390   44.9460   51.3940 C.2   202  VAL202      0.2287
    136  O        -15.9640   44.2350   52.2800 O.2   202  VAL202     -0.2864
    137  CB       -15.7850   44.1420   49.1110 C.3   202  VAL202      0.0276
    138  CG1      -17.1380   43.5330   49.1570 C.3   202  VAL202      0.0022
    139  CG2      -15.4490   44.6690   47.7350 C.3   202  VAL202      0.0022
    140  N        -21.6910   42.0350   49.9250 N.3   206  VAL206     -0.1245
    141  CA       -21.2370   41.4860   48.6330 C.3   206  VAL206      0.1561
    142  C        -20.2850   40.2450   48.7320 C.2   206  VAL206      0.2260
    143  O        -20.0620   39.5420   47.7360 O.2   206  VAL206     -0.2867
    144  CB       -20.5680   42.5990   47.7760 C.3   206  VAL206      0.0252
    145  CG1      -19.9840   42.0240   46.5050 C.3   206  VAL206      0.0019
    146  CG2      -21.5830   43.6970   47.4350 C.3   206  VAL206      0.0019
    147  N        -20.6340   36.5070   46.8430 N.3   209  GLN209     -0.1245
    148  CA       -20.4260   36.1690   45.4450 C.3   209  GLN209      0.1566
    149  C        -18.9880   36.3530   44.9860 C.2   209  GLN209      0.2260
    150  O        -18.7570   36.6370   43.7990 O.2   209  GLN209     -0.2867
    151  CB       -21.3080   37.0670   44.5850 C.3   209  GLN209      0.0367
    152  CG       -22.7010   37.3330   45.1620 C.3   209  GLN209      0.0905
    153  CD       -23.0460   38.8120   45.1800 C.2   209  GLN209      0.2608
    154  OE1      -24.1850   39.1840   44.9030 O.2   209  GLN209     -0.2717
    155  NE2      -22.0630   39.6620   45.4850 N.am  209  GLN209     -0.0878
    156  N        -15.5140   35.0070   36.7180 N.3   234  ASP234     -0.1239
    157  CA       -16.4990   35.6290   37.6020 C.3   234  ASP234      0.1674
    158  C        -17.4250   34.5490   38.1480 C.2   234  ASP234      0.2266
    159  O        -17.7120   33.5780   37.4660 O.2   234  ASP234     -0.2867
    160  CB       -17.3110   36.6390   36.8130 C.3   234  ASP234      0.1410
    161  CG       -18.2290   37.4510   37.6770 C.2   234  ASP234      0.3668
    162  OD1      -19.3300   36.9790   38.0400 O.co2 234  ASP234     -0.2456
    163  OD2      -17.8490   38.5870   38.0050 O.co2 234  ASP234     -0.2456
    164  N        -22.6480   37.3730   34.1580 N.3   239  THR239     -0.1218
    165  CA       -21.7200   38.4670   33.9460 C.3   239  THR239      0.1862
    166  C        -20.7520   38.1650   32.8140 C.2   239  THR239      0.2287
    167  O        -20.3950   39.0620   32.0670 O.2   239  THR239     -0.2866
    168  CB       -20.9830   38.7940   35.2660 C.3   239  THR239      0.1770
    169  OG1      -21.9550   39.3240   36.1810 O.3   239  THR239     -0.2211
    170  CG2      -19.8580   39.7760   35.0790 C.3   239  THR239      0.0375
@<TRIPOS>BOND
     1   167   166    2
     2   166   165    1
     3   165   164    1
     4   165   168    1
     5    36    35    1
     6    33    32    2
     7    27    26    2
     8   170   168    1
     9    32    31    1
    10    32    38   am
    11    31    30    1
    12    31    34    1
    13    41    40    2
    14    26    30   am
    15    26    25    1
    16   168   169    1
    17    40    39    1
    18    24    25    1
    19    89    90    1
    20    35    34    1
    21    35    37    1
    22    25    28    1
    23    38    39    1
    24    39    42    1
    25    96    94    1
    26    90    91    1
    27    90    93    1
    28   156   157    1
    29    54    53    1
    30   160   157    1
    31   160   161    1
    32    43    44    1
    33    28    29    1
    34    94    93    1
    35    94    95    1
    36    80    79    2
    37    52    53   ar
    38    52    50   ar
    39    53    51   ar
    40    91    92    2
    41    91    97   am
    42   159   158    2
    43   157   158    1
    44   161   163   ar
    45   161   162   ar
    46    97    98    1
    47    51    49   ar
    48    50    48   ar
    49    79    78    1
    50    44    47    1
    51    44    45    1
    52    49    48   ar
    53    48    47    1
    54    98    99    1
    55    46    45    2
    56    45    55   am
    57    78    77    1
    58    78    81    1
    59    73    72    2
    60    86    84   ar
    61    86    87   ar
    62    84    82   ar
    63    88    87    1
    64    55    61    1
    65    55    56    1
    66    87    85   ar
    67    99   100    2
    68    99   101   am
    69    82    81    1
    70    82    83   ar
    71    76    74    1
    72    61    60    1
    73    72    71    1
    74     7     5    1
    75    85    83   ar
    76    56    59    1
    77    56    57    1
    78   101   102    1
    79    74    71    1
    80    74    75    1
    81    71    70    1
    82    59    60    1
    83     1     2    1
    84     5     2    1
    85     5     6    1
    86     2     3    1
    87    57    58    2
    88    57    62   am
    89    70    64   am
    90   102   103    1
    91   102   105    1
    92    62    63    1
    93   104   103    2
    94     6     8    1
    95     3     4    2
    96    64    63    1
    97    64    65    2
    98   105   106    1
    99   150   149    2
   100    63    66    1
   101    14    13    1
   102   151   152    1
   103   151   148    1
   104    15    13    1
   105    66    67    1
   106   154   153    2
   107   149   148    1
   108   106   107    1
   109   106   108    1
   110   152   153    1
   111   153   155   am
   112    13    10    1
   113    67    69    1
   114    67    68    1
   115   148   147    1
   116    23    21    1
   117   115   113    1
   118   145   144    1
   119    10     9    1
   120    10    11    1
   121   114   113    1
   122   127   124    1
   123    21    22    1
   124    21    20    1
   125   113   110    1
   126   146   144    1
   127    17    20    1
   128    17    16    1
   129    17    18    1
   130    11    12    2
   131   139   137    1
   132   143   142    2
   133   109   110    1
   134   144   141    1
   135    18    19    2
   136   110   111    1
   137   124   123    1
   138   124   125    1
   139   122   120    1
   140   141   142    1
   141   141   140    1
   142   123   118   am
   143   120   121    1
   144   120   117    1
   145   137   138    1
   146   137   134    1
   147   111   112    2
   148   125   126    2
   149   118   117    1
   150   118   119    2
   151   132   129    1
   152   117   116    1
   153   134   133    1
   154   134   135    1
   155   133   130   am
   156   130   131    2
   157   130   129    1
   158   129   128    1
   159   135   136    2
