@<TRIPOS>MOLECULE
tmp/4bb9A00.pdb
 151 140 0 0 0
SMALL
GASTEIGER

@<TRIPOS>ATOM
      1  N         53.6880   34.9480   13.6350 N.3    97  GLY97      -0.1210
      2  CA        52.5530   34.5970   12.7820 C.3    97  GLY97       0.1956
      3  C         51.2460   34.8670   13.5110 C.2    97  GLY97       0.2612
      4  O         51.1970   34.8540   14.7510 O.2    97  GLY97      -0.2717
      5  N         50.1780   35.1080   12.7590 N.am   98  GLY98      -0.1942
      6  CA        48.8580   35.2900   13.3630 C.3    98  GLY98       0.2014
      7  C         48.8070   36.3190   14.4760 C.2    98  GLY98       0.2640
      8  O         49.3570   37.4180   14.3280 O.2    98  GLY98      -0.2714
      9  N         48.1660   35.9760   15.6180 N.am   99  THR99      -0.1936
     10  CA        48.0760   36.9360   16.7200 C.3    99  THR99       0.2028
     11  C         49.4680   37.3300   17.2290 C.2    99  THR99       0.2642
     12  O         49.6580   38.4640   17.6570 O.2    99  THR99      -0.2714
     13  CB        47.1730   36.4450   17.8620 C.3    99  THR99       0.1808
     14  OG1       45.8400   36.3380   17.3760 O.3    99  THR99      -0.2208
     15  CG2       47.1570   37.4140   19.0620 C.3    99  THR99       0.0379
     16  N         50.4450   36.3940   17.1970 N.am  100  SER100     -0.1949
     17  CA        51.8000   36.7590   17.6370 C.3   100  SER100      0.1924
     18  C         52.3900   37.8520   16.7100 C.2   100  SER100      0.2314
     19  O         53.0280   38.7840   17.1980 O.2   100  SER100     -0.2863
     20  CB        52.6950   35.5300   17.6850 C.3   100  SER100      0.2116
     21  OG        52.3520   34.7270   18.8020 O.3   100  SER100     -0.2180
     22  N         47.1820   32.4110    7.9650 N.3   140  GLU140     -0.1245
     23  CA        47.9830   31.6330    8.9060 C.3   140  GLU140      0.1567
     24  C         49.0060   30.6960    8.2970 C.2   140  GLU140      0.2260
     25  O         50.0370   30.4490    8.9310 O.2   140  GLU140     -0.2867
     26  CB        47.1150   30.8820    9.9230 C.3   140  GLU140      0.0388
     27  CG        46.3180   31.7890   10.8570 C.3   140  GLU140      0.1160
     28  CD        45.0120   32.2910   10.2690 C.2   140  GLU140      0.3649
     29  OE1       44.6490   31.8500    9.1540 O.co2 140  GLU140     -0.2457
     30  OE2       44.3510   33.1280   10.9240 O.co2 140  GLU140     -0.2457
     31  N         53.1050   31.3840    7.8670 N.3   143  GLU143     -0.1245
     32  CA        54.1640   31.1760    8.8550 C.3   143  GLU143      0.1567
     33  C         54.8980   29.8490    8.7050 C.2   143  GLU143      0.2260
     34  O         55.8540   29.6030    9.4490 O.2   143  GLU143     -0.2867
     35  CB        53.6110   31.2650   10.2720 C.3   143  GLU143      0.0388
     36  CG        52.7920   30.0560   10.6900 C.3   143  GLU143      0.1160
     37  CD        52.1360   30.1950   12.0450 C.2   143  GLU143      0.3649
     38  OE1       51.4850   31.2390   12.2880 O.co2 143  GLU143     -0.2457
     39  OE2       52.1750   29.2070   12.8110 O.co2 143  GLU143     -0.2457
     40  N         58.2170   35.8410   18.3830 N.3   168  ILE168     -0.1231
     41  CA        57.1050   35.4690   19.2480 C.3   168  ILE168      0.1692
     42  C         56.3800   34.2790   18.6570 C.2   168  ILE168      0.2593
     43  O         55.8550   34.3780   17.5550 O.2   168  ILE168     -0.2718
     44  CB        56.1130   36.6650   19.3720 C.3   168  ILE168      0.0266
     45  CG1       56.8400   37.9640   19.7880 C.3   168  ILE168      0.0019
     46  CG2       54.9660   36.3040   20.3610 C.3   168  ILE168      0.0020
     47  CD1       55.9890   39.2340   19.5740 C.3   168  ILE168      0.0001
     48  N         56.2860   33.1900   19.4240 N.am  169  SER169     -0.1938
     49  CA        55.5050   32.0240   19.0140 C.3   169  SER169      0.2055
     50  C         55.0140   31.3780   20.2790 C.2   169  SER169      0.2643
     51  O         55.7840   30.7120   20.9710 O.2   169  SER169     -0.2714
     52  CB        56.3410   31.0420   18.1950 C.3   169  SER169      0.2130
     53  OG        55.5200   29.9520   17.7970 O.3   169  SER169     -0.2179
     54  N         53.7230   31.5950   20.6110 N.am  170  VAL170     -0.1963
     55  CA        53.1440   31.0580   21.8320 C.3   170  VAL170      0.1727
     56  C         53.4370   29.5750   22.0170 C.2   170  VAL170      0.2616
     57  O         53.8600   29.1500   23.0980 O.2   170  VAL170     -0.2715
     58  CB        51.6340   31.3720   21.9150 C.3   170  VAL170      0.0290
     59  CG1       50.9620   30.5930   23.0410 C.3   170  VAL170      0.0023
     60  CG2       51.3960   32.8720   22.0770 C.3   170  VAL170      0.0023
     61  N         53.2480   28.8010   20.9540 N.am  171  GLY171     -0.1955
     62  CA        53.4490   27.3600   21.0530 C.3   171  GLY171      0.1869
     63  C         54.8750   26.8970   20.8720 C.2   171  GLY171      0.2309
     64  O         55.1280   25.6900   20.9700 O.2   171  GLY171     -0.2863
     65  N         56.3770   27.1620   18.0090 N.3   173  SER173     -0.1202
     66  CA        55.8780   26.4350   16.8710 C.3   173  SER173      0.2020
     67  C         56.1720   26.9750   15.4950 C.2   173  SER173      0.2618
     68  O         56.4160   26.1860   14.5820 O.2   173  SER173     -0.2717
     69  CB        54.3550   26.3490   17.0400 C.3   173  SER173      0.2103
     70  OG        53.6300   26.1420   15.8380 O.3   173  SER173     -0.2182
     71  N         56.0350   28.2740   15.2940 N.am  174  ALA174     -0.1979
     72  CA        56.0620   28.8590   13.9570 C.3   174  ALA174      0.1597
     73  C         57.3760   28.7230   13.2220 C.2   174  ALA174      0.2287
     74  O         58.3560   29.3300   13.6430 O.2   174  ALA174     -0.2864
     75  CB        55.6390   30.3270   14.0080 C.3   174  ALA174      0.0319
     76  N         44.2490   25.3990   22.9140 N.3   246  GLY246     -0.1225
     77  CA        45.0520   25.8840   21.8010 C.3   246  GLY246      0.1811
     78  C         44.7260   27.2860   21.3420 C.2   246  GLY246      0.2280
     79  O         45.3250   27.7480   20.3700 O.2   246  GLY246     -0.2866
     80  N         45.6780   30.3090   21.4670 N.3   248  SER248     -0.1202
     81  CA        46.8520   31.1040   21.8130 C.3   248  SER248      0.2020
     82  C         46.5980   32.6020   21.7920 C.2   248  SER248      0.2618
     83  O         47.3440   33.3420   22.4430 O.2   248  SER248     -0.2717
     84  CB        48.0090   30.7400   20.8890 C.3   248  SER248      0.2103
     85  OG        47.6720   30.9750   19.5290 O.3   248  SER248     -0.2182
     86  N         45.5520   33.0580   21.0710 N.am  249  ARG249     -0.1979
     87  CA        45.2280   34.4860   21.0240 C.3   249  ARG249      0.1597
     88  C         44.8100   35.0170   22.3920 C.2   249  ARG249      0.2287
     89  O         44.8580   36.2380   22.6000 O.2   249  ARG249     -0.2864
     90  CB        44.1000   34.7510   20.0130 C.3   249  ARG249      0.0334
     91  CG        42.7020   34.3260   20.5110 C.3   249  ARG249      0.0492
     92  CD        41.6980   34.4110   19.3890 C.3   249  ARG249      0.2205
     93  NE        40.3100   34.2510   19.8170 N.pl3 249  ARG249     -0.0865
     94  CZ        39.3730   35.1850   19.6820 C.cat 249  ARG249      0.5346
     95  NH1       39.6820   36.3830   19.2010 N.pl3 249  ARG249      0.1354
     96  NH2       38.1210   34.9290   20.0350 N.pl3 249  ARG249      0.1354
     97  N         40.5770   36.3680   14.1040 N.3   338  GLU338     -0.1245
     98  CA        40.8150   35.0490   14.6730 C.3   338  GLU338      0.1567
     99  C         39.6030   34.1450   14.6840 C.2   338  GLU338      0.2260
    100  O         39.7420   32.9240   14.7860 O.2   338  GLU338     -0.2867
    101  CB        41.4540   35.1520   16.0530 C.3   338  GLU338      0.0388
    102  CG        42.9110   35.5780   16.0050 C.3   338  GLU338      0.1160
    103  CD        43.8900   34.6030   15.3680 C.2   338  GLU338      0.3649
    104  OE1       43.5700   33.9890   14.3260 O.co2 338  GLU338     -0.2457
    105  OE2       45.0280   34.5220   15.8700 O.co2 338  GLU338     -0.2457
    106  N         39.5800   31.1280   11.6160 N.3   341  HIS341     -0.1241
    107  CA        40.1020   29.7890   11.8050 C.3   341  HIS341      0.1621
    108  C         39.5830   29.1190   13.0610 C.2   341  HIS341      0.2264
    109  O         39.5010   27.8920   13.1050 O.2   341  HIS341     -0.2867
    110  CB        41.6570   29.7880   11.7890 C.3   341  HIS341      0.0745
    111  CG        42.2890   29.9570   13.1480 C.ar  341  HIS341      0.0817
    112  ND1       42.5230   31.2120   13.6870 N.ar  341  HIS341     -0.2268
    113  CD2       42.6200   29.0200   14.0720 C.ar  341  HIS341      0.1154
    114  CE1       43.0440   30.9990   14.8900 C.ar  341  HIS341      0.1986
    115  NE2       43.1180   29.6990   15.1660 N.ar  341  HIS341     -0.2212
    116  N         47.1410   26.2180    9.0440 N.3   502  ASN502     -0.1240
    117  CA        48.5880   26.0500    9.0700 C.3   502  ASN502      0.1653
    118  C         48.9480   24.6880    9.6500 C.2   502  ASN502      0.2266
    119  O         48.0630   23.9430   10.0980 O.2   502  ASN502     -0.2867
    120  CB        49.3470   27.2230    9.7040 C.3   502  ASN502      0.1155
    121  CG        49.1570   27.3830   11.1780 C.2   502  ASN502      0.2627
    122  OD1       48.7700   26.4520   11.9040 O.2   502  ASN502     -0.2716
    123  ND2       49.4780   28.5740   11.6560 N.am  502  ASN502     -0.0877
    124  N         50.4830   23.8240   12.4620 N.3   504  LYS504     -0.1231
    125  CA        50.1390   23.6450   13.8740 C.3   504  LYS504      0.1693
    126  C         48.6650   23.1970   13.9810 C.2   504  LYS504      0.2591
    127  O         48.3410   22.3140   14.7740 O.2   504  LYS504     -0.2718
    128  CB        50.3520   24.9660   14.6480 C.3   504  LYS504      0.0285
    129  CG        50.0350   24.8210   16.1480 C.3   504  LYS504      0.0035
    130  CD        50.1510   26.1130   16.9510 C.3   504  LYS504      0.0206
    131  CE        49.0650   27.0950   16.5680 C.3   504  LYS504      0.1093
    132  NZ        49.0740   28.3130   17.4440 N.3   504  LYS504     -0.1314
    133  N         47.7780   23.8250   13.1820 N.am  505  LEU505     -0.1980
    134  CA        46.3580   23.5230   13.2180 C.3   505  LEU505      0.1596
    135  C         46.0540   22.1550   12.6330 C.2   505  LEU505      0.2287
    136  O         45.1500   21.4980   13.1280 O.2   505  LEU505     -0.2864
    137  CB        45.5650   24.6370   12.5380 C.3   505  LEU505      0.0297
    138  CG        45.7400   26.0120   13.2050 C.3   505  LEU505      0.0022
    139  CD1       45.1200   27.1120   12.3550 C.3   505  LEU505      0.0001
    140  CD2       45.1590   26.0280   14.6270 C.3   505  LEU505      0.0001
    141  N         46.7190   19.8200   15.3980 N.3   508  ARG508     -0.1245
    142  CA        45.6680   19.9280   16.3950 C.3   508  ARG508      0.1563
    143  C         44.4350   19.1330   15.9320 C.2   508  ARG508      0.2260
    144  O         43.7990   18.4690   16.7400 O.2   508  ARG508     -0.2867
    145  CB        45.3150   21.4020   16.5910 C.3   508  ARG508      0.0307
    146  CG        44.2430   21.6440   17.6460 C.3   508  ARG508      0.0489
    147  CD        43.9420   23.1120   17.8670 C.3   508  ARG508      0.2205
    148  NE        45.1390   23.8280   18.3020 N.pl3 508  ARG508     -0.0865
    149  CZ        45.2570   25.1500   18.3030 C.cat 508  ARG508      0.5346
    150  NH1       44.2260   25.9160   17.9490 N.pl3 508  ARG508      0.1354
    151  NH2       46.4100   25.7180   18.6430 N.pl3 508  ARG508      0.1354
@<TRIPOS>BOND
     1    31    32    1
     2    22    23    1
     3    24    23    1
     4    24    25    2
     5    33    32    1
     6    33    34    2
     7    32    35    1
     8    23    26    1
     9   116   117    1
    10   117   118    1
    11   117   120    1
    12    29    28   ar
    13   118   119    2
    14   120   121    1
    15    26    27    1
    16    28    27    1
    17    28    30   ar
    18    35    36    1
    19    36    37    1
    20   121   123   am
    21   121   122    2
    22   106   107    1
    23   110   107    1
    24   110   111    1
    25   107   108    1
    26    37    38   ar
    27    37    39   ar
    28   139   138    1
    29   124   125    1
    30   137   138    1
    31   137   134    1
    32   135   136    2
    33   135   134    1
    34     5     6    1
    35     5     3   am
    36     2     3    1
    37     2     1    1
    38   108   109    2
    39   111   112   ar
    40   111   113   ar
    41   133   134    1
    42   133   126   am
    43   138   140    1
    44    73    74    2
    45    73    72    1
    46     6     7    1
    47     3     4    2
    48   112   114   ar
    49   125   126    1
    50   125   128    1
    51    72    75    1
    52    72    71    1
    53   126   127    2
    54   113   115   ar
    55    97    98    1
    56   104   103   ar
    57     8     7    2
    58     7     9   am
    59    68    67    2
    60   128   129    1
    61    98    99    1
    62    98   101    1
    63    99   100    2
    64   114   115   ar
    65    71    67   am
    66   103   105   ar
    67   103   102    1
    68   141   142    1
    69    67    66    1
    70     9    10    1
    71    70    69    1
    72   143   142    1
    73   143   144    2
    74   102   101    1
    75   129   130    1
    76   142   145    1
    77   131   130    1
    78   131   132    1
    79   145   146    1
    80    18    19    2
    81    18    17    1
    82    10    11    1
    83    10    13    1
    84    66    69    1
    85    66    65    1
    86    16    11   am
    87    16    17    1
    88    11    12    2
    89    14    13    1
    90    43    42    2
    91    17    20    1
    92   146   147    1
    93    20    21    1
    94    53    52    1
    95    13    15    1
    96   147   148    1
    97   150   149    1
    98    52    49    1
    99   148   149    2
   100   149   151    1
   101    40    41    1
   102    42    41    1
   103    42    48   am
   104    49    48    1
   105    49    50    1
   106    95    94    1
   107    41    44    1
   108    44    45    1
   109    44    46    1
   110    92    93    1
   111    92    91    1
   112    85    84    1
   113    47    45    1
   114    94    93    2
   115    94    96    1
   116    90    91    1
   117    90    87    1
   118    50    54   am
   119    50    51    2
   120    79    78    2
   121    54    55    1
   122    63    64    2
   123    63    62    1
   124    84    81    1
   125    61    62    1
   126    61    56   am
   127    87    86    1
   128    87    88    1
   129    86    82   am
   130    78    77    1
   131    80    81    1
   132    82    81    1
   133    82    83    2
   134    77    76    1
   135    55    58    1
   136    55    56    1
   137    58    60    1
   138    58    59    1
   139    56    57    2
   140    88    89    2
