@<TRIPOS>MOLECULE
tmp/4bbeA00.pdb
 180 171 0 0 0
SMALL
GASTEIGER

@<TRIPOS>ATOM
      1  N          3.7470  -20.8880   -2.6160 N.3    14  GLN14      -0.1231
      2  CA         2.9100  -19.8890   -3.2740 C.3    14  GLN14       0.1698
      3  C          2.4670  -18.8500   -2.2450 C.2    14  GLN14       0.2592
      4  O          1.8510  -19.1920   -1.2320 O.2    14  GLN14      -0.2718
      5  CB         1.6940  -20.5530   -3.9320 C.3    14  GLN14       0.0381
      6  CG         0.7320  -19.5960   -4.6410 C.3    14  GLN14       0.0905
      7  CD         1.1820  -19.2210   -6.0440 C.2    14  GLN14       0.2608
      8  OE1        0.6240  -19.6990   -7.0320 O.2    14  GLN14      -0.2717
      9  NE2        2.1920  -18.3630   -6.1390 N.am   14  GLN14      -0.0878
     10  N          2.7900  -17.5860   -2.5080 N.am   15  LEU15      -0.1966
     11  CA         2.4680  -16.4960   -1.5860 C.3    15  LEU15       0.1728
     12  C          1.1350  -15.8330   -1.9270 C.2    15  LEU15       0.2616
     13  O          0.2400  -15.7610   -1.0850 O.2    15  LEU15      -0.2715
     14  CB         3.5950  -15.4540   -1.5510 C.3    15  LEU15       0.0311
     15  CG         5.0040  -15.9090   -1.1510 C.3    15  LEU15       0.0022
     16  CD1        6.0060  -14.7820   -1.3520 C.3    15  LEU15       0.0001
     17  CD2        5.0430  -16.4150    0.2840 C.3    15  LEU15       0.0001
     18  N          1.0090  -15.3570   -3.1630 N.am   16  GLY16      -0.1955
     19  CA        -0.2070  -14.6880   -3.6180 C.3    16  GLY16       0.1869
     20  C         -0.5280  -14.9720   -5.0720 C.2    16  GLY16       0.2309
     21  O          0.3740  -15.0940   -5.9020 O.2    16  GLY16      -0.2863
     22  N         -3.4600  -10.5440  -12.0470 N.3    20  PHE20      -0.1241
     23  CA        -2.1890   -9.9620  -12.4790 C.3    20  PHE20       0.1605
     24  C         -1.1470  -11.0430  -12.7740 C.2    20  PHE20       0.2264
     25  O         -0.3860  -10.9370  -13.7370 O.2    20  PHE20      -0.2867
     26  CB        -1.6570   -8.9900  -11.4120 C.3    20  PHE20       0.0534
     27  CG        -1.1440   -9.6680  -10.1640 C.ar   20  PHE20      -0.0203
     28  CD1       -2.0250  -10.0930   -9.1710 C.ar   20  PHE20      -0.0042
     29  CD2        0.2200   -9.8870   -9.9850 C.ar   20  PHE20      -0.0042
     30  CE1       -1.5550  -10.7260   -8.0220 C.ar   20  PHE20      -0.0003
     31  CE2        0.6990  -10.5220   -8.8410 C.ar   20  PHE20      -0.0003
     32  CZ        -0.1910  -10.9410   -7.8570 C.ar   20  PHE20      -0.0000
     33  N          2.7880  -14.3280   -7.1110 N.3    23  VAL23      -0.1245
     34  CA         4.0030  -14.1000   -6.3340 C.3    23  VAL23       0.1561
     35  C          4.3070  -15.3670   -5.5370 C.2    23  VAL23       0.2260
     36  O          3.4320  -15.9010   -4.8510 O.2    23  VAL23      -0.2867
     37  CB         3.8640  -12.8800   -5.3850 C.3    23  VAL23       0.0252
     38  CG1        5.1800  -12.5970   -4.6660 C.3    23  VAL23       0.0019
     39  CG2        3.4110  -11.6470   -6.1570 C.3    23  VAL23       0.0019
     40  N         11.3940  -13.4300   -2.8280 N.3    40  ALA40      -0.1245
     41  CA        10.0590  -13.4730   -3.4220 C.3    40  ALA40       0.1562
     42  C         10.1220  -13.2150   -4.9260 C.2    40  ALA40       0.2260
     43  O         10.7600  -12.2600   -5.3750 O.2    40  ALA40      -0.2867
     44  CB         9.1400  -12.4660   -2.7420 C.3    40  ALA40       0.0290
     45  N          7.9910  -12.6690   -8.5490 N.3    42  LYS42      -0.1245
     46  CA         6.7230  -12.2550   -9.1480 C.3    42  LYS42       0.1561
     47  C          6.6980  -12.5180  -10.6560 C.2    42  LYS42       0.2260
     48  O          7.6090  -12.1090  -11.3800 O.2    42  LYS42      -0.2867
     49  CB         6.4560  -10.7730   -8.8560 C.3    42  LYS42       0.0271
     50  CG         5.0920  -10.2690   -9.3120 C.3    42  LYS42       0.0035
     51  CD         4.8780   -8.8170   -8.9160 C.3    42  LYS42       0.0206
     52  CE         3.5500   -8.2960   -9.4410 C.3    42  LYS42       0.1093
     53  NZ         3.2380   -6.9350   -8.9240 N.3    42  LYS42      -0.1314
     54  N          7.2650   -1.3650  -13.7620 N.3    58  GLU58      -0.1245
     55  CA         7.1570   -1.6830  -12.3370 C.3    58  GLU58       0.1567
     56  C          8.5100   -2.0710  -11.7360 C.2    58  GLU58       0.2260
     57  O          8.8320   -1.6790  -10.6110 O.2    58  GLU58      -0.2867
     58  CB         6.1380   -2.8070  -12.1200 C.3    58  GLU58       0.0388
     59  CG         5.7980   -3.0830  -10.6570 C.3    58  GLU58       0.1160
     60  CD         4.9770   -4.3470  -10.4600 C.2    58  GLU58       0.3649
     61  OE1        4.1910   -4.7090  -11.3620 O.co2  58  GLU58      -0.2457
     62  OE2        5.1150   -4.9760   -9.3910 O.co2  58  GLU58      -0.2457
     63  N          9.6200   -2.2340   -0.0190 N.3    71  VAL71      -0.1245
     64  CA        10.0950   -3.5930   -0.3100 C.3    71  VAL71       0.1561
     65  C         11.3320   -3.5650   -1.2210 C.2    71  VAL71       0.2260
     66  O         11.3250   -2.9330   -2.2800 O.2    71  VAL71      -0.2867
     67  CB         8.9570   -4.5120   -0.8670 C.3    71  VAL71       0.0252
     68  CG1        8.3450   -3.9460   -2.1510 C.3    71  VAL71       0.0019
     69  CG2        9.4500   -5.9450   -1.0720 C.3    71  VAL71       0.0019
     70  N         12.3470  -10.0240   -5.4930 N.3    89  MET89      -0.1230
     71  CA        12.2660   -9.1330   -4.3380 C.3    89  MET89       0.1702
     72  C         12.7130   -9.8770   -3.0830 C.2    89  MET89       0.2592
     73  O         12.8390  -11.1020   -3.0940 O.2    89  MET89      -0.2718
     74  CB        10.8300   -8.6350   -4.1460 C.3    89  MET89       0.0401
     75  CG        10.2290   -7.9110   -5.3440 C.3    89  MET89       0.0596
     76  SD         8.4440   -7.6800   -5.1980 S.3    89  MET89      -0.1393
     77  CE         7.8440   -9.3430   -5.4950 C.3    89  MET89       0.0692
     78  N         12.9480   -9.1310   -2.0050 N.am   90  GLU90      -0.1966
     79  CA        13.2210   -9.7220   -0.6940 C.3    90  GLU90       0.1733
     80  C         11.9680  -10.4190   -0.1630 C.2    90  GLU90       0.2616
     81  O         10.8580  -10.1300   -0.6110 O.2    90  GLU90      -0.2715
     82  CB        13.6950   -8.6520    0.2980 C.3    90  GLU90       0.0429
     83  CG        12.6420   -7.5990    0.6480 C.3    90  GLU90       0.1163
     84  CD        13.0430   -6.7060    1.8090 C.2    90  GLU90       0.3649
     85  OE1       13.8400   -7.1410    2.6700 O.co2  90  GLU90      -0.2457
     86  OE2       12.5470   -5.5620    1.8640 O.co2  90  GLU90      -0.2457
     87  N         12.1490  -11.3350    0.7840 N.am   91  TYR91      -0.1960
     88  CA        11.0190  -12.0300    1.3950 C.3    91  TYR91       0.1771
     89  C         10.7320  -11.5030    2.7990 C.2    91  TYR91       0.2619
     90  O         11.6260  -11.4470    3.6470 O.2    91  TYR91      -0.2715
     91  CB        11.2550  -13.5450    1.4200 C.3    91  TYR91       0.0574
     92  CG        10.1720  -14.3270    2.1340 C.ar   91  TYR91      -0.0198
     93  CD1        8.9480  -14.5870    1.5170 C.ar   91  TYR91      -0.0009
     94  CD2       10.3710  -14.8080    3.4280 C.ar   91  TYR91      -0.0009
     95  CE1        7.9520  -15.3030    2.1700 C.ar   91  TYR91       0.0417
     96  CE2        9.3800  -15.5240    4.0900 C.ar   91  TYR91       0.0417
     97  CZ         8.1720  -15.7670    3.4560 C.ar   91  TYR91       0.1957
     98  OH         7.1880  -16.4760    4.1050 O.3    91  TYR91      -0.2866
     99  N          9.4800  -11.1160    3.0290 N.am   92  LEU92      -0.1964
    100  CA         9.0340  -10.6580    4.3420 C.3    92  LEU92       0.1713
    101  C          8.0560  -11.6770    4.9340 C.2    92  LEU92       0.2458
    102  O          6.9550  -11.8560    4.4110 O.2    92  LEU92      -0.2730
    103  CB         8.4120   -9.2570    4.2570 C.3    92  LEU92       0.0310
    104  CG         9.2190   -8.1380    3.5800 C.3    92  LEU92       0.0022
    105  CD1        8.4900   -6.8090    3.6890 C.3    92  LEU92       0.0001
    106  CD2       10.6310   -8.0140    4.1480 C.3    92  LEU92       0.0001
    107  N          8.4640  -12.3460    6.0310 N.am   93  PRO93      -0.2716
    108  CA         7.8130  -13.5540    6.5570 C.3    93  PRO93       0.1536
    109  C          6.3650  -13.4120    7.0370 C.2    93  PRO93       0.2599
    110  O          5.6020  -14.3760    6.9520 O.2    93  PRO93      -0.2715
    111  CB         8.7180  -13.9600    7.7290 C.3    93  PRO93       0.0310
    112  CG         9.4140  -12.7140    8.1230 C.3    93  PRO93       0.0237
    113  CD         9.6220  -11.9520    6.8550 C.3    93  PRO93       0.0939
    114  N          5.9920  -12.2320    7.5270 N.am   94  TYR94      -0.1960
    115  CA         4.6820  -12.0510    8.1640 C.3    94  TYR94       0.1771
    116  C          3.5790  -11.5350    7.2310 C.2    94  TYR94       0.2620
    117  O          2.5190  -11.0990    7.6910 O.2    94  TYR94      -0.2715
    118  CB         4.8110  -11.1780    9.4190 C.3    94  TYR94       0.0574
    119  CG         5.6850  -11.7950   10.4900 C.ar   94  TYR94      -0.0198
    120  CD1        5.1800  -12.7610   11.3610 C.ar   94  TYR94      -0.0009
    121  CD2        7.0190  -11.4180   10.6270 C.ar   94  TYR94      -0.0009
    122  CE1        5.9830  -13.3340   12.3440 C.ar   94  TYR94       0.0417
    123  CE2        7.8310  -11.9840   11.6060 C.ar   94  TYR94       0.0417
    124  CZ         7.3070  -12.9400   12.4600 C.ar   94  TYR94       0.1957
    125  OH         8.1060  -13.5010   13.4290 O.3    94  TYR94      -0.2866
    126  N          3.8350  -11.5990    5.9260 N.am   95  GLY95      -0.1940
    127  CA         2.8260  -11.3110    4.9070 C.3    95  GLY95       0.2014
    128  C          2.2860   -9.8960    4.8830 C.2    95  GLY95       0.2639
    129  O          2.9660   -8.9530    5.2910 O.2    95  GLY95      -0.2714
    130  N          1.0530   -9.7590    4.4000 N.am   96  SER96      -0.1949
    131  CA         0.3910   -8.4610    4.2930 C.3    96  SER96       0.1924
    132  C         -0.0500   -7.9340    5.6560 C.2    96  SER96       0.2314
    133  O         -0.3210   -8.7110    6.5750 O.2    96  SER96      -0.2863
    134  CB        -0.8080   -8.5450    3.3430 C.3    96  SER96       0.2116
    135  OG        -1.7930   -9.4380    3.8350 O.3    96  SER96      -0.2180
    136  N         -3.6370   -9.1160    6.7550 N.3    99  ASP99      -0.1239
    137  CA        -3.6960  -10.4230    7.4080 C.3    99  ASP99       0.1674
    138  C         -3.0240  -10.3970    8.7790 C.2    99  ASP99       0.2266
    139  O         -3.4480  -11.1030    9.6970 O.2    99  ASP99      -0.2867
    140  CB        -3.0510  -11.4980    6.5260 C.3    99  ASP99       0.1410
    141  CG        -3.7770  -11.6910    5.2020 C.2    99  ASP99       0.3668
    142  OD1       -4.9960  -11.4210    5.1290 O.co2  99  ASP99      -0.2456
    143  OD2       -3.1240  -12.1250    4.2300 O.co2  99  ASP99      -0.2456
    144  N         -4.9870  -11.0110   12.6010 N.3   103  LYS103     -0.1245
    145  CA        -4.5640  -12.2170   13.3120 C.3   103  LYS103      0.1561
    146  C         -3.4360  -12.0020   14.3270 C.2   103  LYS103      0.2260
    147  O         -2.9940  -12.9600   14.9680 O.2   103  LYS103     -0.2867
    148  CB        -4.1780  -13.3160   12.3130 C.3   103  LYS103      0.0271
    149  CG        -5.3650  -13.9620   11.6000 C.3   103  LYS103      0.0035
    150  CD        -4.9220  -14.9930   10.5670 C.3   103  LYS103      0.0206
    151  CE        -4.4860  -14.3390    9.2610 C.3   103  LYS103      0.1093
    152  NZ        -4.0420  -15.3440    8.2570 N.3   103  LYS103     -0.1314
    153  N         -1.6880   -4.2220    0.5840 N.3   141  ASN141     -0.1240
    154  CA        -0.5200   -3.9250   -0.2420 C.3   141  ASN141      0.1653
    155  C          0.7100   -3.5270    0.5800 C.2   141  ASN141      0.2266
    156  O          1.7840   -3.2780    0.0250 O.2   141  ASN141     -0.2867
    157  CB        -0.8590   -2.8460   -1.2780 C.3   141  ASN141      0.1155
    158  CG        -1.9510   -3.2820   -2.2450 C.2   141  ASN141      0.2627
    159  OD1       -1.9770   -4.4270   -2.7020 O.2   141  ASN141     -0.2716
    160  ND2       -2.8570   -2.3650   -2.5620 N.am  141  ASN141     -0.0877
    161  N          3.4150   -4.8190    3.2850 N.3   143  LEU143     -0.1245
    162  CA         3.9990   -6.0740    3.7600 C.3   143  LEU143      0.1561
    163  C          4.6970   -5.9130    5.1110 C.2   143  LEU143      0.2260
    164  O          5.1620   -4.8250    5.4520 O.2   143  LEU143     -0.2867
    165  CB         4.9710   -6.6510    2.7180 C.3   143  LEU143      0.0270
    166  CG         4.4660   -7.3170    1.4250 C.3   143  LEU143      0.0019
    167  CD1        3.4560   -8.4330    1.7050 C.3   143  LEU143      0.0001
    168  CD2        3.8980   -6.3070    0.4240 C.3   143  LEU143      0.0001
    169  N          4.4440   -2.2190   -0.5980 N.3   153  GLY153     -0.1210
    170  CA         4.6230   -3.0640   -1.7780 C.3   153  GLY153      0.1956
    171  C          3.5970   -2.7930   -2.8630 C.2   153  GLY153      0.2611
    172  O          2.8780   -1.7910   -2.8110 O.2   153  GLY153     -0.2717
    173  N          3.5370   -3.6990   -3.8400 N.am  154  ASP154     -0.1973
    174  CA         2.6270   -3.6110   -4.9930 C.3   154  ASP154      0.1709
    175  C          2.7010   -2.2650   -5.7210 C.2   154  ASP154      0.2293
    176  O          1.8690   -1.3770   -5.5090 O.2   154  ASP154     -0.2864
    177  CB         1.1810   -3.9560   -4.5910 C.3   154  ASP154      0.1436
    178  CG         0.2520   -4.1110   -5.7920 C.2   154  ASP154      0.3671
    179  OD1        0.7380   -4.3620   -6.9160 O.co2 154  ASP154     -0.2456
    180  OD2       -0.9760   -3.9840   -5.6050 O.co2 154  ASP154     -0.2456
@<TRIPOS>BOND
     1    54    55    1
     2    25    24    2
     3    24    23    1
     4    23    22    1
     5    23    26    1
     6    55    58    1
     7    55    56    1
     8    58    59    1
     9    56    57    2
    10    26    27    1
    11    48    47    2
    12    61    60   ar
    13    59    60    1
    14    47    46    1
    15    60    62   ar
    16    27    29   ar
    17    27    28   ar
    18    29    31   ar
    19    52    53    1
    20    52    51    1
    21    50    51    1
    22    50    49    1
    23    28    30   ar
    24    46    49    1
    25    46    45    1
    26    31    32   ar
    27    30    32   ar
    28    33    34    1
    29     8     7    2
    30   179   178   ar
    31    34    35    1
    32    34    37    1
    33    39    37    1
    34     9     7   am
    35     7     6    1
    36    21    20    2
    37   178   180   ar
    38   178   177    1
    39   175   176    2
    40   175   174    1
    41    35    36    2
    42    77    76    1
    43    70    71    1
    44    37    38    1
    45    43    42    2
    46    75    76    1
    47    75    74    1
    48    20    19    1
    49   174   177    1
    50   174   173    1
    51    42    41    1
    52     6     5    1
    53    71    74    1
    54    71    72    1
    55     5     2    1
    56   173   171   am
    57    19    18    1
    58    41    40    1
    59    41    44    1
    60     2     1    1
    61     2     3    1
    62    18    12   am
    63    73    72    2
    64    72    78   am
    65   171   172    2
    66   171   170    1
    67   159   158    2
    68   160   158   am
    69    10     3   am
    70    10    11    1
    71    66    65    2
    72     3     4    2
    73   158   157    1
    74    68    67    1
    75    78    79    1
    76    12    11    1
    77    12    13    2
    78   170   169    1
    79    11    14    1
    80    14    15    1
    81    16    15    1
    82   157   154    1
    83    65    64    1
    84    15    17    1
    85    69    67    1
    86    67    64    1
    87    79    80    1
    88    79    82    1
    89    81    80    2
    90    64    63    1
    91   154   155    1
    92   154   153    1
    93    80    87   am
    94   156   155    2
    95    82    83    1
    96   168   166    1
    97    83    84    1
    98    87    88    1
    99    88    91    1
   100    88    89    1
   101    91    92    1
   102   166   167    1
   103   166   165    1
   104    93    92   ar
   105    93    95   ar
   106    84    86   ar
   107    84    85   ar
   108    92    94   ar
   109    95    97   ar
   110   165   162    1
   111    89    99   am
   112    89    90    2
   113    99   100    1
   114   161   162    1
   115   134   135    1
   116   134   131    1
   117    94    96   ar
   118    97    96   ar
   119    97    98    1
   120   104   105    1
   121   104   106    1
   122   104   103    1
   123   162   163    1
   124   143   141   ar
   125   103   100    1
   126   131   130    1
   127   131   132    1
   128   100   101    1
   129   130   128   am
   130   102   101    2
   131   128   127    1
   132   128   129    2
   133   127   126    1
   134   101   107   am
   135   163   164    2
   136   142   141   ar
   137   141   140    1
   138   132   133    2
   139   126   116   am
   140   107   108    1
   141   107   113    1
   142   140   137    1
   143   108   109    1
   144   108   111    1
   145   136   137    1
   146   113   112    1
   147   110   109    2
   148   109   114   am
   149   116   117    2
   150   116   115    1
   151   137   138    1
   152   114   115    1
   153   111   112    1
   154   115   118    1
   155   152   151    1
   156   138   139    2
   157   151   150    1
   158   118   119    1
   159   119   121   ar
   160   119   120   ar
   161   150   149    1
   162   121   123   ar
   163   120   122   ar
   164   149   148    1
   165   123   124   ar
   166   148   145    1
   167   122   124   ar
   168   124   125    1
   169   144   145    1
   170   145   146    1
   171   146   147    2
