@<TRIPOS>MOLECULE
tmp/4bbfC00.pdb
 202 194 0 0 0
SMALL
GASTEIGER

@<TRIPOS>ATOM
      1  N         -9.0930  -67.9900    5.0200 N.3    13  GLN13      -0.1231
      2  CA        -7.6140  -67.8220    4.9600 C.3    13  GLN13       0.1698
      3  C         -7.0680  -66.5850    5.6740 C.2    13  GLN13       0.2592
      4  O         -7.8230  -65.6470    5.9730 O.2    13  GLN13      -0.2718
      5  CB        -7.0390  -67.8840    3.5270 C.3    13  GLN13       0.0381
      6  CG        -5.7280  -68.8000    3.4390 C.3    13  GLN13       0.0905
      7  CD        -5.3620  -69.1990    1.9920 C.2    13  GLN13       0.2608
      8  OE1       -6.2060  -69.7060    1.2250 O.2    13  GLN13      -0.2717
      9  NE2       -4.0980  -68.9550    1.6140 N.am   13  GLN13      -0.0878
     10  N         -5.7510  -66.6500    5.9280 N.am   14  GLN14      -0.1966
     11  CA        -4.9360  -65.6430    6.5930 C.3    14  GLN14       0.1733
     12  C         -4.5360  -64.5600    5.5900 C.2    14  GLN14       0.2616
     13  O         -3.9700  -64.8650    4.5050 O.2    14  GLN14      -0.2715
     14  CB        -3.6960  -66.2980    7.1970 C.3    14  GLN14       0.0408
     15  CG        -2.7180  -65.3400    7.8560 C.3    14  GLN14       0.0908
     16  CD        -3.0450  -65.0810    9.2880 C.2    14  GLN14       0.2608
     17  OE1       -4.2100  -64.9330    9.6600 O.2    14  GLN14      -0.2717
     18  NE2       -2.0180  -65.0530   10.1220 N.am   14  GLN14      -0.0878
     19  N         -4.8410  -63.3160    5.9480 N.am   15  LEU15      -0.1963
     20  CA        -4.6170  -62.1340    5.0950 C.3    15  LEU15       0.1728
     21  C         -3.4150  -61.2970    5.5230 C.2    15  LEU15       0.2617
     22  O         -2.7920  -60.6570    4.6810 O.2    15  LEU15      -0.2715
     23  CB        -5.8500  -61.2290    5.0690 C.3    15  LEU15       0.0311
     24  CG        -7.0900  -61.8690    4.4490 C.3    15  LEU15       0.0022
     25  CD1       -8.2670  -60.8820    4.3760 C.3    15  LEU15       0.0001
     26  CD2       -6.7460  -62.5460    3.0670 C.3    15  LEU15       0.0001
     27  N         -3.1100  -61.2770    6.8280 N.am   16  GLY16      -0.1940
     28  CA        -2.0180  -60.4670    7.3150 C.3    16  GLY16       0.2014
     29  C         -1.7520  -60.8170    8.7570 C.2    16  GLY16       0.2639
     30  O         -2.6840  -61.1370    9.4930 O.2    16  GLY16      -0.2714
     31  N         -0.4820  -60.7530    9.1480 N.am   17  LYS17      -0.1963
     32  CA        -0.0530  -61.0400   10.5230 C.3    17  LYS17       0.1728
     33  C          1.1280  -60.1390   10.9160 C.2    17  LYS17       0.2616
     34  O          2.0510  -59.9080   10.1210 O.2    17  LYS17      -0.2715
     35  CB         0.3220  -62.5130   10.6790 C.3    17  LYS17       0.0311
     36  CG         0.0800  -63.0970   12.0680 C.3    17  LYS17       0.0038
     37  CD         1.1700  -64.0730   12.4740 C.3    17  LYS17       0.0206
     38  CE         2.2800  -63.3280   13.2270 C.3    17  LYS17       0.1093
     39  NZ         3.6100  -63.6240   12.6120 N.3    17  LYS17      -0.1314
     40  N          1.0520  -59.5970   12.1360 N.am   18  GLY18      -0.1955
     41  CA         2.1160  -58.8080   12.7320 C.3    18  GLY18       0.1869
     42  C          2.4470  -59.3180   14.1340 C.2    18  GLY18       0.2309
     43  O          2.0110  -60.3950   14.5360 O.2    18  GLY18      -0.2863
     44  N         -1.0290  -58.3590   15.8980 N.3    21  GLY21      -0.1210
     45  CA        -2.3380  -58.5060   15.2910 C.3    21  GLY21       0.1956
     46  C         -2.3570  -59.4400   14.1040 C.2    21  GLY21       0.2613
     47  O         -1.2990  -59.7780   13.5920 O.2    21  GLY21      -0.2717
     48  N         -3.5800  -59.8620   13.7210 N.am   22  SER22      -0.1938
     49  CA        -3.8250  -60.7060   12.5550 C.3    22  SER22       0.2055
     50  C         -5.0730  -60.3550   11.8370 C.2    22  SER22       0.2642
     51  O         -6.0430  -59.8700   12.4320 O.2    22  SER22      -0.2714
     52  CB        -3.9690  -62.1630   12.9500 C.3    22  SER22       0.2130
     53  OG        -2.7930  -62.8050   12.5030 O.3    22  SER22      -0.2179
     54  N         -5.0880  -60.6170   10.5370 N.am   23  VAL23      -0.1977
     55  CA        -6.3070  -60.4000    9.7550 C.3    23  VAL23       0.1596
     56  C         -6.5250  -61.6750    8.9330 C.2    23  VAL23       0.2287
     57  O         -5.5520  -62.2850    8.4440 O.2    23  VAL23      -0.2864
     58  CB        -6.2390  -59.1330    8.8690 C.3    23  VAL23       0.0276
     59  CG1       -7.6120  -58.8750    8.2300 C.3    23  VAL23       0.0022
     60  CG2       -5.7820  -57.8900    9.6600 C.3    23  VAL23       0.0022
     61  N         -9.5650  -63.8190    6.3580 N.3    25  MET25      -0.1245
     62  CA       -10.6890  -63.8080    5.4660 C.3    25  MET25       0.1570
     63  C        -11.6170  -64.9160    6.0680 C.2    25  MET25       0.2261
     64  O        -11.1330  -65.9580    6.4610 O.2    25  MET25      -0.2867
     65  CB       -10.1850  -64.2030    4.0600 C.3    25  MET25       0.0387
     66  CG       -11.1890  -64.1030    2.9390 C.3    25  MET25       0.0595
     67  SD       -10.7800  -65.2070    1.4900 S.3    25  MET25      -0.1393
     68  CE        -9.0880  -64.8780    1.1680 C.3    25  MET25       0.0692
     69  N        -13.5570  -59.6500    6.0680 N.3    40  ALA40      -0.1245
     70  CA       -12.2300  -59.6790    6.6620 C.3    40  ALA40       0.1562
     71  C        -12.3520  -59.4150    8.1610 C.2    40  ALA40       0.2260
     72  O        -13.1610  -58.5830    8.5910 O.2    40  ALA40      -0.2867
     73  CB       -11.2540  -58.6600    5.9350 C.3    40  ALA40       0.0290
     74  N        -10.2850  -58.6150   11.7700 N.3    42  LYS42      -0.1245
     75  CA        -9.0600  -58.3350   12.5390 C.3    42  LYS42       0.1561
     76  C         -9.1490  -58.6910   14.0470 C.2    42  LYS42       0.2260
     77  O        -10.1820  -58.4390   14.6790 O.2    42  LYS42      -0.2867
     78  CB        -8.6120  -56.8880   12.3370 C.3    42  LYS42       0.0271
     79  CG        -7.2340  -56.5340   12.9870 C.3    42  LYS42       0.0035
     80  CD        -6.7760  -55.1460   12.5590 C.3    42  LYS42       0.0206
     81  CE        -5.5510  -54.6910   13.3080 C.3    42  LYS42       0.1093
     82  NZ        -5.0900  -53.3200   12.8280 N.3    42  LYS42      -0.1314
     83  N        -11.7010  -48.7270    3.4420 N.3    71  VAL71      -0.1245
     84  CA       -12.2700  -50.0590    3.6940 C.3    71  VAL71       0.1561
     85  C        -13.4860  -49.9830    4.6560 C.2    71  VAL71       0.2260
     86  O        -13.4560  -49.2800    5.6800 O.2    71  VAL71      -0.2867
     87  CB       -11.1960  -51.0710    4.1310 C.3    71  VAL71       0.0252
     88  CG1      -10.5870  -50.7340    5.4510 C.3    71  VAL71       0.0019
     89  CG2      -11.7380  -52.5320    4.1150 C.3    71  VAL71       0.0019
     90  N        -14.8910  -56.2040    8.7140 N.3    89  MET89      -0.1230
     91  CA       -14.8870  -55.2360    7.6470 C.3    89  MET89       0.1702
     92  C        -15.1050  -55.9580    6.3420 C.2    89  MET89       0.2592
     93  O        -15.0380  -57.2030    6.3070 O.2    89  MET89      -0.2718
     94  CB       -13.5710  -54.4400    7.6500 C.3    89  MET89       0.0401
     95  CG       -12.3100  -55.2810    7.5970 C.3    89  MET89       0.0596
     96  SD       -10.8080  -54.2790    7.7490 S.3    89  MET89      -0.1393
     97  CE        -9.8890  -55.2230    8.9120 C.3    89  MET89       0.0692
     98  N        -15.3990  -55.2110    5.2750 N.am   90  GLU90      -0.1966
     99  CA       -15.5950  -55.8170    3.9650 C.3    90  GLU90       0.1733
    100  C        -14.2870  -56.4870    3.5740 C.2    90  GLU90       0.2616
    101  O        -13.2100  -56.1390    4.1360 O.2    90  GLU90      -0.2715
    102  CB       -16.0410  -54.7950    2.9080 C.3    90  GLU90       0.0429
    103  CG       -14.9440  -53.7540    2.5190 C.3    90  GLU90       0.1163
    104  CD       -15.3640  -52.8110    1.4330 C.2    90  GLU90       0.3649
    105  OE1      -16.2490  -53.1560    0.5590 O.co2  90  GLU90      -0.2457
    106  OE2      -14.8140  -51.6790    1.4500 O.co2  90  GLU90      -0.2457
    107  N        -14.4050  -57.4580    2.6520 N.am   91  TYR91      -0.1960
    108  CA       -13.2850  -58.1600    2.0720 C.3    91  TYR91       0.1771
    109  C        -12.9950  -57.6500    0.6850 C.2    91  TYR91       0.2619
    110  O        -13.8600  -57.6650   -0.1930 O.2    91  TYR91      -0.2715
    111  CB       -13.5560  -59.6620    1.9530 C.3    91  TYR91       0.0574
    112  CG       -12.4050  -60.3950    1.2830 C.ar   91  TYR91      -0.0198
    113  CD1      -11.1530  -60.4880    1.9030 C.ar   91  TYR91      -0.0009
    114  CD2      -12.5640  -61.0120    0.0250 C.ar   91  TYR91      -0.0009
    115  CE1      -10.0770  -61.1620    1.2730 C.ar   91  TYR91       0.0417
    116  CE2      -11.5190  -61.7020   -0.5810 C.ar   91  TYR91       0.0417
    117  CZ       -10.2610  -61.7710    0.0430 C.ar   91  TYR91       0.1957
    118  OH        -9.1870  -62.4490   -0.5680 O.3    91  TYR91      -0.2866
    119  N        -11.7670  -57.2150    0.4830 N.am   92  LEU92      -0.1964
    120  CA       -11.3120  -56.6900   -0.8060 C.3    92  LEU92       0.1713
    121  C        -10.3670  -57.7040   -1.4690 C.2    92  LEU92       0.2458
    122  O         -9.3060  -57.9870   -0.9400 O.2    92  LEU92      -0.2730
    123  CB       -10.6280  -55.3350   -0.6250 C.3    92  LEU92       0.0310
    124  CG       -11.4220  -54.2300    0.1240 C.3    92  LEU92       0.0022
    125  CD1      -10.5850  -52.8640    0.3450 C.3    92  LEU92       0.0001
    126  CD2      -12.7600  -53.9780   -0.5860 C.3    92  LEU92       0.0001
    127  N        -10.7660  -58.2450   -2.6310 N.am   93  PRO93      -0.2716
    128  CA       -10.2560  -59.5200   -3.1900 C.3    93  PRO93       0.1536
    129  C         -8.8220  -59.5370   -3.7770 C.2    93  PRO93       0.2599
    130  O         -8.1550  -60.5750   -3.7070 O.2    93  PRO93      -0.2715
    131  CB       -11.2950  -59.8770   -4.2510 C.3    93  PRO93       0.0310
    132  CG       -12.5250  -58.8930   -3.9530 C.3    93  PRO93       0.0237
    133  CD       -11.8530  -57.6770   -3.4500 C.3    93  PRO93       0.0939
    134  N         -8.3660  -58.4040   -4.3090 N.am   94  TYR94      -0.1960
    135  CA        -7.0530  -58.2890   -4.9430 C.3    94  TYR94       0.1771
    136  C         -5.9130  -57.7990   -4.0170 C.2    94  TYR94       0.2620
    137  O         -4.8260  -57.4000   -4.5040 O.2    94  TYR94      -0.2715
    138  CB        -7.1710  -57.4530   -6.2320 C.3    94  TYR94       0.0574
    139  CG        -8.1480  -58.0220   -7.2970 C.ar   94  TYR94      -0.0198
    140  CD1       -8.6710  -59.3130   -7.1830 C.ar   94  TYR94      -0.0009
    141  CD2       -8.5300  -57.2570   -8.4230 C.ar   94  TYR94      -0.0009
    142  CE1       -9.5530  -59.8480   -8.1480 C.ar   94  TYR94       0.0417
    143  CE2       -9.4220  -57.7850   -9.4130 C.ar   94  TYR94       0.0417
    144  CZ        -9.9300  -59.0820   -9.2420 C.ar   94  TYR94       0.1957
    145  OH       -10.7860  -59.6280  -10.1760 O.3    94  TYR94      -0.2866
    146  N         -6.1450  -57.8230   -2.6870 N.am   95  GLY95      -0.1940
    147  CA        -5.0430  -57.6730   -1.7160 C.3    95  GLY95       0.2014
    148  C         -4.3450  -56.3050   -1.7100 C.2    95  GLY95       0.2639
    149  O         -4.9170  -55.3090   -2.1160 O.2    95  GLY95      -0.2714
    150  N         -3.1130  -56.2630   -1.2150 N.am   96  SER96      -0.1949
    151  CA        -2.3890  -55.0010   -1.0770 C.3    96  SER96       0.1924
    152  C         -2.0040  -54.4340   -2.4330 C.2    96  SER96       0.2314
    153  O         -1.7550  -55.1850   -3.3660 O.2    96  SER96      -0.2863
    154  CB        -1.2010  -55.0830   -0.0930 C.3    96  SER96       0.2116
    155  OG         0.0560  -55.4240   -0.6430 O.3    96  SER96      -0.2180
    156  N          1.5860  -55.6040   -3.4320 N.3    99  ASP99      -0.1239
    157  CA         1.6210  -56.9090   -4.1450 C.3    99  ASP99       0.1674
    158  C          0.9700  -56.8280   -5.5550 C.2    99  ASP99       0.2266
    159  O          1.5190  -57.3550   -6.5190 O.2    99  ASP99      -0.2867
    160  CB         0.9630  -58.0510   -3.3570 C.3    99  ASP99       0.1410
    161  CG         1.5820  -58.2690   -1.9940 C.2    99  ASP99       0.3668
    162  OD1        2.7210  -57.7730   -1.7520 O.co2  99  ASP99      -0.2456
    163  OD2        0.8930  -58.9080   -1.1520 O.co2  99  ASP99      -0.2456
    164  N          1.6990  -50.7130    1.0060 N.3   140  ARG140     -0.1231
    165  CA         1.2900  -51.9680    1.6730 C.3   140  ARG140      0.1694
    166  C         -0.0230  -51.8940    2.4790 C.2   140  ARG140      0.2592
    167  O         -0.6750  -52.9260    2.7280 O.2   140  ARG140     -0.2718
    168  CB         2.4100  -52.5890    2.4870 C.3   140  ARG140      0.0321
    169  CG         2.8000  -51.8710    3.7670 C.3   140  ARG140      0.0489
    170  CD         3.5830  -52.8470    4.5940 C.3   140  ARG140      0.2205
    171  NE         2.8540  -54.1240    4.5530 N.pl3 140  ARG140     -0.0865
    172  CZ         3.3750  -55.3520    4.6350 C.cat 140  ARG140      0.5346
    173  NH1        4.6960  -55.5520    4.7800 N.pl3 140  ARG140      0.1354
    174  NH2        2.5470  -56.3960    4.5770 N.pl3 140  ARG140      0.1354
    175  N         -0.4020  -50.6720    2.8320 N.am  141  ASN141     -0.1974
    176  CA        -1.5720  -50.3650    3.6470 C.3   141  ASN141      0.1688
    177  C         -2.7880  -49.9680    2.8190 C.2   141  ASN141      0.2292
    178  O         -3.8180  -49.6160    3.3630 O.2   141  ASN141     -0.2864
    179  CB        -1.2080  -49.2880    4.6650 C.3   141  ASN141      0.1181
    180  CG        -0.1490  -49.7850    5.6430 C.2   141  ASN141      0.2629
    181  OD1       -0.1580  -50.9640    5.9780 O.2   141  ASN141     -0.2716
    182  ND2        0.8330  -48.9320    6.0040 N.am  141  ASN141     -0.0877
    183  N         -5.4920  -51.2130   -0.1900 N.3   143  LEU143     -0.1245
    184  CA        -6.0770  -52.4740   -0.6520 C.3   143  LEU143      0.1561
    185  C         -6.7150  -52.2670   -2.0300 C.2   143  LEU143      0.2260
    186  O         -7.1400  -51.1570   -2.3560 O.2   143  LEU143     -0.2867
    187  CB        -7.1090  -53.0140    0.3450 C.3   143  LEU143      0.0270
    188  CG        -6.5650  -53.6740    1.6390 C.3   143  LEU143      0.0019
    189  CD1       -5.7710  -54.9760    1.3850 C.3   143  LEU143      0.0001
    190  CD2       -5.6690  -52.7350    2.3420 C.3   143  LEU143      0.0001
    191  N         -6.6650  -49.1150    3.7400 N.3   153  GLY153     -0.1210
    192  CA        -6.8790  -50.2520    4.6460 C.3   153  GLY153      0.1956
    193  C         -6.2060  -49.8210    5.9370 C.2   153  GLY153      0.2611
    194  O         -5.7950  -48.6830    6.1200 O.2   153  GLY153     -0.2717
    195  N         -6.1060  -50.6810    6.8820 N.am  154  ASP154     -0.1973
    196  CA        -5.2660  -50.3710    8.0540 C.3   154  ASP154      0.1709
    197  C         -5.1590  -48.9260    8.6670 C.2   154  ASP154      0.2293
    198  O         -4.4260  -48.0370    8.1790 O.2   154  ASP154     -0.2864
    199  CB        -3.9070  -50.9920    7.8250 C.3   154  ASP154      0.1436
    200  CG        -3.1120  -51.1650    9.1140 C.2   154  ASP154      0.3671
    201  OD1       -3.7190  -51.0510   10.2080 O.co2 154  ASP154     -0.2456
    202  OD2       -1.8680  -51.4010    9.0110 O.co2 154  ASP154     -0.2456
@<TRIPOS>BOND
     1   145   144    1
     2   143   144   ar
     3   143   141   ar
     4   144   142   ar
     5   141   139   ar
     6   142   140   ar
     7   139   140   ar
     8   139   138    1
     9   159   158    2
    10   138   135    1
    11   158   157    1
    12   135   134    1
    13   135   136    1
    14   137   136    2
    15   134   129   am
    16   131   132    1
    17   131   128    1
    18   157   156    1
    19   157   160    1
    20   136   146   am
    21   132   133    1
    22   129   130    2
    23   129   128    1
    24   133   127    1
    25   153   152    2
    26   160   161    1
    27   128   127    1
    28   146   147    1
    29   127   121   am
    30   152   151    1
    31   186   185    2
    32   149   148    2
    33   185   184    1
    34   161   162   ar
    35   161   163   ar
    36   147   148    1
    37   148   150   am
    38   121   122    2
    39   121   120    1
    40   150   151    1
    41   151   154    1
    42   120   123    1
    43   120   119    1
    44   184   183    1
    45   184   187    1
    46   155   154    1
    47   123   124    1
    48   126   124    1
    49   116   114   ar
    50   116   117   ar
    51   118   117    1
    52   110   109    2
    53   114   112   ar
    54   117   115   ar
    55   124   125    1
    56   187   188    1
    57   119   109   am
    58   105   104   ar
    59   109   108    1
    60   164   165    1
    61    68    67    1
    62     8     7    2
    63   115   113   ar
    64   112   113   ar
    65   112   111    1
    66   189   188    1
    67   104   106   ar
    68   104   103    1
    69    67    66    1
    70     9     7   am
    71   188   190    1
    72   165   166    1
    73   165   168    1
    74   111   108    1
    75     7     6    1
    76   108   107    1
    77   166   167    2
    78   166   175   am
    79   168   169    1
    80   103   102    1
    81   107   100   am
    82   177   178    2
    83   177   176    1
    84   175   176    1
    85   102    99    1
    86    66    65    1
    87    26    24    1
    88     6     5    1
    89    83    84    1
    90     5     2    1
    91   100    99    1
    92   100   101    2
    93   176   179    1
    94    84    87    1
    95    84    85    1
    96   191   192    1
    97   169   170    1
    98    99    98    1
    99    65    62    1
   100    89    87    1
   101    87    88    1
   102    25    24    1
   103    24    23    1
   104    13    12    2
   105   171   170    1
   106   171   172    2
   107   174   172    1
   108   172   173    1
   109   192   193    1
   110    85    86    2
   111   179   180    1
   112    22    21    2
   113     2     1    1
   114     2     3    1
   115    23    20    1
   116    20    21    1
   117    20    19    1
   118    98    92   am
   119    62    63    1
   120    62    61    1
   121    21    27   am
   122    12    19   am
   123    12    11    1
   124   180   181    2
   125   180   182   am
   126     3    10   am
   127     3     4    2
   128    10    11    1
   129    73    70    1
   130   193   194    2
   131   193   195   am
   132    69    70    1
   133    63    64    2
   134    93    92    2
   135    92    91    1
   136    11    14    1
   137    70    71    1
   138    27    28    1
   139   195   196    1
   140    14    15    1
   141    28    29    1
   142    95    94    1
   143    95    96    1
   144    91    94    1
   145    91    90    1
   146    96    97    1
   147   199   196    1
   148   199   200    1
   149    15    16    1
   150   196   197    1
   151    71    72    2
   152   198   197    2
   153    59    58    1
   154    57    56    2
   155    29    31   am
   156    29    30    2
   157    58    60    1
   158    58    55    1
   159    56    55    1
   160   202   200   ar
   161   200   201   ar
   162    31    32    1
   163    16    17    2
   164    16    18   am
   165    55    54    1
   166    34    33    2
   167    32    35    1
   168    32    33    1
   169    54    50   am
   170    35    36    1
   171    33    40   am
   172    74    75    1
   173    50    51    2
   174    50    49    1
   175    36    37    1
   176    40    41    1
   177    78    75    1
   178    78    79    1
   179    37    38    1
   180    53    52    1
   181    75    76    1
   182    49    52    1
   183    49    48    1
   184    80    79    1
   185    80    81    1
   186    39    38    1
   187    41    42    1
   188    82    81    1
   189    47    46    2
   190    48    46   am
   191    76    77    2
   192    46    45    1
   193    42    43    2
   194    45    44    1
