@<TRIPOS>MOLECULE
tmp/4bbhA01.pdb
 218 210 0 0 0
SMALL
GASTEIGER

@<TRIPOS>ATOM
      1  N         31.9940   52.1070   70.2600 N.3    69  TYR69      -0.1227
      2  CA        31.8050   50.7020   69.8290 C.3    69  TYR69       0.1736
      3  C         31.4280   50.7080   68.3440 C.2    69  TYR69       0.2595
      4  O         31.6780   51.6720   67.6410 O.2    69  TYR69      -0.2718
      5  CB        30.8640   49.9350   70.7800 C.3    69  TYR69       0.0548
      6  CG        30.9830   48.4150   70.6710 C.ar   69  TYR69      -0.0200
      7  CD1       32.2520   47.7890   70.7260 C.ar   69  TYR69      -0.0009
      8  CD2       29.8710   47.6450   70.4530 C.ar   69  TYR69      -0.0009
      9  CE1       32.3330   46.4040   70.5710 C.ar   69  TYR69       0.0417
     10  CE2       29.9360   46.2380   70.3060 C.ar   69  TYR69       0.0417
     11  CZ        31.2230   45.6500   70.3430 C.ar   69  TYR69       0.1957
     12  OH        31.3440   44.2570   70.2420 O.3    69  TYR69      -0.2866
     13  N         30.9340   49.6070   67.8290 N.am   70  VAL70      -0.1966
     14  CA        30.5630   49.4350   66.4240 C.3    70  VAL70       0.1727
     15  C         29.5620   50.4380   65.8040 C.2    70  VAL70       0.2616
     16  O         28.4670   50.6470   66.3320 O.2    70  VAL70      -0.2715
     17  CB        30.0170   48.0070   66.1880 C.3    70  VAL70       0.0290
     18  CG1       29.6510   47.8220   64.7230 C.3    70  VAL70       0.0023
     19  CG2       31.0380   46.9710   66.6320 C.3    70  VAL70       0.0023
     20  N         29.9460   50.9820   64.6470 N.am   71  GLU71      -0.1963
     21  CA        29.0470   51.7750   63.8020 C.3    71  GLU71       0.1733
     22  C         28.7900   51.0560   62.4760 C.2    71  GLU71       0.2616
     23  O         29.5830   50.2130   62.0340 O.2    71  GLU71      -0.2715
     24  CB        29.6370   53.1640   63.5150 C.3    71  GLU71       0.0429
     25  CG        30.1200   53.9110   64.7430 C.3    71  GLU71       0.1163
     26  CD        30.6850   55.3140   64.4640 C.2    71  GLU71       0.3649
     27  OE1       30.7890   55.7370   63.2940 O.co2  71  GLU71      -0.2457
     28  OE2       31.0590   56.0220   65.4260 O.co2  71  GLU71      -0.2457
     29  N         27.7010   51.4050   61.8100 N.am   72  ASP72      -0.1971
     30  CA        27.4200   50.8800   60.4830 C.3    72  ASP72       0.1709
     31  C         28.3550   51.6410   59.5430 C.2    72  ASP72       0.2293
     32  O         29.0570   52.5630   60.0030 O.2    72  ASP72      -0.2864
     33  CB        25.9460   51.1080   60.1560 C.3    72  ASP72       0.1436
     34  CG        25.6370   52.5630   59.9480 C.2    72  ASP72       0.3671
     35  OD1       25.9130   53.3700   60.8630 O.co2  72  ASP72      -0.2456
     36  OD2       25.2070   52.9080   58.8190 O.co2  72  ASP72      -0.2456
     37  N         24.6970   55.1700   62.7120 N.3    77  PHE77      -0.1241
     38  CA        24.2320   54.4710   63.9260 C.3    77  PHE77       0.1605
     39  C         25.3910   53.9390   64.7090 C.2    77  PHE77       0.2264
     40  O         26.3200   53.4340   64.1180 O.2    77  PHE77      -0.2867
     41  CB        23.3280   53.2960   63.6160 C.3    77  PHE77       0.0534
     42  CG        22.1110   53.6770   62.8970 C.ar   77  PHE77      -0.0203
     43  CD1       21.1590   54.4790   63.5100 C.ar   77  PHE77      -0.0042
     44  CD2       21.9020   53.2240   61.5970 C.ar   77  PHE77      -0.0042
     45  CE1       20.0180   54.8590   62.8260 C.ar   77  PHE77      -0.0003
     46  CE2       20.7410   53.5850   60.9120 C.ar   77  PHE77      -0.0003
     47  CZ        19.8140   54.4080   61.5330 C.ar   77  PHE77      -0.0000
     48  N         26.1090   51.1040   68.0190 N.3    79  PHE79      -0.1241
     49  CA        25.4880   50.2240   69.0290 C.3    79  PHE79       0.1605
     50  C         25.5900   50.8890   70.3760 C.2    79  PHE79       0.2264
     51  O         26.6860   51.4310   70.7470 O.2    79  PHE79      -0.2867
     52  CB        26.1790   48.8260   69.1170 C.3    79  PHE79       0.0534
     53  CG        25.8510   47.8840   67.9970 C.ar   79  PHE79      -0.0203
     54  CD1       24.5920   47.9140   67.3320 C.ar   79  PHE79      -0.0042
     55  CD2       26.7810   46.8580   67.6510 C.ar   79  PHE79      -0.0042
     56  CE1       24.3050   46.9850   66.3200 C.ar   79  PHE79      -0.0003
     57  CE2       26.4980   45.9470   66.6040 C.ar   79  PHE79      -0.0003
     58  CZ        25.2240   45.9770   65.9930 C.ar   79  PHE79      -0.0000
     59  N         24.6340   49.3200   73.7620 N.3    81  TYR81      -0.1241
     60  CA        24.2710   48.2830   74.6940 C.3    81  TYR81       0.1605
     61  C         24.1500   48.9470   76.0310 C.2    81  TYR81       0.2264
     62  O         25.0150   49.7310   76.4140 O.2    81  TYR81      -0.2867
     63  CB        25.3740   47.2230   74.8460 C.3    81  TYR81       0.0534
     64  CG        25.6700   46.3180   73.6810 C.ar   81  TYR81      -0.0201
     65  CD1       26.6240   46.6560   72.7210 C.ar   81  TYR81      -0.0009
     66  CD2       25.0590   45.0590   73.6060 C.ar   81  TYR81      -0.0009
     67  CE1       26.8900   45.7670   71.7040 C.ar   81  TYR81       0.0417
     68  CE2       25.3620   44.1390   72.6270 C.ar   81  TYR81       0.0417
     69  CZ        26.2750   44.4930   71.6860 C.ar   81  TYR81       0.1957
     70  OH        26.5030   43.5950   70.6910 O.3    81  TYR81      -0.2866
     71  N         33.8280   38.9140   73.1510 N.3   135  ASN135     -0.1240
     72  CA        32.9450   39.9900   72.8070 C.3   135  ASN135      0.1653
     73  C         33.3710   41.3440   73.3460 C.2   135  ASN135      0.2266
     74  O         34.1780   41.4520   74.3020 O.2   135  ASN135     -0.2867
     75  CB        31.5330   39.6490   73.2600 C.3   135  ASN135      0.1155
     76  CG        30.4740   40.1570   72.2900 C.2   135  ASN135      0.2627
     77  OD1       30.7340   41.0040   71.4050 O.2   135  ASN135     -0.2716
     78  ND2       29.2740   39.6000   72.4110 N.am  135  ASN135     -0.0877
     79  N         32.6510   36.6560   66.5050 N.3   171  THR171     -0.1218
     80  CA        31.8950   37.1250   65.3180 C.3   171  THR171      0.1862
     81  C         32.4000   38.5620   65.0820 C.2   171  THR171      0.2287
     82  O         32.8260   39.2710   66.0100 O.2   171  THR171     -0.2866
     83  CB        30.3220   37.1350   65.5070 C.3   171  THR171      0.1770
     84  OG1       29.9230   37.9430   66.6340 O.3   171  THR171     -0.2211
     85  CG2       29.6940   35.7270   65.7330 C.3   171  THR171      0.0375
     86  N         31.8360   41.9320   61.8730 N.3   173  GLY173     -0.1225
     87  CA        31.3470   42.3240   60.5430 C.3   173  GLY173      0.1811
     88  C         32.5110   42.4120   59.6100 C.2   173  GLY173      0.2280
     89  O         32.3460   42.3960   58.4030 O.2   173  GLY173     -0.2866
     90  N         22.3670   39.9620   57.6800 N.3   185  TYR185     -0.1241
     91  CA        21.2090   40.3610   58.5000 C.3   185  TYR185      0.1605
     92  C         20.0750   40.9790   57.6920 C.2   185  TYR185      0.2264
     93  O         20.3160   41.6720   56.6420 O.2   185  TYR185     -0.2867
     94  CB        21.6020   41.3680   59.5750 C.3   185  TYR185      0.0534
     95  CG        22.8030   42.2210   59.2910 C.ar  185  TYR185     -0.0201
     96  CD1       24.1420   41.7620   59.5880 C.ar  185  TYR185     -0.0009
     97  CD2       22.6490   43.4970   58.7310 C.ar  185  TYR185     -0.0009
     98  CE1       25.2390   42.5620   59.3050 C.ar  185  TYR185      0.0417
     99  CE2       23.7360   44.2870   58.4460 C.ar  185  TYR185      0.0417
    100  CZ        24.9850   43.8390   58.7790 C.ar  185  TYR185      0.1957
    101  OH        25.9730   44.6660   58.4670 O.3   185  TYR185     -0.2866
    102  N         16.1150   43.1190   58.1650 N.3   187  HIS187     -0.1241
    103  CA        15.4460   43.9770   59.1610 C.3   187  HIS187      0.1621
    104  C         13.9510   44.0890   58.8360 C.2   187  HIS187      0.2264
    105  O         13.5930   44.4440   57.6800 O.2   187  HIS187     -0.2867
    106  CB        15.9940   45.4080   59.0930 C.3   187  HIS187      0.0745
    107  CG        17.5000   45.5040   59.0090 C.ar  187  HIS187      0.0817
    108  ND1       18.3200   45.4120   60.1290 N.ar  187  HIS187     -0.2268
    109  CD2       18.3120   45.8160   57.9700 C.ar  187  HIS187      0.1154
    110  CE1       19.5720   45.5790   59.7570 C.ar  187  HIS187      0.1986
    111  NE2       19.5880   45.8400   58.4570 N.ar  187  HIS187     -0.2212
    112  N         17.3110   55.1660   57.7370 N.3   200  PHE200     -0.1241
    113  CA        17.2670   53.6930   57.6580 C.3   200  PHE200      0.1605
    114  C         16.4190   53.1530   56.4660 C.2   200  PHE200      0.2264
    115  O         16.8560   52.2880   55.7270 O.2   200  PHE200     -0.2867
    116  CB        16.7230   53.1690   58.9830 C.3   200  PHE200      0.0534
    117  CG        16.9570   51.6730   59.2550 C.ar  200  PHE200     -0.0203
    118  CD1       16.3680   50.6750   58.4780 C.ar  200  PHE200     -0.0042
    119  CD2       17.7090   51.2710   60.3690 C.ar  200  PHE200     -0.0042
    120  CE1       16.5810   49.3200   58.7730 C.ar  200  PHE200     -0.0003
    121  CE2       17.9290   49.9080   60.6740 C.ar  200  PHE200     -0.0003
    122  CZ        17.3560   48.9280   59.8680 C.ar  200  PHE200     -0.0000
    123  N         16.5330   39.9480   72.0350 N.3   289  TYR289     -0.1241
    124  CA        17.1740   40.8460   72.9390 C.3   289  TYR289      0.1605
    125  C         17.1580   42.3090   72.4680 C.2   289  TYR289      0.2264
    126  O         17.0310   42.6360   71.2760 O.2   289  TYR289     -0.2867
    127  CB        18.5820   40.3790   73.3630 C.3   289  TYR289      0.0534
    128  CG        19.6580   40.2340   72.2190 C.ar  289  TYR289     -0.0201
    129  CD1       20.2760   41.3540   71.6390 C.ar  289  TYR289     -0.0009
    130  CD2       20.0370   38.9700   71.7330 C.ar  289  TYR289     -0.0009
    131  CE1       21.3500   41.1890   70.7120 C.ar  289  TYR289      0.0417
    132  CE2       21.0190   38.8270   70.7100 C.ar  289  TYR289      0.0417
    133  CZ        21.6230   39.9850   70.1600 C.ar  289  TYR289      0.1957
    134  OH        22.6380   39.9260   69.1790 O.3   289  TYR289     -0.2866
    135  N         18.8560   45.7150   71.6890 N.3   291  LEU291     -0.1245
    136  CA        20.1280   46.3320   71.3890 C.3   291  LEU291      0.1561
    137  C         19.8820   47.6510   70.7210 C.2   291  LEU291      0.2260
    138  O         19.8070   47.6880   69.4860 O.2   291  LEU291     -0.2867
    139  CB        20.9930   45.4240   70.5350 C.3   291  LEU291      0.0270
    140  CG        22.2990   46.0200   70.0450 C.3   291  LEU291      0.0019
    141  CD1       23.1000   46.7480   71.1350 C.3   291  LEU291      0.0001
    142  CD2       23.1760   44.9840   69.3180 C.3   291  LEU291      0.0001
    143  N         20.4830   51.2670   69.0450 N.3   293  SER293     -0.1217
    144  CA        21.5340   52.0450   68.4150 C.3   293  SER293      0.1889
    145  C         21.3440   53.5530   68.6890 C.2   293  SER293      0.2288
    146  O         20.2370   54.1230   68.5370 O.2   293  SER293     -0.2866
    147  CB        21.5760   51.8120   66.9070 C.3   293  SER293      0.2089
    148  OG        22.1220   50.5540   66.5720 O.3   293  SER293     -0.2183
    149  N         16.5030   42.0400   68.4630 N.3   308  TYR308     -0.1227
    150  CA        17.3410   41.1280   67.7970 C.3   308  TYR308      0.1736
    151  C         16.8490   39.6890   68.0700 C.2   308  TYR308      0.2596
    152  O         16.8740   39.1770   69.1880 O.2   308  TYR308     -0.2718
    153  CB        18.7950   41.2770   68.2470 C.3   308  TYR308      0.0548
    154  CG        19.4780   42.4680   67.6700 C.ar  308  TYR308     -0.0200
    155  CD1       19.1380   43.7450   68.0650 C.ar  308  TYR308     -0.0009
    156  CD2       20.4370   42.3090   66.6860 C.ar  308  TYR308     -0.0009
    157  CE1       19.7460   44.8690   67.4740 C.ar  308  TYR308      0.0417
    158  CE2       21.0320   43.3920   66.0960 C.ar  308  TYR308      0.0417
    159  CZ        20.6530   44.6680   66.4850 C.ar  308  TYR308      0.1957
    160  OH        21.3500   45.6950   65.8860 O.3   308  TYR308     -0.2866
    161  N         16.3470   39.0570   67.0040 N.am  309  SER309     -0.1952
    162  CA        15.9390   37.6480   67.0110 C.3   309  SER309      0.1924
    163  C         17.0440   36.7960   67.6010 C.2   309  SER309      0.2314
    164  O         18.2250   36.8470   67.1320 O.2   309  SER309     -0.2863
    165  CB        15.5950   37.1990   65.6210 C.3   309  SER309      0.2116
    166  OG        15.3740   35.7890   65.6520 O.3   309  SER309     -0.2180
    167  N         15.3600   42.7420   63.9250 N.3   339  ASN339     -0.1225
    168  CA        16.5600   42.3470   63.1490 C.3   339  ASN339      0.1785
    169  C         16.7320   40.8060   63.3020 C.2   339  ASN339      0.2597
    170  O         16.6020   40.2820   64.3850 O.2   339  ASN339     -0.2718
    171  CB        17.7980   43.0650   63.6570 C.3   339  ASN339      0.1169
    172  CG        17.6360   44.5620   63.5860 C.2   339  ASN339      0.2627
    173  OD1       17.2940   45.0680   62.5910 O.2   339  ASN339     -0.2716
    174  ND2       17.8030   45.2250   64.6760 N.am  339  ASN339     -0.0877
    175  N         17.0880   40.1130   62.2210 N.am  340  ALA340     -0.1966
    176  CA        17.4150   38.6820   62.3300 C.3   340  ALA340      0.1728
    177  C         18.5510   38.3570   61.3600 C.2   340  ALA340      0.2616
    178  O         18.6660   38.9520   60.2880 O.2   340  ALA340     -0.2715
    179  CB        16.1920   37.8050   61.9920 C.3   340  ALA340      0.0334
    180  N         19.3370   37.3320   61.6840 N.am  341  LEU341     -0.1977
    181  CA        20.3640   36.8460   60.8070 C.3   341  LEU341      0.1596
    182  C         19.7210   35.6270   60.0050 C.2   341  LEU341      0.2287
    183  O         18.8130   34.9160   60.5130 O.2   341  LEU341     -0.2864
    184  CB        21.4910   36.2980   61.6580 C.3   341  LEU341      0.0297
    185  CG        22.3220   37.3730   62.3420 C.3   341  LEU341      0.0022
    186  CD1       23.2210   36.7280   63.4080 C.3   341  LEU341      0.0001
    187  CD2       23.1900   38.0380   61.3040 C.3   341  LEU341      0.0001
    188  N         27.3610   39.2270   59.1270 N.3   362  LEU362     -0.1245
    189  CA        28.1070   38.8730   60.3390 C.3   362  LEU362      0.1561
    190  C         28.7860   37.5550   60.0770 C.2   362  LEU362      0.2260
    191  O         28.1100   36.5370   59.8600 O.2   362  LEU362     -0.2867
    192  CB        27.1270   38.7080   61.5040 C.3   362  LEU362      0.0270
    193  CG        27.7610   38.4620   62.8800 C.3   362  LEU362      0.0019
    194  CD1       28.5620   39.6730   63.4260 C.3   362  LEU362      0.0001
    195  CD2       26.6670   38.0000   63.8330 C.3   362  LEU362      0.0001
    196  N         23.4560   32.2880   68.2120 N.3   382  VAL382     -0.1231
    197  CA        23.3400   33.7780   68.0390 C.3   382  VAL382      0.1692
    198  C         24.1070   34.4120   69.2100 C.2   382  VAL382      0.2592
    199  O         23.7510   34.2020   70.3430 O.2   382  VAL382     -0.2718
    200  CB        21.8980   34.2890   67.9820 C.3   382  VAL382      0.0266
    201  CG1       21.8270   35.8220   67.9980 C.3   382  VAL382      0.0020
    202  CG2       21.2290   33.7370   66.7060 C.3   382  VAL382      0.0020
    203  N         25.1710   35.1380   68.8990 N.am  383  LEU383     -0.1966
    204  CA        25.9230   35.8290   69.9420 C.3   383  LEU383      0.1728
    205  C         25.2680   37.1480   70.2860 C.2   383  LEU383      0.2616
    206  O         24.2420   37.5070   69.6940 O.2   383  LEU383     -0.2715
    207  CB        27.3550   36.0180   69.4960 C.3   383  LEU383      0.0311
    208  CG        28.1680   34.7580   69.2610 C.3   383  LEU383      0.0022
    209  CD1       29.6840   35.0020   69.5180 C.3   383  LEU383      0.0001
    210  CD2       27.5930   33.6670   70.1590 C.3   383  LEU383      0.0001
    211  N         25.8780   37.8890   71.2170 N.am  384  LEU384     -0.1977
    212  CA        25.3020   39.1010   71.7040 C.3   384  LEU384      0.1596
    213  C         25.9080   40.3250   71.0420 C.2   384  LEU384      0.2287
    214  O         27.0620   40.3480   70.5650 O.2   384  LEU384     -0.2864
    215  CB        25.5350   39.1670   73.2350 C.3   384  LEU384      0.0297
    216  CG        24.9090   37.9190   73.8550 C.3   384  LEU384      0.0022
    217  CD1       25.2940   37.8940   75.3310 C.3   384  LEU384      0.0001
    218  CD2       23.3900   37.9230   73.6070 C.3   384  LEU384      0.0001
@<TRIPOS>BOND
     1   115   114    2
     2   114   113    1
     3    93    92    2
     4   113   112    1
     5   113   116    1
     6    90    91    1
     7   105   104    2
     8    92    91    1
     9   109   111   ar
    10   109   107   ar
    11   102   103    1
    12    89    88    2
    13    99    97   ar
    14    99   100   ar
    15   111   110   ar
    16   101   100    1
    17   118   120   ar
    18   118   117   ar
    19    91    94    1
    20    97    95   ar
    21   120   122   ar
    22   100    98   ar
    23    36    34   ar
    24   104   103    1
    25   116   117    1
    26   107   106    1
    27   107   108   ar
    28   106   103    1
    29   188   189    1
    30   117   119   ar
    31    95    94    1
    32    95    96   ar
    33    98    96   ar
    34    31    32    2
    35    31    30    1
    36    88    87    1
    37   110   108   ar
    38   191   190    2
    39   122   121   ar
    40    34    33    1
    41    34    35   ar
    42   182   183    2
    43   182   181    1
    44   190   189    1
    45    33    30    1
    46   178   177    2
    47   189   192    1
    48   119   121   ar
    49    30    29    1
    50    87    86    1
    51   181   184    1
    52   181   180    1
    53    46    47   ar
    54    46    44   ar
    55   187   185    1
    56   177   180   am
    57   177   176    1
    58   192   193    1
    59    47    45   ar
    60    44    42   ar
    61   184   185    1
    62    29    22   am
    63   179   176    1
    64    23    22    2
    65   175   176    1
    66   175   169   am
    67   185   186    1
    68    22    21    1
    69   173   172    2
    70    37    38    1
    71    45    43   ar
    72   193   194    1
    73   193   195    1
    74    42    43   ar
    75    42    41    1
    76   168   169    1
    77   168   171    1
    78   168   167    1
    79    27    26   ar
    80   169   170    2
    81    24    21    1
    82    24    25    1
    83   172   171    1
    84   172   174   am
    85    41    38    1
    86    21    20    1
    87    38    39    1
    88    40    39    2
    89    26    25    1
    90    26    28   ar
    91    20    15   am
    92    18    17    1
    93    81    80    1
    94    81    82    2
    95    80    83    1
    96    80    79    1
    97    83    85    1
    98    83    84    1
    99   165   166    1
   100   165   162    1
   101    15    16    2
   102    15    14    1
   103   160   159    1
   104    58    56   ar
   105    58    57   ar
   106   158   159   ar
   107   158   156   ar
   108    17    14    1
   109    17    19    1
   110    56    54   ar
   111    14    13    1
   112   159   157   ar
   113   148   147    1
   114    57    55   ar
   115   156   154   ar
   116   202   200    1
   117   147   144    1
   118   161   162    1
   119   161   151   am
   120   162   163    1
   121   164   163    2
   122    54    53   ar
   123   157   155   ar
   124     4     3    2
   125    55    53   ar
   126   154   155   ar
   127   154   153    1
   128   150   151    1
   129   150   153    1
   130   150   149    1
   131    13     3   am
   132   200   201    1
   133   200   197    1
   134    53    52    1
   135    48    49    1
   136   197   196    1
   137   197   198    1
   138   151   152    2
   139     3     2    1
   140   144   145    1
   141   144   143    1
   142   146   145    2
   143   203   198   am
   144   203   204    1
   145    49    52    1
   146    49    50    1
   147   134   133    1
   148   198   199    2
   149   208   207    1
   150   208   209    1
   151   208   210    1
   152   142   140    1
   153   138   137    2
   154   207   204    1
   155   206   205    2
   156     2     1    1
   157     2     5    1
   158   204   205    1
   159   140   139    1
   160   140   141    1
   161   133   132   ar
   162   133   131   ar
   163    12    11    1
   164   205   211   am
   165    10    11   ar
   166    10     8   ar
   167    11     9   ar
   168    50    51    2
   169     8     6   ar
   170   139   136    1
   171   214   213    2
   172     9     7   ar
   173     6     7   ar
   174     6     5    1
   175    70    69    1
   176   132   130   ar
   177   131   129   ar
   178   137   136    1
   179   213   212    1
   180   211   212    1
   181   126   125    2
   182   136   135    1
   183    77    76    2
   184   129   128   ar
   185    69    67   ar
   186    69    68   ar
   187    67    65   ar
   188   212   215    1
   189   130   128   ar
   190   123   124    1
   191   128   127    1
   192    76    78   am
   193    76    75    1
   194   125   124    1
   195    68    66   ar
   196    65    64   ar
   197    72    71    1
   198    72    75    1
   199    72    73    1
   200   124   127    1
   201   215   216    1
   202    73    74    2
   203    66    64   ar
   204   218   216    1
   205    64    63    1
   206    59    60    1
   207   216   217    1
   208    60    63    1
   209    60    61    1
   210    61    62    2
