@<TRIPOS>MOLECULE
tmp/4bbmA00.pdb
 184 179 0 0 0
SMALL
GASTEIGER

@<TRIPOS>ATOM
      1  N         -2.7950    6.4440  -50.0930 N.3    18  VAL18      -0.1231
      2  CA        -3.1030    5.9530  -48.7340 C.3    18  VAL18       0.1692
      3  C         -2.5600    4.5410  -48.5770 C.2    18  VAL18       0.2592
      4  O         -2.5390    3.7730  -49.5380 O.2    18  VAL18      -0.2718
      5  CB        -4.6270    5.9110  -48.4200 C.3    18  VAL18       0.0266
      6  CG1       -4.8770    5.3890  -47.0050 C.3    18  VAL18       0.0020
      7  CG2       -5.2690    7.2820  -48.5710 C.3    18  VAL18       0.0020
      8  N         -2.1180    4.2210  -47.3650 N.am   19  GLY19      -0.1957
      9  CA        -1.6400    2.8910  -47.0270 C.3    19  GLY19       0.1869
     10  C         -0.2020    2.7380  -47.4430 C.2    19  GLY19       0.2309
     11  O          0.1460    1.7740  -48.1040 O.2    19  GLY19      -0.2863
     12  N         -4.1310   -1.0100  -49.8900 N.3    21  TYR21      -0.1241
     13  CA        -5.5420   -1.0180  -50.2870 C.3    21  TYR21       0.1605
     14  C         -5.7260   -0.7940  -51.7930 C.2    21  TYR21       0.2264
     15  O         -6.7820   -0.3200  -52.2300 O.2    21  TYR21      -0.2867
     16  CB        -6.3150    0.0680  -49.5140 C.3    21  TYR21       0.0534
     17  CG        -5.9460    0.2020  -48.0450 C.ar   21  TYR21      -0.0201
     18  CD1       -6.3270   -0.7630  -47.1150 C.ar   21  TYR21      -0.0009
     19  CD2       -5.2330    1.3050  -47.5840 C.ar   21  TYR21      -0.0009
     20  CE1       -5.9910   -0.6460  -45.7700 C.ar   21  TYR21       0.0417
     21  CE2       -4.9020    1.4400  -46.2450 C.ar   21  TYR21       0.0417
     22  CZ        -5.2750    0.4630  -45.3390 C.ar   21  TYR21       0.1957
     23  OH        -4.9320    0.5860  -44.0100 O.3    21  TYR21      -0.2866
     24  N         -5.6150    3.6550  -53.5680 N.3    24  VAL24      -0.1245
     25  CA        -6.4920    4.4990  -52.7540 C.3    24  VAL24       0.1561
     26  C         -5.7620    5.7960  -52.3720 C.2    24  VAL24       0.2260
     27  O         -4.7780    5.7780  -51.6260 O.2    24  VAL24      -0.2867
     28  CB        -6.9720    3.7420  -51.4960 C.3    24  VAL24       0.0252
     29  CG1       -7.7260    4.6590  -50.5470 C.3    24  VAL24       0.0019
     30  CG2       -7.8470    2.5570  -51.8980 C.3    24  VAL24       0.0019
     31  N        -10.5880    9.6370  -48.5240 N.3    37  ALA37      -0.1245
     32  CA        -9.8350    8.5490  -49.1310 C.3    37  ALA37       0.1562
     33  C        -10.5380    8.0900  -50.4030 C.2    37  ALA37       0.2260
     34  O        -11.6230    7.4910  -50.3370 O.2    37  ALA37      -0.2867
     35  CB        -9.6850    7.3880  -48.1430 C.3    37  ALA37       0.0290
     36  N        -10.7810    5.9440  -53.9710 N.3    39  LYS39      -0.1245
     37  CA       -10.3960    4.7600  -54.7260 C.3    39  LYS39       0.1561
     38  C        -10.9400    4.8690  -56.1440 C.2    39  LYS39       0.2260
     39  O        -12.0220    5.4250  -56.3490 O.2    39  LYS39      -0.2867
     40  CB       -10.9660    3.5030  -54.0590 C.3    39  LYS39       0.0271
     41  CG       -10.3680    2.2100  -54.5870 C.3    39  LYS39       0.0035
     42  CD       -11.0450    0.9840  -53.9830 C.3    39  LYS39       0.0206
     43  CE       -12.2670    0.5610  -54.7720 C.3    39  LYS39       0.1093
     44  NZ       -11.9500    0.1670  -56.1760 N.3    39  LYS39      -0.1314
     45  N        -16.2340    1.8200  -42.6150 N.3    70  VAL70      -0.1245
     46  CA       -15.9260    3.0880  -43.3020 C.3    70  VAL70       0.1561
     47  C        -17.1110    3.5110  -44.1690 C.2    70  VAL70       0.2260
     48  O        -17.6740    2.6960  -44.8950 O.2    70  VAL70      -0.2867
     49  CB       -14.6640    3.0410  -44.1930 C.3    70  VAL70       0.0252
     50  CG1      -13.4230    2.7420  -43.3760 C.3    70  VAL70       0.0019
     51  CG2      -14.8330    2.0360  -45.3210 C.3    70  VAL70       0.0019
     52  N        -14.4010    7.6650  -49.7570 N.3    86  PHE86      -0.1227
     53  CA       -14.6270    7.1440  -48.4220 C.3    86  PHE86       0.1736
     54  C        -14.0510    8.0960  -47.3860 C.2    86  PHE86       0.2595
     55  O        -13.1780    8.9050  -47.6900 O.2    86  PHE86      -0.2718
     56  CB       -13.9650    5.7850  -48.2640 C.3    86  PHE86       0.0547
     57  CG       -14.5890    4.6790  -49.0800 C.ar   86  PHE86      -0.0202
     58  CD1      -15.6970    3.9920  -48.6180 C.ar   86  PHE86      -0.0042
     59  CD2      -14.0240    4.2870  -50.2820 C.ar   86  PHE86      -0.0042
     60  CE1      -16.2530    2.9460  -49.3400 C.ar   86  PHE86      -0.0003
     61  CE2      -14.5620    3.2350  -51.0090 C.ar   86  PHE86      -0.0003
     62  CZ       -15.6810    2.5640  -50.5390 C.ar   86  PHE86      -0.0000
     63  N        -14.5110    7.9690  -46.1480 N.am   87  GLU87      -0.1965
     64  CA       -13.9390    8.7600  -45.0520 C.3    87  GLU87       0.1733
     65  C        -12.4710    8.3480  -44.7390 C.2    87  GLU87       0.2616
     66  O        -12.0630    7.2200  -45.0050 O.2    87  GLU87      -0.2715
     67  CB       -14.8270    8.6790  -43.7930 C.3    87  GLU87       0.0429
     68  CG       -14.9670    7.2830  -43.1740 C.3    87  GLU87       0.1163
     69  CD       -15.9870    7.2020  -42.0360 C.2    87  GLU87       0.3649
     70  OE1      -16.3150    8.2270  -41.4170 O.co2  87  GLU87      -0.2457
     71  OE2      -16.4840    6.0950  -41.7410 O.co2  87  GLU87      -0.2457
     72  N        -11.6890    9.3070  -44.2440 N.am   88  PHE88      -0.1960
     73  CA       -10.3030    9.0780  -43.8380 C.3    88  PHE88       0.1771
     74  C        -10.1770    8.9460  -42.3090 C.2    88  PHE88       0.2619
     75  O        -10.4350    9.9050  -41.5770 O.2    88  PHE88      -0.2715
     76  CB        -9.3940   10.1980  -44.3650 C.3    88  PHE88       0.0574
     77  CG        -7.9430    9.9440  -44.1120 C.ar   88  PHE88      -0.0200
     78  CD1       -7.2270    9.0900  -44.9330 C.ar   88  PHE88      -0.0042
     79  CD2       -7.3040   10.5220  -43.0300 C.ar   88  PHE88      -0.0042
     80  CE1       -5.8960    8.8320  -44.6850 C.ar   88  PHE88      -0.0003
     81  CE2       -5.9780   10.2630  -42.7730 C.ar   88  PHE88      -0.0003
     82  CZ        -5.2700    9.4200  -43.6020 C.ar   88  PHE88      -0.0000
     83  N         -9.7890    7.7570  -41.8400 N.am   89  VAL89      -0.1963
     84  CA        -9.7290    7.4170  -40.4110 C.3    89  VAL89       0.1727
     85  C         -8.2830    7.5040  -39.9330 C.2    89  VAL89       0.2616
     86  O         -7.3620    7.1820  -40.6760 O.2    89  VAL89      -0.2715
     87  CB       -10.2640    5.9960  -40.1510 C.3    89  VAL89       0.0290
     88  CG1      -10.4440    5.7600  -38.6580 C.3    89  VAL89       0.0023
     89  CG2      -11.5950    5.7920  -40.8560 C.3    89  VAL89       0.0023
     90  N         -8.0990    7.9140  -38.6770 N.am   90  ASP90      -0.1957
     91  CA        -6.7690    8.2680  -38.1300 C.3    90  ASP90       0.1840
     92  C         -5.6610    7.2220  -38.3220 C.2    90  ASP90       0.2622
     93  O         -4.6020    7.5550  -38.8160 O.2    90  ASP90      -0.2715
     94  CB        -6.8910    8.5950  -36.6310 C.3    90  ASP90       0.1450
     95  CG        -5.5670    9.0490  -36.0250 C.2    90  ASP90       0.3671
     96  OD1       -5.1340   10.1820  -36.3220 O.co2  90  ASP90      -0.2456
     97  OD2       -4.9600    8.2640  -35.2600 O.co2  90  ASP90      -0.2456
     98  N         -5.8990    5.9520  -37.9460 N.am   91  HIS91      -0.1959
     99  CA        -4.8310    4.9450  -38.0290 C.3    91  HIS91       0.1787
    100  C         -5.4080    3.5190  -38.0880 C.2    91  HIS91       0.2620
    101  O         -6.6130    3.3800  -38.2330 O.2    91  HIS91      -0.2715
    102  CB        -3.8330    5.1330  -36.8700 C.3    91  HIS91       0.0785
    103  CG        -4.3940    4.8290  -35.5200 C.ar   91  HIS91       0.0821
    104  ND1       -4.9420    5.7950  -34.7030 N.ar   91  HIS91      -0.2267
    105  CD2       -4.4930    3.6570  -34.8430 C.ar   91  HIS91       0.1154
    106  CE1       -5.3650    5.2240  -33.5860 C.ar   91  HIS91       0.1986
    107  NE2       -5.1160    3.9270  -33.6530 N.ar   91  HIS91      -0.2212
    108  N         -4.5590    2.4860  -37.9990 N.am   92  THR92      -0.1951
    109  CA        -5.0180    1.0750  -38.0760 C.3    92  THR92       0.1897
    110  C         -4.7370    0.2910  -36.7950 C.2    92  THR92       0.2313
    111  O         -3.9790    0.7230  -35.9360 O.2    92  THR92      -0.2863
    112  CB        -4.3550    0.2760  -39.2160 C.3    92  THR92       0.1794
    113  OG1       -2.9650    0.0810  -38.9360 O.3    92  THR92      -0.2208
    114  CG2       -4.5100    0.9610  -40.5270 C.3    92  THR92       0.0378
    115  N         -0.9570   -0.4440  -36.6290 N.3    95  ASP95      -0.1239
    116  CA        -0.2130    0.6480  -36.0280 C.3    95  ASP95       0.1674
    117  C         -0.1810    0.5360  -34.4990 C.2    95  ASP95       0.2266
    118  O          0.8610    0.7110  -33.8950 O.2    95  ASP95      -0.2867
    119  CB        -0.8170    2.0030  -36.4090 C.3    95  ASP95       0.1410
    120  CG        -0.6910    2.3170  -37.8920 C.2    95  ASP95       0.3668
    121  OD1        0.3420    1.9670  -38.5100 O.co2  95  ASP95      -0.2456
    122  OD2       -1.6250    2.9440  -38.4330 O.co2  95  ASP95      -0.2456
    123  N         -4.1860   -4.6070  -40.6530 N.3   136  GLU136     -0.1245
    124  CA        -3.9710   -3.4200  -41.5100 C.3   136  GLU136      0.1567
    125  C         -5.2830   -2.9350  -42.1490 C.2   136  GLU136      0.2260
    126  O         -5.3980   -1.7740  -42.5580 O.2   136  GLU136     -0.2867
    127  CB        -2.9170   -3.7160  -42.5980 C.3   136  GLU136      0.0388
    128  CG        -2.0850   -2.4960  -43.0070 C.3   136  GLU136      0.1160
    129  CD        -1.2400   -2.6740  -44.2650 C.2   136  GLU136      0.3649
    130  OE1       -0.9340   -3.8220  -44.6360 O.co2 136  GLU136     -0.2457
    131  OE2       -0.8610   -1.6480  -44.8910 O.co2 136  GLU136     -0.2457
    132  N         -9.3970    0.0360  -39.3090 N.3   139  LEU139     -0.1245
    133  CA        -9.0160    1.4140  -39.0160 C.3   139  LEU139      0.1561
    134  C         -9.5360    1.8120  -37.6340 C.2   139  LEU139      0.2260
    135  O        -10.5300    1.2770  -37.1570 O.2   139  LEU139     -0.2867
    136  CB        -9.5720    2.3470  -40.0950 C.3   139  LEU139      0.0270
    137  CG        -9.2270    1.9490  -41.5430 C.3   139  LEU139      0.0019
    138  CD1      -10.0400    2.7310  -42.5620 C.3   139  LEU139      0.0001
    139  CD2       -7.7440    2.1320  -41.8230 C.3   139  LEU139      0.0001
    140  N        -12.5910   -1.5400  -43.3780 N.3   149  CYS149     -0.1221
    141  CA       -12.6010   -1.1870  -44.7990 C.3   149  CYS149      0.1808
    142  C        -12.3720   -2.4150  -45.7000 C.2   149  CYS149      0.2601
    143  O        -12.1450   -3.5280  -45.2210 O.2   149  CYS149     -0.2717
    144  CB       -11.5760   -0.0820  -45.1090 C.3   149  CYS149      0.0970
    145  SG        -9.8390   -0.5090  -44.8240 S.3   149  CYS149     -0.0800
    146  N        -12.5050   -2.2030  -47.0040 N.am  150  ASP150     -0.1959
    147  CA       -12.0660   -3.1530  -48.0310 C.3   150  ASP150      0.1840
    148  C        -12.9100   -4.4360  -48.1300 C.2   150  ASP150      0.2622
    149  O        -12.4360   -5.5400  -47.8270 O.2   150  ASP150     -0.2715
    150  CB       -10.5740   -3.4920  -47.8350 C.3   150  ASP150      0.1450
    151  CG        -9.9020   -3.9290  -49.1220 C.2   150  ASP150      0.3671
    152  OD1      -10.4080   -3.5750  -50.2090 O.co2 150  ASP150     -0.2456
    153  OD2       -8.8630   -4.6240  -49.0450 O.co2 150  ASP150     -0.2456
    154  N        -14.1450   -4.2960  -48.6060 N.am  151  PHE151     -0.1960
    155  CA       -15.0390   -5.4540  -48.7460 C.3   151  PHE151      0.1771
    156  C        -15.9650   -5.4120  -49.9710 C.2   151  PHE151      0.2620
    157  O        -17.1680   -5.1640  -49.8290 O.2   151  PHE151     -0.2715
    158  CB       -15.8650   -5.6630  -47.4620 C.3   151  PHE151      0.0574
    159  CG       -16.4370   -4.4090  -46.8860 C.ar  151  PHE151     -0.0200
    160  CD1      -15.6530   -3.5750  -46.1040 C.ar  151  PHE151     -0.0042
    161  CD2      -17.7620   -4.0760  -47.0980 C.ar  151  PHE151     -0.0042
    162  CE1      -16.1780   -2.4170  -45.5640 C.ar  151  PHE151     -0.0003
    163  CE2      -18.2920   -2.9190  -46.5580 C.ar  151  PHE151     -0.0003
    164  CZ       -17.5010   -2.0890  -45.7890 C.ar  151  PHE151     -0.0000
    165  N        -15.4090   -5.6450  -51.1670 N.am  152  GLY152     -0.1940
    166  CA       -16.2300   -6.0820  -52.3140 C.3   152  GLY152      0.2014
    167  C        -16.0890   -5.4060  -53.6740 C.2   152  GLY152      0.2639
    168  O        -16.0160   -6.0870  -54.7050 O.2   152  GLY152     -0.2714
    169  N        -16.0690   -4.0760  -53.6880 N.am  153  PHE153     -0.1959
    170  CA       -16.0870   -3.3120  -54.9400 C.3   153  PHE153      0.1771
    171  C        -14.8450   -3.5530  -55.8000 C.2   153  PHE153      0.2619
    172  O        -14.9420   -4.0350  -56.9320 O.2   153  PHE153     -0.2715
    173  CB       -16.2210   -1.8160  -54.6450 C.3   153  PHE153      0.0574
    174  CG       -15.3020   -1.3210  -53.5690 C.ar  153  PHE153     -0.0200
    175  CD1      -15.6310   -1.5140  -52.2250 C.ar  153  PHE153     -0.0042
    176  CD2      -14.1150   -0.6990  -53.9210 C.ar  153  PHE153     -0.0042
    177  CE1      -14.7480   -1.0750  -51.2170 C.ar  153  PHE153     -0.0003
    178  CE2      -13.2230   -0.2750  -52.9280 C.ar  153  PHE153     -0.0003
    179  CZ       -13.5480   -0.4580  -51.5920 C.ar  153  PHE153     -0.0000
    180  N        -13.6840   -3.2060  -55.2560 N.am  154  ALA154     -0.1977
    181  CA       -12.4160   -3.3730  -55.9590 C.3   154  ALA154      0.1597
    182  C        -12.1050   -4.8480  -56.2590 C.2   154  ALA154      0.2287
    183  O        -11.5110   -5.1600  -57.2940 O.2   154  ALA154     -0.2864
    184  CB       -11.2860   -2.7500  -55.1480 C.3   154  ALA154      0.0319
@<TRIPOS>BOND
     1   183   182    2
     2   172   171    2
     3    39    38    2
     4   182   181    1
     5    44    43    1
     6    38    37    1
     7   181   180    1
     8   181   184    1
     9   171   180   am
    10   171   170    1
    11   170   173    1
    12   170   169    1
    13    43    42    1
    14    37    40    1
    15    37    36    1
    16   168   167    2
    17   173   174    1
    18    41    40    1
    19    41    42    1
    20   176   174   ar
    21   176   178   ar
    22   169   167   am
    23   167   166    1
    24   174   175   ar
    25    24    25    1
    26   178   179   ar
    27    25    26    1
    28    25    28    1
    29    26    27    2
    30   166   165    1
    31    15    14    2
    32   175   177   ar
    33    30    28    1
    34    14    13    1
    35   179   177   ar
    36    28    29    1
    37   165   156   am
    38    61    62   ar
    39    61    59   ar
    40    62    60   ar
    41    33    34    2
    42    33    32    1
    43    13    12    1
    44    13    16    1
    45    59    57   ar
    46   152   151   ar
    47     1     2    1
    48   156   157    2
    49   156   155    1
    50    52    53    1
    51     4     3    2
    52    16    17    1
    53    60    58   ar
    54    32    31    1
    55    32    35    1
    56   151   153   ar
    57   151   150    1
    58    57    58   ar
    59    57    56    1
    60   155   154    1
    61   155   158    1
    62     2     3    1
    63     2     5    1
    64   154   148   am
    65     3     8   am
    66     7     5    1
    67    53    56    1
    68    53    54    1
    69     5     6    1
    70   148   147    1
    71   148   149    2
    72    11    10    2
    73    17    19   ar
    74    17    18   ar
    75   147   150    1
    76   147   146    1
    77    55    54    2
    78    19    21   ar
    79   158   159    1
    80    10     9    1
    81    54    63   am
    82     8     9    1
    83    18    20   ar
    84   161   159   ar
    85   161   163   ar
    86   146   142   am
    87   159   160   ar
    88   163   164   ar
    89    21    22   ar
    90    63    64    1
    91   160   162   ar
    92   164   162   ar
    93    20    22   ar
    94   142   143    2
    95   142   141    1
    96    22    23    1
    97    51    49    1
    98   144   145    1
    99   144   141    1
   100    64    65    1
   101    64    67    1
   102    66    65    2
   103    78    80   ar
   104    78    77   ar
   105    48    47    2
   106   131   129   ar
   107   141   140    1
   108    65    72   am
   109    80    82   ar
   110   130   129   ar
   111    76    77    1
   112    76    73    1
   113   129   128    1
   114    72    73    1
   115    49    50    1
   116    49    46    1
   117    47    46    1
   118    77    79   ar
   119    73    74    1
   120    67    68    1
   121    82    81   ar
   122    46    45    1
   123    68    69    1
   124    79    81   ar
   125   128   127    1
   126   127   124    1
   127   138   137    1
   128   126   125    2
   129    74    83   am
   130    74    75    2
   131   125   124    1
   132    69    71   ar
   133    69    70   ar
   134    83    84    1
   135   139   137    1
   136   137   136    1
   137   124   123    1
   138    89    87    1
   139    86    85    2
   140   114   112    1
   141    84    87    1
   142    84    85    1
   143    87    88    1
   144   136   133    1
   145    85    90   am
   146   132   133    1
   147   112   113    1
   148   112   109    1
   149   133   134    1
   150    93    92    2
   151    90    91    1
   152   121   120   ar
   153   122   120   ar
   154    92    91    1
   155    92    98   am
   156   101   100    2
   157    91    94    1
   158   100    99    1
   159   100   108   am
   160   109   108    1
   161   109   110    1
   162    99    98    1
   163    99   102    1
   164   120   119    1
   165   134   135    2
   166   102   103    1
   167   110   111    2
   168    94    95    1
   169   115   116    1
   170   119   116    1
   171    96    95   ar
   172   116   117    1
   173    95    97   ar
   174   103   105   ar
   175   103   104   ar
   176   105   107   ar
   177   104   106   ar
   178   117   118    2
   179   107   106   ar
