@<TRIPOS>MOLECULE
tmp/4bbpA00.pdb
 185 182 0 0 0
SMALL
GASTEIGER

@<TRIPOS>ATOM
      1  N         47.8160  -25.5290   -5.0830 N.3     6  LEU6       -0.1245
      2  CA        48.3100  -24.1990   -5.4100 C.3     6  LEU6        0.1561
      3  C         49.8000  -24.2770   -5.6940 C.2     6  LEU6        0.2260
      4  O         50.4880  -25.1490   -5.1740 O.2     6  LEU6       -0.2867
      5  CB        48.0490  -23.2380   -4.2350 C.3     6  LEU6        0.0270
      6  CG        46.5870  -22.9850   -3.8310 C.3     6  LEU6        0.0019
      7  CD1       46.4720  -22.4330   -2.4090 C.3     6  LEU6        0.0001
      8  CD2       45.8710  -22.0500   -4.8450 C.3     6  LEU6        0.0001
      9  N         45.4860  -26.0280  -10.3740 N.3    27  LEU27      -0.1245
     10  CA        44.8430  -24.8650  -10.9490 C.3    27  LEU27       0.1561
     11  C         45.8350  -23.8070  -11.4620 C.2    27  LEU27       0.2260
     12  O         46.9250  -23.6480  -10.9120 O.2    27  LEU27      -0.2867
     13  CB        43.8870  -24.2430   -9.9050 C.3    27  LEU27       0.0270
     14  CG        44.3660  -23.5420   -8.6080 C.3    27  LEU27       0.0019
     15  CD1       45.8720  -23.5970   -8.3510 C.3    27  LEU27       0.0001
     16  CD2       43.8780  -22.1040   -8.4970 C.3    27  LEU27       0.0001
     17  N         47.2370  -19.9950  -11.9580 N.3    29  ASP29      -0.1225
     18  CA        47.4080  -18.9810  -10.9260 C.3    29  ASP29       0.1805
     19  C         46.2210  -18.0180  -10.8160 C.2    29  ASP29       0.2598
     20  O         45.8430  -17.6080   -9.7120 O.2    29  ASP29      -0.2718
     21  CB        48.7090  -18.2100  -11.1470 C.3    29  ASP29       0.1424
     22  CG        49.9440  -19.0830  -10.9620 C.2    29  ASP29       0.3668
     23  OD1       49.9140  -20.0250  -10.1430 O.co2  29  ASP29      -0.2456
     24  OD2       50.9500  -18.8240  -11.6420 O.co2  29  ASP29      -0.2456
     25  N         45.6250  -17.6820  -11.9540 N.am   30  GLY30      -0.1942
     26  CA        44.5430  -16.6970  -11.9990 C.3    30  GLY30       0.2014
     27  C         43.2500  -17.0730  -11.2890 C.2    30  GLY30       0.2639
     28  O         42.3580  -16.2340  -11.1370 O.2    30  GLY30      -0.2714
     29  N         43.1430  -18.3260  -10.8580 N.am   31  ALA31      -0.1963
     30  CA        41.9500  -18.8060  -10.1880 C.3    31  ALA31       0.1728
     31  C         41.8770  -18.2910   -8.7420 C.2    31  ALA31       0.2617
     32  O         42.7450  -17.5170   -8.3140 O.2    31  ALA31      -0.2715
     33  CB        41.9030  -20.3160  -10.2400 C.3    31  ALA31       0.0334
     34  N         40.8330  -18.7090   -8.0150 N.am   32  SER32      -0.1936
     35  CA        40.6050  -18.3180   -6.6100 C.3    32  SER32       0.2055
     36  C         39.9520  -19.4520   -5.7890 C.2    32  SER32       0.2642
     37  O         40.1050  -20.6270   -6.1340 O.2    32  SER32      -0.2714
     38  CB        39.7680  -17.0340   -6.5280 C.3    32  SER32       0.2130
     39  OG        38.4050  -17.2960   -6.8170 O.3    32  SER32      -0.2179
     40  N         39.2120  -19.0900   -4.7320 N.am   33  GLU33      -0.1976
     41  CA        38.7290  -20.0530   -3.7220 C.3    33  GLU33       0.1602
     42  C         37.2090  -20.3430   -3.6650 C.2    33  GLU33       0.2287
     43  O         36.8080  -21.4590   -3.3040 O.2    33  GLU33      -0.2864
     44  CB        39.2300  -19.6470   -2.3250 C.3    33  GLU33       0.0415
     45  CG        38.4120  -18.5450   -1.6190 C.3    33  GLU33       0.1163
     46  CD        37.3820  -19.0700   -0.5970 C.2    33  GLU33       0.3649
     47  OE1       37.6210  -20.1200    0.0350 O.co2  33  GLU33      -0.2457
     48  OE2       36.3380  -18.4070   -0.3950 O.co2  33  GLU33      -0.2457
     49  N         40.4360  -22.6770    2.9040 N.3    59  MET59      -0.1230
     50  CA        41.1550  -22.0350    1.8200 C.3    59  MET59       0.1702
     51  C         40.5530  -22.5040    0.4790 C.2    59  MET59       0.2592
     52  O         39.7160  -21.8120   -0.0820 O.2    59  MET59      -0.2718
     53  CB        42.6750  -22.2920    1.9740 C.3    59  MET59       0.0401
     54  CG        43.5980  -21.7170    0.8970 C.3    59  MET59       0.0596
     55  SD        43.4020  -19.9790    0.4260 S.3    59  MET59      -0.1393
     56  CE        44.0260  -19.0690    1.8220 C.3    59  MET59       0.0692
     57  N         40.9360  -23.6830   -0.0070 N.am   60  GLU60      -0.1979
     58  CA        40.3690  -24.2170   -1.2500 C.3    60  GLU60       0.1602
     59  C         39.0150  -24.8750   -0.9850 C.2    60  GLU60       0.2287
     60  O         38.8590  -26.0930   -1.1070 O.2    60  GLU60      -0.2864
     61  CB        41.3350  -25.1910   -1.9400 C.3    60  GLU60       0.0415
     62  CG        42.8040  -24.7230   -1.9910 C.3    60  GLU60       0.1163
     63  CD        43.6170  -25.2180   -0.7950 C.2    60  GLU60       0.3649
     64  OE1       43.0630  -25.2950    0.3270 O.co2  60  GLU60      -0.2457
     65  OE2       44.8160  -25.5080   -0.9680 O.co2  60  GLU60      -0.2457
     66  N         36.4360  -24.8990   -2.6560 N.3    62  PHE62      -0.1241
     67  CA        35.9620  -25.5300   -3.8840 C.3    62  PHE62       0.1605
     68  C         36.3710  -27.0000   -4.0480 C.2    62  PHE62       0.2264
     69  O         35.7850  -27.7100   -4.8590 O.2    62  PHE62      -0.2867
     70  CB        36.4210  -24.7200   -5.1050 C.3    62  PHE62       0.0534
     71  CG        37.9240  -24.6690   -5.2810 C.ar   62  PHE62      -0.0203
     72  CD1       38.5990  -25.6810   -5.9520 C.ar   62  PHE62      -0.0042
     73  CD2       38.6620  -23.6040   -4.7800 C.ar   62  PHE62      -0.0042
     74  CE1       39.9810  -25.6440   -6.1060 C.ar   62  PHE62      -0.0003
     75  CE2       40.0480  -23.5570   -4.9380 C.ar   62  PHE62      -0.0003
     76  CZ        40.7050  -24.5860   -5.5980 C.ar   62  PHE62      -0.0000
     77  N         38.1180  -16.9920    1.3620 N.3    91  HIS91      -0.1226
     78  CA        39.0720  -17.5950    2.2880 C.3    91  HIS91       0.1752
     79  C         39.6100  -16.5870    3.2950 C.2    91  HIS91       0.2596
     80  O         40.4110  -16.9450    4.1670 O.2    91  HIS91      -0.2718
     81  CB        40.2290  -18.2590    1.5310 C.3    91  HIS91       0.0759
     82  CG        41.0710  -17.3080    0.7330 C.ar   91  HIS91       0.0818
     83  ND1       40.8720  -17.0880   -0.6120 N.ar   91  HIS91      -0.2268
     84  CD2       42.1280  -16.5370    1.0850 C.ar   91  HIS91       0.1154
     85  CE1       41.7640  -16.2190   -1.0520 C.ar   91  HIS91       0.1986
     86  NE2       42.5440  -15.8760   -0.0460 N.ar   91  HIS91      -0.2212
     87  N         39.1810  -15.3310    3.1550 N.am   92  HIS92      -0.1975
     88  CA        39.5790  -14.2600    4.0620 C.3    92  HIS92       0.1656
     89  C         38.5640  -14.0570    5.1800 C.2    92  HIS92       0.2291
     90  O         38.8300  -13.3190    6.1350 O.2    92  HIS92      -0.2864
     91  CB        39.7870  -12.9530    3.2920 C.3    92  HIS92       0.0771
     92  CG        41.0830  -12.8980    2.5480 C.ar   92  HIS92       0.0820
     93  ND1       42.2410  -12.4060    3.1080 N.ar   92  HIS92      -0.2267
     94  CD2       41.4090  -13.2880    1.2920 C.ar   92  HIS92       0.1154
     95  CE1       43.2230  -12.4920    2.2290 C.ar   92  HIS92       0.1986
     96  NE2       42.7470  -13.0310    1.1220 N.ar   92  HIS92      -0.2212
     97  N         46.8720  -18.3740    4.3220 N.3    99  HIS99      -0.1241
     98  CA        47.9220  -18.3040    3.3000 C.3    99  HIS99       0.1621
     99  C         49.1770  -18.9480    3.8570 C.2    99  HIS99       0.2264
    100  O         50.2170  -18.2920    3.9970 O.2    99  HIS99      -0.2867
    101  CB        48.2090  -16.8680    2.8530 C.3    99  HIS99       0.0745
    102  CG        46.9860  -16.0910    2.4920 C.ar   99  HIS99       0.0817
    103  ND1       46.1840  -15.4930    3.4390 N.ar   99  HIS99      -0.2268
    104  CD2       46.4180  -15.8200    1.2890 C.ar   99  HIS99       0.1154
    105  CE1       45.1700  -14.8920    2.8390 C.ar   99  HIS99       0.1986
    106  NE2       45.3000  -15.0610    1.5360 N.ar   99  HIS99      -0.2212
    107  N         51.4220  -21.1570    2.9980 N.3   101  TRP101     -0.1241
    108  CA        52.6630  -21.3880    2.2590 C.3   101  TRP101      0.1605
    109  C         53.6810  -20.2730    2.4650 C.2   101  TRP101      0.2264
    110  O         54.8580  -20.4260    2.1290 O.2   101  TRP101     -0.2867
    111  CB        52.3630  -21.5820    0.7610 C.3   101  TRP101      0.0550
    112  CG        51.6560  -20.4150    0.1270 C.ar  101  TRP101      0.0003
    113  CD1       52.2390  -19.3580   -0.5080 C.ar  101  TRP101      0.0946
    114  CD2       50.2380  -20.1820    0.0780 C.ar  101  TRP101      0.0152
    115  NE1       51.2780  -18.4830   -0.9630 N.ar  101  TRP101     -0.2442
    116  CE2       50.0400  -18.9640   -0.6250 C.ar  101  TRP101      0.0810
    117  CE3       49.1160  -20.8940    0.5370 C.ar  101  TRP101      0.0012
    118  CZ2       48.7630  -18.4200   -0.8610 C.ar  101  TRP101      0.0191
    119  CZ3       47.8510  -20.3570    0.3090 C.ar  101  TRP101      0.0001
    120  CH2       47.6820  -19.1310   -0.3960 C.ar  101  TRP101      0.0015
    121  N         46.4260   -6.8210   -0.0080 N.3   163  HIS163     -0.1241
    122  CA        46.0600   -8.2150    0.2580 C.3   163  HIS163      0.1621
    123  C         46.5510   -8.6040    1.6450 C.2   163  HIS163      0.2264
    124  O         47.7470   -8.5160    1.9320 O.2   163  HIS163     -0.2867
    125  CB        46.6820   -9.1030   -0.8230 C.3   163  HIS163      0.0745
    126  CG        46.2400  -10.5340   -0.7910 C.ar  163  HIS163      0.0817
    127  ND1       46.9830  -11.5400   -1.3690 N.ar  163  HIS163     -0.2268
    128  CD2       45.1460  -11.1320   -0.2560 C.ar  163  HIS163      0.1154
    129  CE1       46.3660  -12.6940   -1.1980 C.ar  163  HIS163      0.1986
    130  NE2       45.2510  -12.4750   -0.5210 N.ar  163  HIS163     -0.2212
    131  N         49.8820   -6.6210   -6.2360 N.3   212  GLU212     -0.1231
    132  CA        50.1670   -7.9740   -6.6920 C.3   212  GLU212      0.1684
    133  C         50.0690   -7.9960   -8.2240 C.2   212  GLU212      0.2434
    134  O         49.5560   -7.0380   -8.8120 O.2   212  GLU212     -0.2733
    135  CB        49.2030   -8.9560   -6.0240 C.3   212  GLU212      0.0402
    136  CG        49.3350   -8.9560   -4.5060 C.3   212  GLU212      0.1161
    137  CD        48.6370  -10.1150   -3.8310 C.2   212  GLU212      0.3649
    138  OE1       47.6710  -10.6580   -4.3890 O.co2 212  GLU212     -0.2457
    139  OE2       49.0570  -10.4790   -2.7210 O.co2 212  GLU212     -0.2457
    140  N         50.5630   -9.0700   -8.8750 N.am  213  PRO213     -0.2718
    141  CA        50.6640   -9.0630  -10.3500 C.3   213  PRO213      0.1535
    142  C         49.3610   -8.8140  -11.1080 C.2   213  PRO213      0.2598
    143  O         49.3980   -8.2750  -12.2050 O.2   213  PRO213     -0.2715
    144  CB        51.2080  -10.4640  -10.6700 C.3   213  PRO213      0.0310
    145  CG        52.0030  -10.8150   -9.4280 C.3   213  PRO213      0.0237
    146  CD        51.1480  -10.3020   -8.3050 C.3   213  PRO213      0.0939
    147  N         48.2290   -9.1860  -10.5270 N.am  214  GLN214     -0.1978
    148  CA        46.9410   -9.0890  -11.2120 C.3   214  GLN214      0.1601
    149  C         46.3190   -7.6820  -11.1840 C.2   214  GLN214      0.2287
    150  O         45.3330   -7.4280  -11.8820 O.2   214  GLN214     -0.2864
    151  CB        45.9550  -10.1360  -10.6730 C.3   214  GLN214      0.0394
    152  CG        45.3850   -9.8550   -9.2630 C.3   214  GLN214      0.0908
    153  CD        46.3080  -10.2900   -8.1210 C.2   214  GLN214      0.2608
    154  OE1       45.8920  -10.3240   -6.9560 O.2   214  GLN214     -0.2717
    155  NE2       47.5490  -10.6390   -8.4460 N.am  214  GLN214     -0.0878
    156  N         54.3940  -11.0540   -5.2330 N.3   235  ASP235     -0.1225
    157  CA        53.7480  -12.1830   -5.8650 C.3   235  ASP235      0.1790
    158  C         53.6960  -13.3500   -4.8790 C.2   235  ASP235      0.2440
    159  O         54.6900  -14.0580   -4.7090 O.2   235  ASP235     -0.2733
    160  CB        54.4710  -12.5610   -7.1580 C.3   235  ASP235      0.1423
    161  CG        53.8220  -13.7440   -7.8680 C.2   235  ASP235      0.3668
    162  OD1       52.7430  -14.2110   -7.4390 O.co2 235  ASP235     -0.2456
    163  OD2       54.3980  -14.2150   -8.8580 O.co2 235  ASP235     -0.2456
    164  N         52.5320  -13.5490   -4.2290 N.am  236  PRO236     -0.2718
    165  CA        52.3990  -14.5470   -3.1640 C.3   236  PRO236      0.1535
    166  C         52.3310  -15.9860   -3.6980 C.2   236  PRO236      0.2598
    167  O         52.3110  -16.9410   -2.9070 O.2   236  PRO236     -0.2715
    168  CB        51.0710  -14.1670   -2.5090 C.3   236  PRO236      0.0310
    169  CG        50.2520  -13.6200   -3.6400 C.3   236  PRO236      0.0237
    170  CD        51.2400  -12.8970   -4.5280 C.3   236  PRO236      0.0939
    171  N         52.2990  -16.1330   -5.0220 N.am  237  LEU237     -0.1978
    172  CA        52.2500  -17.4530   -5.6420 C.3   237  LEU237      0.1596
    173  C         53.5280  -17.8300   -6.4070 C.2   237  LEU237      0.2287
    174  O         53.6420  -18.9400   -6.9050 O.2   237  LEU237     -0.2864
    175  CB        51.0330  -17.5780   -6.5550 C.3   237  LEU237      0.0297
    176  CG        49.6210  -17.4550   -5.9820 C.3   237  LEU237      0.0022
    177  CD1       48.6650  -17.3260   -7.1490 C.3   237  LEU237      0.0001
    178  CD2       49.2250  -18.6360   -5.0890 C.3   237  LEU237      0.0001
    179  N         54.4180  -16.9870   -9.3380 N.3   239  THR239     -0.1218
    180  CA        53.9450  -17.3600  -10.6810 C.3   239  THR239      0.1862
    181  C         55.0560  -17.6630  -11.7090 C.2   239  THR239      0.2287
    182  O         54.8950  -18.5410  -12.5630 O.2   239  THR239     -0.2866
    183  CB        53.0220  -16.2540  -11.2820 C.3   239  THR239      0.1770
    184  OG1       53.7310  -15.0030  -11.3200 O.3   239  THR239     -0.2211
    185  CG2       51.7490  -16.0870  -10.4390 C.3   239  THR239      0.0375
@<TRIPOS>BOND
     1   182   181    2
     2   143   142    2
     3    26    25    1
     4    26    27    1
     5    17    18    1
     6    25    19   am
     7   150   149    2
     8   181   180    1
     9    24    22   ar
    10    11    10    1
    11    11    12    2
    12   184   183    1
    13    27    28    2
    14    27    29   am
    15   183   180    1
    16   183   185    1
    17   148   149    1
    18   148   151    1
    19   148   147    1
    20    21    22    1
    21    21    18    1
    22   142   147   am
    23   142   141    1
    24    22    23   ar
    25    10     9    1
    26    10    13    1
    27    18    19    1
    28    29    30    1
    29    19    20    2
    30   180   179    1
    31   151   152    1
    32   144   141    1
    33   144   145    1
    34   141   140    1
    35    33    30    1
    36    30    31    1
    37    13    14    1
    38   145   146    1
    39   152   153    1
    40   140   146    1
    41   140   133   am
    42   163   161   ar
    43   134   133    2
    44    31    32    2
    45    31    34   am
    46    14    16    1
    47    14    15    1
    48   155   153   am
    49   133   132    1
    50   153   154    2
    51    34    35    1
    52   161   162   ar
    53   161   160    1
    54   160   157    1
    55   177   176    1
    56   174   173    2
    57    39    38    1
    58   132   131    1
    59   132   135    1
    60    35    38    1
    61    35    36    1
    62   175   176    1
    63   175   172    1
    64   173   172    1
    65    37    36    2
    66    74    72   ar
    67    74    76   ar
    68   135   136    1
    69   176   178    1
    70    72    71   ar
    71   157   156    1
    72   157   158    1
    73    36    40   am
    74     3     2    1
    75     3     4    2
    76   172   171    1
    77    76    75   ar
    78     2     1    1
    79     2     5    1
    80    71    70    1
    81    71    73   ar
    82    70    67    1
    83   171   166   am
    84    75    73   ar
    85   158   159    2
    86   158   164   am
    87    69    68    2
    88     8     6    1
    89    40    41    1
    90   170   164    1
    91   170   169    1
    92   136   137    1
    93   138   137   ar
    94     5     6    1
    95   164   165    1
    96    68    67    1
    97    67    66    1
    98   137   139   ar
    99     6     7    1
   100    41    42    1
   101    41    44    1
   102   166   165    1
   103   166   167    2
   104    42    43    2
   105   169   168    1
   106   165   168    1
   107    44    45    1
   108    62    61    1
   109    62    63    1
   110    61    58    1
   111    45    46    1
   112   127   129   ar
   113   127   126   ar
   114    58    59    1
   115    58    57    1
   116   129   130   ar
   117    60    59    2
   118    85    83   ar
   119    85    86   ar
   120    65    63   ar
   121   115   116   ar
   122   115   113   ar
   123   118   116   ar
   124   118   120   ar
   125   125   126    1
   126   125   122    1
   127    63    64   ar
   128   126   128   ar
   129   116   114   ar
   130    83    82   ar
   131    46    48   ar
   132    46    47   ar
   133   130   128   ar
   134   113   112   ar
   135   120   119   ar
   136    52    51    2
   137    86    84   ar
   138   121   122    1
   139    57    51   am
   140   114   112   ar
   141   114   117   ar
   142   112   111    1
   143   122   123    1
   144   119   117   ar
   145    55    54    1
   146    55    56    1
   147    51    50    1
   148    82    84   ar
   149    82    81    1
   150   111   108    1
   151    54    53    1
   152    96    94   ar
   153    96    95   ar
   154   104   106   ar
   155   104   102   ar
   156    94    92   ar
   157    77    78    1
   158    81    78    1
   159   106   105   ar
   160   123   124    2
   161    50    53    1
   162    50    49    1
   163   110   109    2
   164    95    93   ar
   165   108   109    1
   166   108   107    1
   167    78    79    1
   168   102   101    1
   169   102   103   ar
   170    92    93   ar
   171    92    91    1
   172   105   103   ar
   173   101    98    1
   174    87    79   am
   175    87    88    1
   176    91    88    1
   177    79    80    2
   178    98    99    1
   179    98    97    1
   180    99   100    2
   181    88    89    1
   182    89    90    2
