@<TRIPOS>MOLECULE
tmp/4bbxA00.pdb
 190 181 0 0 0
SMALL
GASTEIGER

@<TRIPOS>ATOM
      1  N        -10.0670  -15.9990   30.3420 N.3    67  TYR67      -0.1227
      2  CA       -11.2800  -15.3440   29.8380 C.3    67  TYR67       0.1736
      3  C        -11.0790  -13.9570   29.2480 C.2    67  TYR67       0.2595
      4  O        -11.5310  -13.7040   28.1280 O.2    67  TYR67      -0.2718
      5  CB       -12.3730  -15.2760   30.8950 C.3    67  TYR67       0.0548
      6  CG       -13.6000  -14.5470   30.3990 C.ar   67  TYR67      -0.0200
      7  CD1      -14.4420  -15.1190   29.4390 C.ar   67  TYR67      -0.0009
      8  CD2      -13.9320  -13.2930   30.9320 C.ar   67  TYR67      -0.0009
      9  CE1      -15.6210  -14.4720   29.0710 C.ar   67  TYR67       0.0417
     10  CE2      -15.1210  -12.6560   30.5860 C.ar   67  TYR67       0.0417
     11  CZ       -15.9660  -13.2620   29.6680 C.ar   67  TYR67       0.1957
     12  OH       -17.1490  -12.6450   29.3710 O.3    67  TYR67      -0.2866
     13  N        -10.5440  -13.0240   30.0640 N.am   68  HIS68      -0.1975
     14  CA       -10.4170  -11.6280   29.6490 C.3    68  HIS68       0.1656
     15  C         -9.2730  -11.4330   28.6460 C.2    68  HIS68       0.2291
     16  O         -8.2890  -10.7330   28.9180 O.2    68  HIS68      -0.2864
     17  CB       -10.2620  -10.7240   30.8750 C.3    68  HIS68       0.0771
     18  CG       -11.5380  -10.5400   31.6390 C.ar   68  HIS68       0.0820
     19  ND1      -11.7790  -11.1480   32.8530 N.ar   68  HIS68      -0.2267
     20  CD2      -12.6480   -9.8180   31.3520 C.ar   68  HIS68       0.1154
     21  CE1      -12.9770  -10.7970   33.2850 C.ar   68  HIS68       0.1986
     22  NE2      -13.5270   -9.9930   32.3920 N.ar   68  HIS68      -0.2212
     23  N         -9.7630   -9.1070   39.5660 N.3   114  SER114     -0.1217
     24  CA       -10.8220   -8.1480   39.8080 C.3   114  SER114      0.1889
     25  C        -10.2960   -6.8450   40.3800 C.2   114  SER114      0.2288
     26  O         -9.2320   -6.8060   40.9960 O.2   114  SER114     -0.2866
     27  CB       -11.7860   -8.7320   40.8350 C.3   114  SER114      0.2089
     28  OG       -11.1150   -8.9010   42.0800 O.3   114  SER114     -0.2183
     29  N        -11.5950   -5.6120   42.9270 N.3   116  SER116     -0.1217
     30  CA       -11.6440   -5.9130   44.3590 C.3   116  SER116      0.1889
     31  C        -10.2700   -6.3220   44.8850 C.2   116  SER116      0.2288
     32  O         -9.7880   -5.7650   45.8710 O.2   116  SER116     -0.2866
     33  CB       -12.6680   -7.0200   44.6410 C.3   116  SER116      0.2089
     34  OG       -13.2940   -6.8180   45.8950 O.3   116  SER116     -0.2183
     35  N        -18.7960   -3.4440   35.9770 N.3   178  LEU178     -0.1245
     36  CA       -20.0840   -4.0200   36.3200 C.3   178  LEU178      0.1561
     37  C        -20.6340   -3.4490   37.6330 C.2   178  LEU178      0.2260
     38  O        -21.8440   -3.4690   37.8690 O.2   178  LEU178     -0.2867
     39  CB       -19.9650   -5.5380   36.3890 C.3   178  LEU178      0.0270
     40  CG       -21.2370   -6.3590   36.5870 C.3   178  LEU178      0.0019
     41  CD1      -22.4000   -5.8560   35.7440 C.3   178  LEU178      0.0001
     42  CD2      -20.9330   -7.8070   36.2550 C.3   178  LEU178      0.0001
     43  N        -20.6790   -6.7490   26.9440 N.3   217  ASP217     -0.1225
     44  CA       -19.6750   -7.3710   27.7990 C.3   217  ASP217      0.1805
     45  C        -20.1400   -8.7410   28.2810 C.2   217  ASP217      0.2597
     46  O        -19.3410   -9.6580   28.4060 O.2   217  ASP217     -0.2718
     47  CB       -19.3540   -6.4680   29.0010 C.3   217  ASP217      0.1424
     48  CG       -18.0190   -6.8160   29.6760 C.2   217  ASP217      0.3668
     49  OD1      -17.1850   -7.5070   29.0650 O.co2 217  ASP217     -0.2456
     50  OD2      -17.8200   -6.3820   30.8280 O.co2 217  ASP217     -0.2456
     51  N        -21.4390   -8.8840   28.5260 N.am  218  LEU218     -0.1979
     52  CA       -21.9790  -10.1220   29.0730 C.3   218  LEU218      0.1596
     53  C        -22.4840  -11.1110   28.0130 C.2   218  LEU218      0.2287
     54  O        -22.8640  -12.2230   28.3480 O.2   218  LEU218     -0.2864
     55  CB       -23.1190   -9.8080   30.0570 C.3   218  LEU218      0.0297
     56  CG       -22.8670   -8.9890   31.3380 C.3   218  LEU218      0.0022
     57  CD1      -24.1690   -8.9370   32.1380 C.3   218  LEU218      0.0001
     58  CD2      -21.7580   -9.5420   32.1920 C.3   218  LEU218      0.0001
     59  N        -21.8720  -13.4660   26.2660 N.3   220  SER220     -0.1202
     60  CA       -21.6220  -14.9180   26.3160 C.3   220  SER220      0.2020
     61  C        -22.8340  -15.7230   26.8150 C.2   220  SER220      0.2618
     62  O        -23.0210  -16.8790   26.4280 O.2   220  SER220     -0.2717
     63  CB       -20.4010  -15.2500   27.1760 C.3   220  SER220      0.2103
     64  OG       -19.2020  -14.8360   26.5360 O.3   220  SER220     -0.2182
     65  N        -23.6620  -15.1010   27.6500 N.am  221  VAL221     -0.1979
     66  CA       -24.8720  -15.7320   28.1650 C.3   221  VAL221      0.1595
     67  C        -26.0200  -15.7150   27.1470 C.2   221  VAL221      0.2287
     68  O        -27.1050  -16.2350   27.4340 O.2   221  VAL221     -0.2864
     69  CB       -25.3530  -15.0430   29.4720 C.3   221  VAL221      0.0276
     70  CG1      -24.2200  -14.9540   30.4880 C.3   221  VAL221      0.0022
     71  CG2      -25.9440  -13.6630   29.1970 C.3   221  VAL221      0.0022
     72  N        -22.1120  -21.1900   25.7980 N.3   228  THR228     -0.1218
     73  CA       -22.2670  -20.5580   27.1090 C.3   228  THR228      0.1862
     74  C        -21.6170  -21.3930   28.2340 C.2   228  THR228      0.2287
     75  O        -20.9130  -20.8370   29.0860 O.2   228  THR228     -0.2866
     76  CB       -23.7770  -20.3050   27.4510 C.3   228  THR228      0.1770
     77  OG1      -24.3640  -19.3830   26.5110 O.3   228  THR228     -0.2211
     78  CG2      -23.9290  -19.7650   28.8730 C.3   228  THR228      0.0375
     79  N        -17.7790  -21.2550   27.9660 N.3   231  THR231     -0.1203
     80  CA       -17.2510  -19.9370   28.3430 C.3   231  THR231      0.1994
     81  C        -17.1750  -19.7450   29.8680 C.2   231  THR231      0.2617
     82  O        -16.1820  -19.2190   30.3890 O.2   231  THR231     -0.2717
     83  CB       -18.0830  -18.8140   27.7210 C.3   231  THR231      0.1784
     84  OG1      -18.3040  -19.1030   26.3380 O.3   231  THR231     -0.2211
     85  CG2      -17.3770  -17.4590   27.8470 C.3   231  THR231      0.0376
     86  N        -18.2100  -20.1890   30.5790 N.am  232  ALA232     -0.1979
     87  CA       -18.2060  -20.1280   32.0430 C.3   232  ALA232      0.1597
     88  C        -17.0000  -20.8580   32.6030 C.2   232  ALA232      0.2287
     89  O        -16.3840  -20.4030   33.5580 O.2   232  ALA232     -0.2864
     90  CB       -19.4800  -20.7110   32.6220 C.3   232  ALA232      0.0319
     91  N        -14.1410  -18.2350   32.5580 N.3   235  ILE235     -0.1231
     92  CA       -14.1370  -17.1810   33.5830 C.3   235  ILE235      0.1692
     93  C        -13.8020  -17.7370   34.9490 C.2   235  ILE235      0.2592
     94  O        -13.1480  -17.0710   35.7440 O.2   235  ILE235     -0.2718
     95  CB       -15.4380  -16.3460   33.7590 C.3   235  ILE235      0.0266
     96  CG1      -16.6910  -17.1350   34.1360 C.3   235  ILE235      0.0019
     97  CG2      -15.6810  -15.4970   32.5430 C.3   235  ILE235      0.0020
     98  CD1      -17.9730  -16.3130   34.1680 C.3   235  ILE235      0.0001
     99  N        -14.4110  -18.8840   35.2700 N.am  236  TYR236     -0.1976
    100  CA       -14.3100  -19.4780   36.5990 C.3   236  TYR236      0.1639
    101  C        -12.8830  -19.9520   36.8520 C.2   236  TYR236      0.2290
    102  O        -12.3610  -19.7430   37.9320 O.2   236  TYR236     -0.2864
    103  CB       -15.3770  -20.5620   36.8380 C.3   236  TYR236      0.0560
    104  CG       -16.6910  -19.9590   37.3390 C.ar  236  TYR236     -0.0198
    105  CD1      -16.8440  -19.5690   38.6670 C.ar  236  TYR236     -0.0009
    106  CD2      -17.7640  -19.7420   36.4770 C.ar  236  TYR236     -0.0009
    107  CE1      -18.0380  -18.9930   39.1190 C.ar  236  TYR236      0.0417
    108  CE2      -18.9570  -19.1690   36.9240 C.ar  236  TYR236      0.0417
    109  CZ       -19.0880  -18.7920   38.2420 C.ar  236  TYR236      0.1957
    110  OH       -20.2790  -18.2260   38.6770 O.3   236  TYR236     -0.2866
    111  N        -11.3920  -16.6580   37.6960 N.3   239  PHE239     -0.1241
    112  CA       -11.8490  -16.4330   39.0750 C.3   239  PHE239      0.1605
    113  C        -11.1230  -17.3320   40.0870 C.2   239  PHE239      0.2264
    114  O        -10.7850  -16.8730   41.1670 O.2   239  PHE239     -0.2867
    115  CB       -13.3650  -16.6840   39.2360 C.3   239  PHE239      0.0534
    116  CG       -14.2570  -15.7070   38.5110 C.ar  239  PHE239     -0.0203
    117  CD1      -13.8300  -14.4290   38.1740 C.ar  239  PHE239     -0.0042
    118  CD2      -15.5660  -16.0700   38.2090 C.ar  239  PHE239     -0.0042
    119  CE1      -14.6830  -13.5540   37.5320 C.ar  239  PHE239     -0.0003
    120  CE2      -16.4170  -15.2010   37.5680 C.ar  239  PHE239     -0.0003
    121  CZ       -15.9780  -13.9430   37.2290 C.ar  239  PHE239     -0.0000
    122  N         -7.5700  -16.4120   40.8010 N.3   242  GLU242     -0.1245
    123  CA        -7.6200  -15.2730   41.7180 C.3   242  GLU242      0.1567
    124  C         -7.8200  -15.7450   43.1540 C.2   242  GLU242      0.2260
    125  O         -7.0940  -15.3270   44.0460 O.2   242  GLU242     -0.2867
    126  CB        -8.7250  -14.2760   41.3300 C.3   242  GLU242      0.0388
    127  CG        -8.9300  -13.1520   42.3670 C.3   242  GLU242      0.1160
    128  CD        -9.5820  -11.8980   41.8040 C.2   242  GLU242      0.3649
    129  OE1       -9.4940  -11.6630   40.5790 O.co2 242  GLU242     -0.2457
    130  OE2      -10.1800  -11.1400   42.5930 O.co2 242  GLU242     -0.2457
    131  N        -14.4820  -15.4440   48.3330 N.3   254  ILE254     -0.1245
    132  CA       -15.8910  -15.7490   48.1920 C.3   254  ILE254      0.1561
    133  C        -16.0120  -17.1000   47.4520 C.2   254  ILE254      0.2260
    134  O        -15.0850  -17.4900   46.7410 O.2   254  ILE254     -0.2867
    135  CB       -16.6440  -14.5940   47.4840 C.3   254  ILE254      0.0252
    136  CG1      -16.0320  -14.2740   46.1120 C.3   254  ILE254      0.0019
    137  CG2      -16.6260  -13.3630   48.3660 C.3   254  ILE254      0.0019
    138  CD1      -16.8820  -13.3390   45.2610 C.3   254  ILE254      0.0001
    139  N        -17.4160  -18.0610   44.8680 N.3   256  MET256     -0.1230
    140  CA       -17.2880  -17.8760   43.4290 C.3   256  MET256      0.1702
    141  C        -15.8690  -18.0890   42.9260 C.2   256  MET256      0.2592
    142  O        -15.6730  -18.6380   41.8440 O.2   256  MET256     -0.2718
    143  CB       -17.7210  -16.4590   43.0860 C.3   256  MET256      0.0401
    144  CG       -17.7560  -16.1190   41.6190 C.3   256  MET256      0.0596
    145  SD       -17.8420  -14.3340   41.4420 S.3   256  MET256     -0.1393
    146  CE       -16.0970  -13.9360   41.5690 C.3   256  MET256      0.0692
    147  N        -14.8930  -17.6480   43.7120 N.am  257  MET257     -0.1979
    148  CA       -13.4780  -17.7270   43.3450 C.3   257  MET257      0.1605
    149  C        -12.7370  -18.8310   44.0890 C.2   257  MET257      0.2287
    150  O        -11.5080  -18.9030   44.0300 O.2   257  MET257     -0.2864
    151  CB       -12.8060  -16.3920   43.6530 C.3   257  MET257      0.0413
    152  CG       -13.4550  -15.2330   42.9570 C.3   257  MET257      0.0598
    153  SD       -12.4880  -13.7440   43.1270 S.3   257  MET257     -0.1393
    154  CE       -12.6260  -13.0990   41.4570 C.3   257  MET257      0.0692
    155  N        -24.6800  -19.8090   41.5460 N.3   268  GLY268     -0.1210
    156  CA       -24.0160  -18.5270   41.2960 C.3   268  GLY268      0.1956
    157  C        -24.4530  -17.8620   40.0020 C.2   268  GLY268      0.2611
    158  O        -24.7590  -16.6620   39.9830 O.2   268  GLY268     -0.2717
    159  N        -24.4810  -18.6460   38.9250 N.am  269  GLN269     -0.1979
    160  CA       -25.0080  -18.1880   37.6380 C.3   269  GLN269      0.1601
    161  C        -26.5130  -17.9570   37.7080 C.2   269  GLN269      0.2287
    162  O        -27.0130  -16.9810   37.1530 O.2   269  GLN269     -0.2864
    163  CB       -24.6880  -19.1860   36.5200 C.3   269  GLN269      0.0394
    164  CG       -23.1990  -19.2510   36.1510 C.3   269  GLN269      0.0908
    165  CD       -22.6990  -17.9730   35.4970 C.2   269  GLN269      0.2608
    166  OE1      -22.9440  -17.7370   34.3210 O.2   269  GLN269     -0.2717
    167  NE2      -21.9900  -17.1500   36.2570 N.am  269  GLN269     -0.0878
    168  N        -26.6460  -14.6040   39.2360 N.3   272  PHE272     -0.1227
    169  CA       -26.1080  -13.6670   38.2530 C.3   272  PHE272      0.1736
    170  C        -27.0600  -13.4520   37.0820 C.2   272  PHE272      0.2595
    171  O        -27.1980  -12.3420   36.5970 O.2   272  PHE272     -0.2718
    172  CB       -24.7470  -14.1340   37.7250 C.3   272  PHE272      0.0547
    173  CG       -24.0650  -13.1230   36.8440 C.ar  272  PHE272     -0.0202
    174  CD1      -23.3770  -12.0520   37.4000 C.ar  272  PHE272     -0.0042
    175  CD2      -24.1290  -13.2220   35.4630 C.ar  272  PHE272     -0.0042
    176  CE1      -22.7540  -11.1070   36.5950 C.ar  272  PHE272     -0.0003
    177  CE2      -23.5030  -12.2820   34.6540 C.ar  272  PHE272     -0.0003
    178  CZ       -22.8150  -11.2240   35.2210 C.ar  272  PHE272     -0.0000
    179  N        -27.7090  -14.5090   36.6200 N.am  273  TYR273     -0.1976
    180  CA       -28.6890  -14.3610   35.5480 C.3   273  TYR273      0.1639
    181  C        -29.9220  -13.5900   36.0360 C.2   273  TYR273      0.2290
    182  O        -30.4040  -12.6980   35.3420 O.2   273  TYR273     -0.2864
    183  CB       -29.1030  -15.7160   34.9690 C.3   273  TYR273      0.0560
    184  CG       -28.2080  -16.2560   33.8720 C.ar  273  TYR273     -0.0198
    185  CD1      -26.8540  -16.4810   34.0960 C.ar  273  TYR273     -0.0009
    186  CD2      -28.7240  -16.5740   32.6110 C.ar  273  TYR273     -0.0009
    187  CE1      -26.0260  -16.9980   33.0870 C.ar  273  TYR273      0.0417
    188  CE2      -27.9030  -17.0900   31.6000 C.ar  273  TYR273      0.0417
    189  CZ       -26.5550  -17.3000   31.8550 C.ar  273  TYR273      0.1957
    190  OH       -25.7290  -17.8140   30.8880 O.3   273  TYR273     -0.2866
@<TRIPOS>BOND
     1    72    73    1
     2    59    60    1
     3    60    61    1
     4    60    63    1
     5    84    83    1
     6    62    61    2
     7    77    76    1
     8    64    63    1
     9    61    65   am
    10    43    44    1
    11    73    76    1
    12    73    74    1
    13    67    68    2
    14    67    66    1
    15    76    78    1
    16    65    66    1
    17    83    85    1
    18    83    80    1
    19    44    45    1
    20    44    47    1
    21    79    80    1
    22    53    54    2
    23    53    52    1
    24     4     3    2
    25    66    69    1
    26    74    75    2
    27    45    46    2
    28    45    51   am
    29    80    81    1
    30    51    52    1
    31    15    16    2
    32    15    14    1
    33    47    48    1
    34    49    48   ar
    35     9     7   ar
    36     9    11   ar
    37    52    55    1
    38    71    69    1
    39     3     2    1
    40     3    13   am
    41    12    11    1
    42     7     6   ar
    43    69    70    1
    44    14    13    1
    45    14    17    1
    46    11    10   ar
    47    48    50   ar
    48     2     1    1
    49     2     5    1
    50    81    82    2
    51    81    86   am
    52    55    56    1
    53     6     5    1
    54     6     8   ar
    55    86    87    1
    56    10     8   ar
    57    17    18    1
    58   190   189    1
    59    56    57    1
    60    56    58    1
    61    20    18   ar
    62    20    22   ar
    63   188   189   ar
    64   188   186   ar
    65    18    19   ar
    66   189   187   ar
    67    87    88    1
    68    87    90    1
    69    22    21   ar
    70    97    95    1
    71    91    92    1
    72    88    89    2
    73   186   184   ar
    74    19    21   ar
    75   187   185   ar
    76    92    95    1
    77    92    93    1
    78    95    96    1
    79   184   185   ar
    80   184   183    1
    81    96    98    1
    82   166   165    2
    83   177   178   ar
    84   177   175   ar
    85    93    99   am
    86    93    94    2
    87   183   180    1
    88   178   176   ar
    89    99   100    1
    90   182   181    2
    91   175   173   ar
    92   165   164    1
    93   165   167   am
    94   180   181    1
    95   180   179    1
    96    41    40    1
    97    35    36    1
    98   164   163    1
    99    42    40    1
   100    36    39    1
   101    36    37    1
   102    39    40    1
   103   106   108   ar
   104   106   104   ar
   105   163   160    1
   106   176   174   ar
   107   171   170    2
   108   100   103    1
   109   100   101    1
   110   179   170   am
   111   103   104    1
   112   173   174   ar
   113   173   172    1
   114   101   102    2
   115   108   109   ar
   116   170   169    1
   117   162   161    2
   118   121   119   ar
   119   121   120   ar
   120   104   105   ar
   121   119   117   ar
   122   120   118   ar
   123    37    38    2
   124   160   161    1
   125   160   159    1
   126   111   112    1
   127   172   169    1
   128   117   116   ar
   129   118   116   ar
   130   109   110    1
   131   109   107   ar
   132   169   168    1
   133   116   115    1
   134   105   107   ar
   135   159   157   am
   136   112   115    1
   137   112   113    1
   138    23    24    1
   139    24    25    1
   140    24    27    1
   141   158   157    2
   142   157   156    1
   143   113   114    2
   144    25    26    2
   145   129   128   ar
   146   122   123    1
   147    27    28    1
   148   156   155    1
   149   126   123    1
   150   126   127    1
   151   145   146    1
   152   145   144    1
   153   154   153    1
   154   144   143    1
   155   123   124    1
   156   128   127    1
   157   128   130   ar
   158   142   141    2
   159   141   140    1
   160   141   147   am
   161    29    30    1
   162   152   153    1
   163   152   151    1
   164   143   140    1
   165   124   125    2
   166   148   151    1
   167   148   147    1
   168   148   149    1
   169   140   139    1
   170   150   149    2
   171    30    33    1
   172    30    31    1
   173    33    34    1
   174    31    32    2
   175   138   136    1
   176   136   135    1
   177   134   133    2
   178   133   132    1
   179   135   132    1
   180   135   137    1
   181   132   131    1
