@<TRIPOS>MOLECULE
tmp/4bbzA04.pdb
 115 113 0 0 0
SMALL
GASTEIGER

@<TRIPOS>ATOM
      1  N        -18.7440  -33.4610  -27.3750 N.3   113  GLY113     -0.1210
      2  CA       -17.9410  -34.5120  -26.7930 C.3   113  GLY113      0.1956
      3  C        -18.2300  -35.8790  -27.4040 C.2   113  GLY113      0.2612
      4  O        -18.9170  -35.9880  -28.4100 O.2   113  GLY113     -0.2717
      5  N        -17.6910  -36.9280  -26.7950 N.am  114  GLY114     -0.1942
      6  CA       -17.7290  -38.2490  -27.3810 C.3   114  GLY114      0.2014
      7  C        -16.4010  -38.9720  -27.1780 C.2   114  GLY114      0.2639
      8  O        -16.0890  -39.9340  -27.8830 O.2   114  GLY114     -0.2714
      9  N        -15.6090  -38.5000  -26.2210 N.am  115  GLY115     -0.1954
     10  CA       -14.3330  -39.1260  -25.8920 C.3   115  GLY115      0.1869
     11  C        -13.3480  -39.1630  -27.0520 C.2   115  GLY115      0.2309
     12  O        -12.4410  -39.9900  -27.0670 O.2   115  GLY115     -0.2863
     13  N        -14.0100  -40.3290  -29.6950 N.3   117  GLN117     -0.1245
     14  CA       -14.2860  -41.6130  -30.3320 C.3   117  GLN117      0.1566
     15  C        -15.6780  -41.5730  -30.9320 C.2   117  GLN117      0.2260
     16  O        -15.9730  -42.3020  -31.8770 O.2   117  GLN117     -0.2867
     17  CB       -14.2150  -42.7700  -29.3260 C.3   117  GLN117      0.0367
     18  CG       -12.9900  -42.8100  -28.4340 C.3   117  GLN117      0.0905
     19  CD       -11.6880  -42.8140  -29.2200 C.2   117  GLN117      0.2608
     20  OE1      -10.8160  -41.9640  -29.0020 O.2   117  GLN117     -0.2717
     21  NE2      -11.5450  -43.7740  -30.1370 N.am  117  GLN117     -0.0878
     22  N        -18.3150  -29.4300  -24.8070 N.3   195  GLU195     -0.1231
     23  CA       -18.4750  -30.2120  -23.5830 C.3   195  GLU195      0.1699
     24  C        -17.6680  -31.5280  -23.6210 C.2   195  GLU195      0.2593
     25  O        -17.5850  -32.1720  -24.6690 O.2   195  GLU195     -0.2718
     26  CB       -19.9720  -30.4610  -23.3370 C.3   195  GLU195      0.0402
     27  CG       -20.3400  -31.1250  -22.0080 C.3   195  GLU195      0.1161
     28  CD       -20.2940  -32.6470  -22.0800 C.2   195  GLU195      0.3649
     29  OE1      -20.0860  -33.1880  -23.1960 O.co2 195  GLU195     -0.2457
     30  OE2      -20.4660  -33.2970  -21.0200 O.co2 195  GLU195     -0.2457
     31  N        -17.0780  -31.9190  -22.4840 N.am  196  SER196     -0.1938
     32  CA       -16.2250  -33.1370  -22.4050 C.3   196  SER196      0.2055
     33  C        -15.0360  -33.0010  -23.3870 C.2   196  SER196      0.2642
     34  O        -14.2770  -32.0320  -23.3170 O.2   196  SER196     -0.2714
     35  CB       -17.1370  -34.5090  -22.3860 C.3   196  SER196      0.2130
     36  OG       -16.6100  -36.0990  -22.3710 O.3   196  SER196     -0.2179
     37  N        -14.8870  -33.9550  -24.3000 N.am  197  ALA197     -0.1977
     38  CA       -13.8470  -33.8800  -25.3180 C.3   197  ALA197      0.1597
     39  C        -13.9940  -32.6120  -26.1600 C.2   197  ALA197      0.2287
     40  O        -13.0020  -32.0880  -26.6970 O.2   197  ALA197     -0.2864
     41  CB       -13.8580  -35.1320  -26.2120 C.3   197  ALA197      0.0319
     42  N         -7.5700  -38.3120  -19.6290 N.3   229  TRP229     -0.1241
     43  CA        -8.0330  -38.9760  -20.8490 C.3   229  TRP229      0.1605
     44  C         -7.7990  -38.1190  -22.1220 C.2   229  TRP229      0.2264
     45  O         -7.9750  -38.5940  -23.2470 O.2   229  TRP229     -0.2867
     46  CB        -9.5270  -39.3550  -20.7140 C.3   229  TRP229      0.0550
     47  CG       -10.3970  -38.1940  -20.2410 C.ar  229  TRP229      0.0003
     48  CD1      -10.8130  -37.9460  -18.9580 C.ar  229  TRP229      0.0946
     49  CD2      -10.9100  -37.1100  -21.0360 C.ar  229  TRP229      0.0152
     50  NE1      -11.5700  -36.7940  -18.9130 N.ar  229  TRP229     -0.2442
     51  CE2      -11.6370  -36.2580  -20.1720 C.ar  229  TRP229      0.0810
     52  CE3      -10.8300  -36.7800  -22.3920 C.ar  229  TRP229      0.0012
     53  CZ2      -12.2860  -35.0920  -20.6250 C.ar  229  TRP229      0.0191
     54  CZ3      -11.4790  -35.6150  -22.8410 C.ar  229  TRP229      0.0001
     55  CH2      -12.1900  -34.7870  -21.9580 C.ar  229  TRP229      0.0015
     56  N        -13.8260  -47.6290  -18.9990 N.3   283  PRO283     -0.2102
     57  CA       -14.9790  -46.9620  -19.6200 C.3   283  PRO283      0.1504
     58  C        -14.6290  -45.5590  -20.1060 C.2   283  PRO283      0.2576
     59  O        -15.4090  -44.9670  -20.8570 O.2   283  PRO283     -0.2718
     60  CB       -15.9830  -46.8650  -18.4740 C.3   283  PRO283      0.0282
     61  CG       -15.6460  -48.0120  -17.5980 C.3   283  PRO283      0.0208
     62  CD       -14.1490  -48.1290  -17.6500 C.3   283  PRO283      0.0893
     63  N        -13.4750  -45.0460  -19.6730 N.am  284  LEU284     -0.1966
     64  CA       -12.9840  -43.7400  -20.0970 C.3   284  LEU284      0.1728
     65  C        -11.7670  -43.8370  -21.0010 C.2   284  LEU284      0.2617
     66  O        -10.9980  -42.8870  -21.0930 O.2   284  LEU284     -0.2715
     67  CB       -12.6170  -42.8950  -18.8840 C.3   284  LEU284      0.0311
     68  CG       -13.8080  -42.4390  -18.0620 C.3   284  LEU284      0.0022
     69  CD1      -13.5450  -42.7500  -16.6290 C.3   284  LEU284      0.0001
     70  CD2      -14.0160  -40.9530  -18.2600 C.3   284  LEU284      0.0001
     71  N        -11.5790  -44.9830  -21.6520 N.am  285  SER285     -0.1936
     72  CA       -10.4440  -45.1450  -22.5560 C.3   285  SER285      0.2055
     73  C        -10.5920  -44.2560  -23.7730 C.2   285  SER285      0.2642
     74  O        -11.6450  -44.2280  -24.4110 O.2   285  SER285     -0.2714
     75  CB       -10.2780  -46.5960  -22.9990 C.3   285  SER285      0.2130
     76  OG        -9.8580  -47.4160  -21.9190 O.3   285  SER285     -0.2179
     77  N         -9.5360  -43.5090  -24.0740 N.am  286  VAL286     -0.1977
     78  CA        -9.4790  -42.7250  -25.2980 C.3   286  VAL286      0.1596
     79  C         -8.3520  -43.2960  -26.1350 C.2   286  VAL286      0.2287
     80  O         -7.1910  -42.9040  -25.9830 O.2   286  VAL286     -0.2864
     81  CB        -9.2350  -41.2450  -25.0130 C.3   286  VAL286      0.0276
     82  CG1       -9.0160  -40.4870  -26.3100 C.3   286  VAL286      0.0022
     83  CG2      -10.4040  -40.6770  -24.2510 C.3   286  VAL286      0.0022
     84  N        -20.1780  -43.2220  -15.7400 N.3   327  PHE327     -0.1241
     85  CA       -19.2180  -44.2280  -16.1760 C.3   327  PHE327      0.1605
     86  C        -19.2080  -45.4830  -15.3050 C.2   327  PHE327      0.2264
     87  O        -18.6860  -46.5190  -15.7210 O.2   327  PHE327     -0.2867
     88  CB       -17.8230  -43.6060  -16.2920 C.3   327  PHE327      0.0534
     89  CG       -17.7950  -42.3850  -17.1710 C.ar  327  PHE327     -0.0203
     90  CD1      -18.0840  -41.1250  -16.6440 C.ar  327  PHE327     -0.0042
     91  CD2      -17.5130  -42.4970  -18.5310 C.ar  327  PHE327     -0.0042
     92  CE1      -18.0830  -39.9980  -17.4530 C.ar  327  PHE327     -0.0003
     93  CE2      -17.4960  -41.3740  -19.3510 C.ar  327  PHE327     -0.0003
     94  CZ       -17.7910  -40.1220  -18.8140 C.ar  327  PHE327     -0.0000
     95  N        -12.4650  -35.0640  -14.3520 N.3   396  PHE396     -0.1241
     96  CA       -13.1480  -33.8650  -14.8250 C.3   396  PHE396      0.1605
     97  C        -12.9550  -32.6570  -13.9320 C.2   396  PHE396      0.2264
     98  O        -12.3740  -31.6500  -14.3610 O.2   396  PHE396     -0.2867
     99  CB       -14.6380  -34.1540  -15.0430 C.3   396  PHE396      0.0534
    100  CG       -14.8900  -35.2230  -16.0710 C.ar  396  PHE396     -0.0203
    101  CD1      -14.8150  -34.9310  -17.4300 C.ar  396  PHE396     -0.0042
    102  CD2      -15.1660  -36.5300  -15.6860 C.ar  396  PHE396     -0.0042
    103  CE1      -15.0260  -35.9170  -18.3830 C.ar  396  PHE396     -0.0003
    104  CE2      -15.3880  -37.5320  -16.6400 C.ar  396  PHE396     -0.0003
    105  CZ       -15.3190  -37.2300  -17.9870 C.ar  396  PHE396     -0.0000
    106  N        -22.7880  -36.0670  -15.7020 N.3   436  HIS436     -0.1241
    107  CA       -21.9890  -35.6550  -16.8420 C.3   436  HIS436      0.1621
    108  C        -22.8840  -35.5110  -18.0800 C.2   436  HIS436      0.2264
    109  O        -23.6190  -36.4430  -18.4370 O.2   436  HIS436     -0.2867
    110  CB       -20.9040  -36.7080  -17.0930 C.3   436  HIS436      0.0745
    111  CG       -20.0010  -36.4000  -18.2480 C.ar  436  HIS436      0.0817
    112  ND1      -19.0070  -35.4480  -18.1840 N.ar  436  HIS436     -0.2268
    113  CD2      -19.9330  -36.9320  -19.4910 C.ar  436  HIS436      0.1154
    114  CE1      -18.3640  -35.4060  -19.3380 C.ar  436  HIS436      0.1986
    115  NE2      -18.9060  -36.2990  -20.1490 N.ar  436  HIS436     -0.2212
@<TRIPOS>BOND
     1    16    15    2
     2    15    14    1
     3    14    13    1
     4    14    17    1
     5    21    19   am
     6    17    18    1
     7    19    20    2
     8    19    18    1
     9     4     3    2
    10     8     7    2
    11     3     5   am
    12     3     2    1
    13     6     7    1
    14     6     5    1
    15     1     2    1
    16     7     9   am
    17    12    11    2
    18    11    10    1
    19    40    39    2
    20    82    81    1
    21     9    10    1
    22    41    38    1
    23    39    38    1
    24    79    80    2
    25    79    78    1
    26    38    37    1
    27    78    81    1
    28    78    77    1
    29    81    83    1
    30    22    23    1
    31    25    24    2
    32    74    73    2
    33    37    33   am
    34    77    73   am
    35    73    72    1
    36    24    23    1
    37    24    31   am
    38    23    26    1
    39    33    34    2
    40    33    32    1
    41    26    27    1
    42    45    44    2
    43    29    28   ar
    44    75    72    1
    45    75    76    1
    46    54    52   ar
    47    54    55   ar
    48    72    71    1
    49    31    32    1
    50    32    35    1
    51    52    49   ar
    52    35    36    1
    53    44    43    1
    54    28    27    1
    55    28    30   ar
    56    55    53   ar
    57    71    65   am
    58    66    65    2
    59    49    47   ar
    60    49    51   ar
    61    65    64    1
    62    59    58    2
    63    43    46    1
    64    43    42    1
    65    46    47    1
    66    53    51   ar
    67    47    48   ar
    68    51    50   ar
    69   115   113   ar
    70   115   114   ar
    71    58    63   am
    72    58    57    1
    73    64    63    1
    74    64    67    1
    75    57    56    1
    76    57    60    1
    77   113   111   ar
    78    93    94   ar
    79    93    91   ar
    80   114   112   ar
    81    56    62    1
    82    48    50   ar
    83    67    68    1
    84    94    92   ar
    85    91    89   ar
    86    60    61    1
    87   109   108    2
    88   103   105   ar
    89   103   101   ar
    90    70    68    1
    91   111   112   ar
    92   111   110    1
    93   108   107    1
    94    68    69    1
    95   105   104   ar
    96    62    61    1
    97    92    90   ar
    98   101   100   ar
    99    89    90   ar
   100    89    88    1
   101   110   107    1
   102   107   106    1
   103   104   102   ar
   104    88    85    1
   105    85    84    1
   106    85    86    1
   107   100   102   ar
   108   100    99    1
   109    87    86    2
   110    99    96    1
   111    96    95    1
   112    96    97    1
   113    98    97    2
