@<TRIPOS>MOLECULE
tmp/4bc0B00.pdb
 157 157 0 0 0
SMALL
GASTEIGER

@<TRIPOS>ATOM
      1  N         18.7620   26.7700   54.4870 N.3    82  TRP82      -0.1241
      2  CA        17.3750   27.2170   54.3040 C.3    82  TRP82       0.1605
      3  C         16.7970   27.9100   55.5250 C.2    82  TRP82       0.2264
      4  O         15.7100   28.4780   55.4530 O.2    82  TRP82      -0.2867
      5  CB        16.4740   26.0580   53.8870 C.3    82  TRP82       0.0550
      6  CG        17.0810   25.2470   52.7950 C.ar   82  TRP82       0.0003
      7  CD1       17.7220   24.0500   52.9200 C.ar   82  TRP82       0.0946
      8  CD2       17.1370   25.5870   51.4090 C.ar   82  TRP82       0.0152
      9  NE1       18.1640   23.6150   51.6930 N.ar   82  TRP82      -0.2442
     10  CE2       17.8190   24.5450   50.7500 C.ar   82  TRP82       0.0810
     11  CE3       16.6780   26.6700   50.6620 C.ar   82  TRP82       0.0012
     12  CZ2       18.0490   24.5560   49.3850 C.ar   82  TRP82       0.0191
     13  CZ3       16.9070   26.6780   49.3050 C.ar   82  TRP82       0.0001
     14  CH2       17.5860   25.6270   48.6790 C.ar   82  TRP82       0.0015
     15  N         10.4760   29.3930   48.3500 N.3   116  GLY116     -0.1210
     16  CA         9.8300   28.1530   48.7350 C.3   116  GLY116      0.1956
     17  C          9.8860   28.0020   50.2380 C.2   116  GLY116      0.2612
     18  O          9.9010   29.0060   50.9450 O.2   116  GLY116     -0.2717
     19  N          9.9460   26.7680   50.7360 N.am  117  GLY117     -0.1942
     20  CA         9.9520   26.5360   52.1790 C.3   117  GLY117      0.2014
     21  C          8.6700   26.0090   52.8160 C.2   117  GLY117      0.2639
     22  O          8.5110   26.0570   54.0360 O.2   117  GLY117     -0.2714
     23  N          7.7500   25.5290   51.9810 N.am  118  GLY118     -0.1954
     24  CA         6.5980   24.7600   52.4240 C.3   118  GLY118      0.1869
     25  C          5.4930   25.5320   53.1090 C.2   118  GLY118      0.2309
     26  O          4.6400   24.9470   53.7670 O.2   118  GLY118     -0.2863
     27  N          5.6910   26.8450   55.6630 N.3   120  TYR120     -0.1227
     28  CA         6.0510   26.8480   57.0620 C.3   120  TYR120      0.1736
     29  C          7.3320   27.6200   57.3250 C.2   120  TYR120      0.2596
     30  O          7.7460   27.7030   58.4720 O.2   120  TYR120     -0.2718
     31  CB         6.1460   25.4230   57.6220 C.3   120  TYR120      0.0548
     32  CG         7.3150   24.6020   57.1230 C.ar  120  TYR120     -0.0200
     33  CD1        8.5430   24.6250   57.7850 C.ar  120  TYR120     -0.0009
     34  CD2        7.1880   23.7850   56.0100 C.ar  120  TYR120     -0.0009
     35  CE1        9.6190   23.8670   57.3380 C.ar  120  TYR120      0.0417
     36  CE2        8.2510   23.0260   55.5510 C.ar  120  TYR120      0.0417
     37  CZ         9.4640   23.0700   56.2160 C.ar  120  TYR120      0.1957
     38  OH        10.5270   22.3250   55.7520 O.3   120  TYR120     -0.2866
     39  N          7.9390   28.1960   56.2800 N.am  121  SER121     -0.1952
     40  CA         9.2460   28.8620   56.3910 C.3   121  SER121      0.1924
     41  C          9.7390   29.4920   55.0910 C.2   121  SER121      0.2314
     42  O          9.2420   29.1830   54.0160 O.2   121  SER121     -0.2863
     43  CB        10.2970   27.8450   56.8070 C.3   121  SER121      0.2116
     44  OG        10.4520   26.8850   55.7780 O.3   121  SER121     -0.2180
     45  N         19.3820   33.1460   47.0750 N.3   129  TYR129     -0.1241
     46  CA        18.4860   34.0680   46.3980 C.3   129  TYR129      0.1605
     47  C         19.2130   35.3690   46.1000 C.2   129  TYR129      0.2264
     48  O         18.5740   36.3760   45.7950 O.2   129  TYR129     -0.2867
     49  CB        17.1850   34.3020   47.1780 C.3   129  TYR129      0.0534
     50  CG        16.4240   33.0380   47.5730 C.ar  129  TYR129     -0.0201
     51  CD1       16.4830   31.8800   46.8140 C.ar  129  TYR129     -0.0009
     52  CD2       15.6490   33.0180   48.7220 C.ar  129  TYR129     -0.0009
     53  CE1       15.7950   30.7440   47.2040 C.ar  129  TYR129      0.0417
     54  CE2       14.9640   31.8960   49.1110 C.ar  129  TYR129      0.0417
     55  CZ        15.0370   30.7670   48.3560 C.ar  129  TYR129      0.1957
     56  OH        14.3340   29.6680   48.7770 O.3   129  TYR129     -0.2866
     57  N         10.0990   28.6480   43.5360 N.3   198  GLU198     -0.1231
     58  CA        10.4710   27.2700   43.6990 C.3   198  GLU198      0.1699
     59  C          9.6880   26.6410   44.8500 C.2   198  GLU198      0.2593
     60  O          9.3850   27.3100   45.8360 O.2   198  GLU198     -0.2718
     61  CB        11.9730   27.1490   43.9040 C.3   198  GLU198      0.0402
     62  CG        12.4870   25.7380   43.7080 C.3   198  GLU198      0.1161
     63  CD        12.4960   24.9390   44.9950 C.2   198  GLU198      0.3649
     64  OE1       12.3550   25.5610   46.0680 O.co2 198  GLU198     -0.2457
     65  OE2       12.6450   23.6990   44.9360 O.co2 198  GLU198     -0.2457
     66  N          9.3430   25.3610   44.6840 N.am  199  SER199     -0.1938
     67  CA         8.6220   24.5850   45.6870 C.3   199  SER199      0.2055
     68  C          7.2880   25.2300   46.0500 C.2   199  SER199      0.2642
     69  O          6.4300   25.4160   45.1900 O.2   199  SER199     -0.2714
     70  CB         9.4880   24.3860   46.9330 C.3   199  SER199      0.2130
     71  OG         9.0220   23.2990   47.7090 O.3   199  SER199     -0.2179
     72  N          7.1170   25.5520   47.3290 N.am  200  ALA200     -0.1977
     73  CA         5.9550   26.3030   47.7860 C.3   200  ALA200      0.1597
     74  C          5.8400   27.6100   47.0180 C.2   200  ALA200      0.2287
     75  O          4.7390   28.0660   46.7150 O.2   200  ALA200     -0.2864
     76  CB         6.0610   26.5820   49.2610 C.3   200  ALA200      0.0319
     77  N         -0.2190   18.5220   48.3070 N.3   232  TRP232     -0.1241
     78  CA         0.2350   19.3300   49.4460 C.3   232  TRP232      0.1605
     79  C         -0.0040   20.8480   49.4580 C.2   232  TRP232      0.2264
     80  O          0.2620   21.4950   50.4760 O.2   232  TRP232     -0.2867
     81  CB         1.7300   19.1030   49.6450 C.3   232  TRP232      0.0550
     82  CG         2.5480   19.5210   48.4480 C.ar  232  TRP232      0.0003
     83  CD1        3.0430   18.7070   47.4630 C.ar  232  TRP232      0.0946
     84  CD2        2.9580   20.8490   48.1070 C.ar  232  TRP232      0.0152
     85  NE1        3.7340   19.4480   46.5400 N.ar  232  TRP232     -0.2442
     86  CE2        3.6980   20.7650   46.9150 C.ar  232  TRP232      0.0810
     87  CE3        2.7780   22.0980   48.7000 C.ar  232  TRP232      0.0012
     88  CZ2        4.2510   21.8830   46.3040 C.ar  232  TRP232      0.0191
     89  CZ3        3.3160   23.2020   48.0870 C.ar  232  TRP232      0.0001
     90  CH2        4.0540   23.0900   46.9050 C.ar  232  TRP232      0.0015
     91  N          5.8940   15.0920   52.8970 N.3   291  PHE291     -0.1241
     92  CA         5.3940   16.3690   52.3920 C.3   291  PHE291      0.1605
     93  C          4.2180   16.6360   53.3310 C.2   291  PHE291      0.2264
     94  O          4.2780   16.1830   54.4700 O.2   291  PHE291     -0.2867
     95  CB         5.0010   16.2990   50.9160 C.3   291  PHE291      0.0534
     96  CG         5.9840   17.0120   49.9600 C.ar  291  PHE291     -0.0203
     97  CD1        5.8670   18.3800   49.6950 C.ar  291  PHE291     -0.0042
     98  CD2        6.9960   16.3080   49.3110 C.ar  291  PHE291     -0.0042
     99  CE1        6.7340   19.0250   48.8260 C.ar  291  PHE291     -0.0003
    100  CE2        7.8440   16.9450   48.4320 C.ar  291  PHE291     -0.0003
    101  CZ         7.7130   18.3020   48.1950 C.ar  291  PHE291     -0.0000
    102  N          2.4390   19.8060   54.9330 N.3   293  PHE293     -0.1241
    103  CA         2.6490   20.7780   56.0040 C.3   293  PHE293      0.1605
    104  C          1.3200   21.3780   56.5170 C.2   293  PHE293      0.2264
    105  O          0.3470   21.4720   55.7610 O.2   293  PHE293     -0.2867
    106  CB         3.5430   21.8790   55.4810 C.3   293  PHE293      0.0534
    107  CG         4.2540   21.5200   54.2050 C.ar  293  PHE293     -0.0203
    108  CD1        5.4680   20.8560   54.2330 C.ar  293  PHE293     -0.0042
    109  CD2        3.7160   21.8560   52.9760 C.ar  293  PHE293     -0.0042
    110  CE1        6.1390   20.5410   53.0550 C.ar  293  PHE293     -0.0003
    111  CE2        4.3810   21.5390   51.7980 C.ar  293  PHE293     -0.0003
    112  CZ         5.5970   20.8850   51.8410 C.ar  293  PHE293     -0.0000
    113  N         15.4870   14.3210   49.4020 N.3   333  TYR333     -0.1227
    114  CA        15.6610   15.3040   50.4670 C.3   333  TYR333      0.1736
    115  C         14.6970   15.0500   51.6210 C.2   333  TYR333      0.2595
    116  O         15.0630   15.1630   52.7900 O.2   333  TYR333     -0.2718
    117  CB        15.4400   16.7210   49.9100 C.3   333  TYR333      0.0548
    118  CG        15.6140   17.8320   50.9300 C.ar  333  TYR333     -0.0200
    119  CD1       14.5570   18.2410   51.7370 C.ar  333  TYR333     -0.0009
    120  CD2       16.8380   18.4760   51.0810 C.ar  333  TYR333     -0.0009
    121  CE1       14.7160   19.2470   52.6680 C.ar  333  TYR333      0.0417
    122  CE2       17.0100   19.4890   52.0090 C.ar  333  TYR333      0.0417
    123  CZ        15.9460   19.8720   52.8000 C.ar  333  TYR333      0.1957
    124  OH        16.1130   20.8800   53.7280 O.3   333  TYR333     -0.2866
    125  N         13.4640   14.6870   51.2800 N.am  334  PHE334     -0.1976
    126  CA        12.3990   14.6020   52.2620 C.3   334  PHE334      0.1639
    127  C         12.4630   13.3510   53.0960 C.2   334  PHE334      0.2290
    128  O         12.0240   13.3570   54.2370 O.2   334  PHE334     -0.2864
    129  CB        11.0470   14.7150   51.5760 C.3   334  PHE334      0.0560
    130  CG        10.8230   16.0440   50.9570 C.ar  334  PHE334     -0.0200
    131  CD1       10.4040   17.1120   51.7300 C.ar  334  PHE334     -0.0042
    132  CD2       11.0770   16.2480   49.6150 C.ar  334  PHE334     -0.0042
    133  CE1       10.2160   18.3610   51.1680 C.ar  334  PHE334     -0.0003
    134  CE2       10.9030   17.4930   49.0470 C.ar  334  PHE334     -0.0003
    135  CZ        10.4700   18.5540   49.8250 C.ar  334  PHE334     -0.0000
    136  N         15.7500   18.1070   45.8780 N.3   443  HIS443     -0.1226
    137  CA        14.7940   19.1850   45.7300 C.3   443  HIS443      0.1752
    138  C         15.4610   20.5160   46.0700 C.2   443  HIS443      0.2596
    139  O         16.2110   20.6180   47.0410 O.2   443  HIS443     -0.2718
    140  CB        13.6250   18.9070   46.6760 C.3   443  HIS443      0.0759
    141  CG        12.5030   19.8950   46.5820 C.ar  443  HIS443      0.0818
    142  ND1       11.7170   20.0280   45.4570 N.ar  443  HIS443     -0.2268
    143  CD2       12.0150   20.7760   47.4880 C.ar  443  HIS443      0.1154
    144  CE1       10.8060   20.9610   45.6670 C.ar  443  HIS443      0.1986
    145  NE2       10.9650   21.4300   46.8920 N.ar  443  HIS443     -0.2212
    146  N         15.2300   21.5210   45.2350 N.am  444  GLY444     -0.1957
    147  CA        15.6790   22.8660   45.5410 C.3   444  GLY444      0.1869
    148  C         17.1140   23.2330   45.2060 C.2   444  GLY444      0.2309
    149  O         17.5030   24.3820   45.4200 O.2   444  GLY444     -0.2863
    150  N         18.4030   25.9820   42.3040 N.3   447  ILE447     -0.1245
    151  CA        18.3510   27.4170   42.5860 C.3   447  ILE447      0.1561
    152  C         19.7440   28.0540   42.5940 C.2   447  ILE447      0.2260
    153  O         19.9150   29.1700   42.0990 O.2   447  ILE447     -0.2867
    154  CB        17.6230   27.7190   43.9170 C.3   447  ILE447      0.0252
    155  CG1       16.2170   27.1280   43.9010 C.3   447  ILE447      0.0019
    156  CG2       17.5600   29.2240   44.1870 C.3   447  ILE447      0.0019
    157  CD1       15.5060   27.2300   45.2350 C.3   447  ILE447      0.0001
@<TRIPOS>BOND
     1   153   152    2
     2   150   151    1
     3   151   152    1
     4   151   154    1
     5    57    58    1
     6    58    61    1
     7    58    59    1
     8    62    61    1
     9    62    63    1
    10   155   154    1
    11   155   157    1
    12   154   156    1
    13    66    59   am
    14    66    67    1
    15    59    60    2
    16    65    63   ar
    17    63    64   ar
    18    69    68    2
    19   148   149    2
    20   148   147    1
    21   146   147    1
    22   146   138   am
    23   142   144   ar
    24   142   141   ar
    25   144   145   ar
    26    67    68    1
    27    67    70    1
    28   137   136    1
    29   137   138    1
    30   137   140    1
    31    48    47    2
    32    68    72   am
    33   138   139    2
    34    47    46    1
    35    88    90   ar
    36    88    86   ar
    37    46    45    1
    38    46    49    1
    39    85    86   ar
    40    85    83   ar
    41   141   140    1
    42   141   143   ar
    43    75    74    2
    44    51    53   ar
    45    51    50   ar
    46   145   143   ar
    47    90    89   ar
    48    86    84   ar
    49    70    71    1
    50    74    73    1
    51    49    50    1
    52    53    55   ar
    53    72    73    1
    54    83    82   ar
    55    50    52   ar
    56    73    76    1
    57    89    87   ar
    58    84    82   ar
    59    84    87   ar
    60   101   100   ar
    61   101    99   ar
    62    77    78    1
    63    15    16    1
    64    55    56    1
    65    55    54   ar
    66   100    98   ar
    67    82    81    1
    68    14    13   ar
    69    14    12   ar
    70    52    54   ar
    71    16    17    1
    72    99    97   ar
    73   134   132   ar
    74   134   135   ar
    75    13    11   ar
    76    98    96   ar
    77    12    10   ar
    78   113   114    1
    79    78    79    1
    80    78    81    1
    81    79    80    2
    82   132   130   ar
    83    97    96   ar
    84   135   133   ar
    85   117   114    1
    86   117   118    1
    87    96    95    1
    88    17    19   am
    89    17    18    2
    90   114   115    1
    91    11     8   ar
    92    19    20    1
    93    10     8   ar
    94    10     9   ar
    95    95    92    1
    96   118   120   ar
    97   118   119   ar
    98   130   129    1
    99   130   131   ar
   100   120   122   ar
   101   133   131   ar
   102   125   115   am
   103   125   126    1
   104     8     6   ar
   105   129   126    1
   106   115   116    2
   107     9     7   ar
   108   119   121   ar
   109   111   112   ar
   110   111   109   ar
   111   112   110   ar
   112    23    24    1
   113    23    21   am
   114   122   123   ar
   115    20    21    1
   116   126   127    1
   117    92    91    1
   118    92    93    1
   119    24    25    1
   120   121   123   ar
   121     6     7   ar
   122     6     5    1
   123   123   124    1
   124    21    22    2
   125   109   107   ar
   126   110   108   ar
   127   127   128    2
   128    25    26    2
   129    93    94    2
   130     5     2    1
   131    42    41    2
   132   107   108   ar
   133   107   106    1
   134     2     1    1
   135     2     3    1
   136   102   103    1
   137    41    40    1
   138     4     3    2
   139   106   103    1
   140    36    34   ar
   141    36    37   ar
   142    27    28    1
   143    38    37    1
   144   105   104    2
   145    44    43    1
   146   103   104    1
   147    34    32   ar
   148    37    35   ar
   149    39    40    1
   150    39    29   am
   151    40    43    1
   152    28    29    1
   153    28    31    1
   154    32    31    1
   155    32    33   ar
   156    29    30    2
   157    35    33   ar
