@<TRIPOS>MOLECULE
tmp/4bc1D00.pdb
 180 183 0 0 0
SMALL
GASTEIGER

@<TRIPOS>ATOM
      1  N         56.0630   -4.7570   80.7090 N.3    83  TRP83      -0.1241
      2  CA        54.8310   -4.1470   81.1990 C.3    83  TRP83       0.1605
      3  C         54.2290   -4.9550   82.3530 C.2    83  TRP83       0.2264
      4  O         53.3510   -4.4690   83.0750 O.2    83  TRP83      -0.2867
      5  CB        53.8310   -3.9750   80.0430 C.3    83  TRP83       0.0550
      6  CG        54.3990   -3.1800   78.8900 C.ar   83  TRP83       0.0003
      7  CD1       54.8510   -3.6610   77.6840 C.ar   83  TRP83       0.0946
      8  CD2       54.5990   -1.7700   78.8560 C.ar   83  TRP83       0.0152
      9  NE1       55.3170   -2.6310   76.9070 N.ar   83  TRP83      -0.2442
     10  CE2       55.1760   -1.4580   77.6030 C.ar   83  TRP83       0.0810
     11  CE3       54.3390   -0.7340   79.7610 C.ar   83  TRP83       0.0012
     12  CZ2       55.4900   -0.1570   77.2330 C.ar   83  TRP83       0.0191
     13  CZ3       54.6520    0.5520   79.3970 C.ar   83  TRP83       0.0001
     14  CH2       55.2250    0.8340   78.1390 C.ar   83  TRP83       0.0015
     15  N         49.2680    3.6620   82.6710 N.3   117  GLY117     -0.1210
     16  CA        48.2070    3.0180   81.9270 C.3   117  GLY117      0.1956
     17  C         48.2850    1.5220   82.1400 C.2   117  GLY117      0.2612
     18  O         49.1000    1.0420   82.9350 O.2   117  GLY117     -0.2717
     19  N         47.4460    0.7910   81.4130 N.am  118  GLY118     -0.1942
     20  CA        47.3300   -0.6420   81.5780 C.3   118  GLY118      0.2014
     21  C         45.8650   -1.0110   81.4880 C.2   118  GLY118      0.2639
     22  O         45.4290   -2.0050   82.0560 O.2   118  GLY118     -0.2714
     23  N         45.1090   -0.1700   80.7860 N.am  119  GLY119     -0.1954
     24  CA        43.7140   -0.4270   80.4570 C.3   119  GLY119      0.1869
     25  C         42.8420   -0.6070   81.6650 C.2   119  GLY119      0.2309
     26  O         41.8470   -1.3330   81.6160 O.2   119  GLY119     -0.2863
     27  N         43.2940   -2.4340   83.9010 N.3   121  TYR121     -0.1241
     28  CA        43.2890   -3.8480   84.2730 C.3   121  TYR121      0.1605
     29  C         44.6560   -4.2850   84.7640 C.2   121  TYR121      0.2264
     30  O         44.8100   -5.4110   85.2220 O.2   121  TYR121     -0.2867
     31  CB        42.8180   -4.7510   83.1190 C.3   121  TYR121      0.0534
     32  CG        43.8410   -5.0630   82.0390 C.ar  121  TYR121     -0.0201
     33  CD1       44.8450   -6.0120   82.2370 C.ar  121  TYR121     -0.0009
     34  CD2       43.7780   -4.4390   80.8030 C.ar  121  TYR121     -0.0009
     35  CE1       45.7640   -6.3110   81.2410 C.ar  121  TYR121      0.0417
     36  CE2       44.7010   -4.7230   79.8020 C.ar  121  TYR121      0.0417
     37  CZ        45.6870   -5.6610   80.0250 C.ar  121  TYR121      0.1957
     38  OH        46.5910   -5.9430   79.0240 O.3   121  TYR121     -0.2866
     39  N         59.1450    3.7760   84.2980 N.3   130  TYR130     -0.1241
     40  CA        58.6310    4.9290   85.0190 C.3   130  TYR130      0.1605
     41  C         59.6390    5.4100   86.0600 C.2   130  TYR130      0.2264
     42  O         59.3080    6.1840   86.9510 O.2   130  TYR130     -0.2867
     43  CB        57.2640    4.6210   85.6640 C.3   130  TYR130      0.0534
     44  CG        56.2170    3.9450   84.7620 C.ar  130  TYR130     -0.0201
     45  CD1       56.0490    4.3000   83.4240 C.ar  130  TYR130     -0.0009
     46  CD2       55.4000    2.9410   85.2710 C.ar  130  TYR130     -0.0009
     47  CE1       55.0930    3.6650   82.6240 C.ar  130  TYR130      0.0417
     48  CE2       54.4420    2.3090   84.4900 C.ar  130  TYR130      0.0417
     49  CZ        54.2810    2.6660   83.1660 C.ar  130  TYR130      0.1957
     50  OH        53.3070    2.0090   82.4150 O.3   130  TYR130     -0.2866
     51  N         49.8320    7.8970   80.5320 N.3   199  GLU199     -0.1231
     52  CA        49.7500    7.3290   79.1890 C.3   199  GLU199      0.1699
     53  C         48.6540    6.2400   79.0800 C.2   199  GLU199      0.2593
     54  O         48.3350    5.5950   80.0780 O.2   199  GLU199     -0.2718
     55  CB        51.1360    6.8320   78.7600 C.3   199  GLU199      0.0402
     56  CG        51.2310    6.3750   77.3270 C.3   199  GLU199      0.1161
     57  CD        50.9590    4.8930   77.2100 C.2   199  GLU199      0.3649
     58  OE1       50.7580    4.2430   78.2600 O.co2 199  GLU199     -0.2457
     59  OE2       50.9460    4.3750   76.0790 O.co2 199  GLU199     -0.2457
     60  N         48.0700    6.0560   77.8900 N.am  200  SER200     -0.1938
     61  CA        47.0520    5.0250   77.6800 C.3   200  SER200      0.2055
     62  C         45.9310    5.2790   78.7300 C.2   200  SER200      0.2642
     63  O         45.4830    6.4200   78.8830 O.2   200  SER200     -0.2714
     64  CB        47.7260    3.6160   77.7810 C.3   200  SER200      0.2130
     65  OG        47.0120    2.5190   77.0970 O.3   200  SER200     -0.2179
     66  N         45.5150    4.2640   79.4820 N.am  201  ALA201     -0.1977
     67  CA        44.4640    4.4310   80.4890 C.3   201  ALA201      0.1597
     68  C         44.8550    5.3950   81.5920 C.2   201  ALA201      0.2287
     69  O         43.9880    5.9020   82.3050 O.2   201  ALA201     -0.2864
     70  CB        44.0980    3.1070   81.0960 C.3   201  ALA201      0.0319
     71  N         36.7970    3.0330   74.7620 N.3   233  TRP233     -0.1241
     72  CA        37.2530    2.0400   75.7250 C.3   233  TRP233      0.1605
     73  C         37.3780    2.5420   77.1720 C.2   233  TRP233      0.2264
     74  O         37.4350    1.7400   78.0990 O.2   233  TRP233     -0.2867
     75  CB        38.5910    1.4620   75.2650 C.3   233  TRP233      0.0550
     76  CG        39.6040    2.5240   75.0960 C.ar  233  TRP233      0.0003
     77  CD1       39.9400    3.1670   73.9420 C.ar  233  TRP233      0.0946
     78  CD2       40.3910    3.1080   76.1260 C.ar  233  TRP233      0.0152
     79  NE1       40.8970    4.1110   74.1960 N.ar  233  TRP233     -0.2442
     80  CE2       41.1860    4.0950   75.5330 C.ar  233  TRP233      0.0810
     81  CE3       40.4990    2.8910   77.4960 C.ar  233  TRP233      0.0012
     82  CZ2       42.0720    4.8580   76.2590 C.ar  233  TRP233      0.0191
     83  CZ3       41.3650    3.6590   78.2150 C.ar  233  TRP233      0.0001
     84  CH2       42.1490    4.6260   77.5990 C.ar  233  TRP233      0.0015
     85  N         38.2680  -11.6910   82.3190 N.3   283  TRP283     -0.1241
     86  CA        38.2100  -11.4660   80.8820 C.3   283  TRP283      0.1605
     87  C         36.9890  -12.0720   80.2050 C.2   283  TRP283      0.2264
     88  O         36.8020  -11.9050   79.0020 O.2   283  TRP283     -0.2867
     89  CB        39.4900  -11.9530   80.2140 C.3   283  TRP283      0.0550
     90  CG        40.5990  -10.9970   80.3940 C.ar  283  TRP283      0.0003
     91  CD1       41.6610  -11.1170   81.2430 C.ar  283  TRP283      0.0946
     92  CD2       40.7520   -9.7420   79.7340 C.ar  283  TRP283      0.0152
     93  NE1       42.4750  -10.0170   81.1410 N.ar  283  TRP283     -0.2442
     94  CE2       41.9370   -9.1560   80.2190 C.ar  283  TRP283      0.0810
     95  CE3       40.0020   -9.0540   78.7750 C.ar  283  TRP283      0.0012
     96  CZ2       42.3930   -7.9120   79.7750 C.ar  283  TRP283      0.0191
     97  CZ3       40.4580   -7.8180   78.3350 C.ar  283  TRP283      0.0001
     98  CH2       41.6460   -7.2650   78.8320 C.ar  283  TRP283      0.0015
     99  N         41.5150   -3.9180   72.4260 N.3   292  PHE292     -0.1227
    100  CA        41.4860   -2.5780   72.9870 C.3   292  PHE292      0.1736
    101  C         40.1390   -2.3500   73.6850 C.2   292  PHE292      0.2595
    102  O         39.4880   -1.3320   73.4850 O.2   292  PHE292     -0.2718
    103  CB        41.7520   -1.5280   71.9020 C.3   292  PHE292      0.0547
    104  CG        42.4590   -0.2960   72.3930 C.ar  292  PHE292     -0.0202
    105  CD1       42.2330    0.2020   73.6600 C.ar  292  PHE292     -0.0042
    106  CD2       43.3380    0.3680   71.5760 C.ar  292  PHE292     -0.0042
    107  CE1       42.8780    1.3380   74.0940 C.ar  292  PHE292     -0.0003
    108  CE2       43.9750    1.4970   72.0110 C.ar  292  PHE292     -0.0003
    109  CZ        43.7470    1.9810   73.2660 C.ar  292  PHE292     -0.0000
    110  N         39.7240   -3.3390   74.4720 N.am  293  ARG293     -0.1966
    111  CA        38.6310   -3.2010   75.4280 C.3   293  ARG293      0.1729
    112  C         39.0210   -3.9340   76.7080 C.2   293  ARG293      0.2616
    113  O         39.6680   -4.9800   76.6590 O.2   293  ARG293     -0.2715
    114  CB        37.3290   -3.8090   74.8930 C.3   293  ARG293      0.0348
    115  CG        36.7890   -3.1630   73.6510 C.3   293  ARG293      0.0492
    116  CD        36.5060   -1.7040   73.8780 C.3   293  ARG293      0.2205
    117  NE        35.6800   -1.1370   72.8140 N.pl3 293  ARG293     -0.0865
    118  CZ        36.1570   -0.4840   71.7590 C.cat 293  ARG293      0.5346
    119  NH1       37.4610   -0.3100   71.6090 N.pl3 293  ARG293      0.1354
    120  NH2       35.3210   -0.0030   70.8490 N.pl3 293  ARG293      0.1354
    121  N         38.7240   -3.3530   77.8630 N.am  294  PHE294     -0.1974
    122  CA        38.7540   -4.1450   79.0860 C.3   294  PHE294      0.1639
    123  C         37.4060   -4.0930   79.7800 C.2   294  PHE294      0.2290
    124  O         36.5950   -3.1960   79.5410 O.2   294  PHE294     -0.2864
    125  CB        39.8690   -3.7520   80.0530 C.3   294  PHE294      0.0560
    126  CG        39.8190   -4.5130   81.3590 C.ar  294  PHE294     -0.0200
    127  CD1       39.9480   -5.8940   81.3770 C.ar  294  PHE294     -0.0042
    128  CD2       39.6010   -3.8540   82.5600 C.ar  294  PHE294     -0.0042
    129  CE1       39.8810   -6.5930   82.5630 C.ar  294  PHE294     -0.0003
    130  CE2       39.5380   -4.5580   83.7530 C.ar  294  PHE294     -0.0003
    131  CZ        39.6750   -5.9250   83.7510 C.ar  294  PHE294     -0.0000
    132  N         50.2720   -2.4010   68.3340 N.3   334  TYR334     -0.1227
    133  CA        50.4520   -3.2470   69.5090 C.3   334  TYR334      0.1736
    134  C         49.2580   -4.1980   69.7210 C.2   334  TYR334      0.2595
    135  O         49.4150   -5.3950   69.9470 O.2   334  TYR334     -0.2718
    136  CB        50.6900   -2.3720   70.7470 C.3   334  TYR334      0.0548
    137  CG        51.0580   -3.1290   72.0070 C.ar  334  TYR334     -0.0200
    138  CD1       52.3890   -3.4220   72.2980 C.ar  334  TYR334     -0.0009
    139  CD2       50.0780   -3.5430   72.9120 C.ar  334  TYR334     -0.0009
    140  CE1       52.7410   -4.1140   73.4480 C.ar  334  TYR334      0.0417
    141  CE2       50.4140   -4.2320   74.0670 C.ar  334  TYR334      0.0417
    142  CZ        51.7510   -4.5170   74.3350 C.ar  334  TYR334      0.1957
    143  OH        52.1100   -5.2060   75.4840 O.3   334  TYR334     -0.2866
    144  N         48.0550   -3.6690   69.6020 N.am  335  PHE335     -0.1976
    145  CA        46.8750   -4.4270   69.9760 C.3   335  PHE335      0.1639
    146  C         46.4950   -5.5300   68.9920 C.2   335  PHE335      0.2290
    147  O         45.6230   -6.3540   69.2810 O.2   335  PHE335     -0.2864
    148  CB        45.7120   -3.4670   70.1740 C.3   335  PHE335      0.0560
    149  CG        46.0070   -2.3780   71.1560 C.ar  335  PHE335     -0.0200
    150  CD1       46.6090   -1.2020   70.7450 C.ar  335  PHE335     -0.0042
    151  CD2       45.6870   -2.5350   72.4950 C.ar  335  PHE335     -0.0042
    152  CE1       46.8740   -0.1990   71.6440 C.ar  335  PHE335     -0.0003
    153  CE2       45.9530   -1.5360   73.4010 C.ar  335  PHE335     -0.0003
    154  CZ        46.5490   -0.3660   72.9770 C.ar  335  PHE335     -0.0000
    155  N         47.0980   -9.3170   69.8980 N.3   338  TYR338     -0.1241
    156  CA        46.3200   -9.8180   71.0200 C.3   338  TYR338      0.1605
    157  C         44.9480  -10.3770   70.6280 C.2   338  TYR338      0.2264
    158  O         44.0970  -10.6070   71.4900 O.2   338  TYR338     -0.2867
    159  CB        46.1480   -8.7250   72.0800 C.3   338  TYR338      0.0534
    160  CG        47.3340   -8.5570   72.9930 C.ar  338  TYR338     -0.0201
    161  CD1       48.4060   -7.7590   72.6230 C.ar  338  TYR338     -0.0009
    162  CD2       47.3840   -9.1910   74.2260 C.ar  338  TYR338     -0.0009
    163  CE1       49.4990   -7.5970   73.4540 C.ar  338  TYR338      0.0417
    164  CE2       48.4740   -9.0410   75.0640 C.ar  338  TYR338      0.0417
    165  CZ        49.5310   -8.2390   74.6720 C.ar  338  TYR338      0.1957
    166  OH        50.6270   -8.0670   75.4940 O.3   338  TYR338     -0.2866
    167  N         52.2250    1.7310   70.4830 N.3   444  HIS444     -0.1226
    168  CA        51.5780    2.3350   71.6440 C.3   444  HIS444      0.1752
    169  C         52.4240    2.1800   72.9100 C.2   444  HIS444      0.2596
    170  O         52.8650    1.0880   73.2570 O.2   444  HIS444     -0.2718
    171  CB        50.1930    1.6960   71.8340 C.3   444  HIS444      0.0759
    172  CG        49.3940    2.2690   72.9600 C.ar  444  HIS444      0.0818
    173  ND1       48.8990    3.5550   72.9500 N.ar  444  HIS444     -0.2268
    174  CD2       48.9620    1.7120   74.1170 C.ar  444  HIS444      0.1154
    175  CE1       48.2120    3.7720   74.0610 C.ar  444  HIS444      0.1986
    176  NE2       48.2300    2.6670   74.7850 N.ar  444  HIS444     -0.2212
    177  N         52.6650    3.2920   73.5850 N.am  445  GLY445     -0.1957
    178  CA        53.3880    3.2600   74.8330 C.3   445  GLY445      0.1869
    179  C         54.8970    3.2680   74.7390 C.2   445  GLY445      0.2309
    180  O         55.5610    3.1080   75.7570 O.2   445  GLY445     -0.2863
@<TRIPOS>BOND
     1   132   133    1
     2   146   147    2
     3   146   145    1
     4   133   134    1
     5   133   136    1
     6   144   134   am
     7   144   145    1
     8   134   135    2
     9   155   156    1
    10   145   148    1
    11   148   149    1
    12   167   168    1
    13   157   156    1
    14   157   158    2
    15   150   149   ar
    16   150   152   ar
    17   136   137    1
    18   120   118    1
    19   156   159    1
    20   149   151   ar
    21   106   108   ar
    22   106   104   ar
    23   119   118    1
    24   168   171    1
    25   168   169    1
    26   152   154   ar
    27   118   117    2
    28   171   172    1
    29   103   104    1
    30   103   100    1
    31   137   138   ar
    32   137   139   ar
    33   108   109   ar
    34   159   160    1
    35   138   140   ar
    36   104   105   ar
    37    99   100    1
    38   151   153   ar
    39   161   160   ar
    40   161   163   ar
    41   117   116    1
    42   169   170    2
    43   169   177   am
    44   139   141   ar
    45   173   172   ar
    46   173   175   ar
    47   172   174   ar
    48   154   153   ar
    49   100   101    1
    50   160   162   ar
    51   109   107   ar
    52   140   142   ar
    53   163   165   ar
    54   102   101    2
    55   177   178    1
    56   115   116    1
    57   115   114    1
    58   105   107   ar
    59   101   110   am
    60    77    79   ar
    61    77    76   ar
    62   175   176   ar
    63   141   142   ar
    64   174   176   ar
    65    79    80   ar
    66   162   164   ar
    67   142   143    1
    68   110   111    1
    69   165   164   ar
    70   165   166    1
    71   179   178    1
    72   179   180    2
    73    71    72    1
    74   114   111    1
    75    76    75    1
    76    76    78   ar
    77    75    72    1
    78   111   112    1
    79    80    78   ar
    80    80    82   ar
    81    72    73    1
    82    59    57   ar
    83    78    81   ar
    84    82    84   ar
    85   113   112    2
    86   112   121   am
    87     9    10   ar
    88     9     7   ar
    89    65    64    1
    90    73    74    2
    91    57    56    1
    92    57    58   ar
    93    12    10   ar
    94    12    14   ar
    95    56    55    1
    96    81    83   ar
    97    84    83   ar
    98    10     8   ar
    99    61    64    1
   100    61    60    1
   101    61    62    1
   102     7     6   ar
   103   121   122    1
   104    60    53   am
   105    14    13   ar
   106    97    95   ar
   107    97    98   ar
   108    62    63    2
   109    62    66   am
   110    55    52    1
   111    95    92   ar
   112    98    96   ar
   113     8     6   ar
   114     8    11   ar
   115     6     5    1
   116    88    87    2
   117    38    37    1
   118    53    52    1
   119    53    54    2
   120   122   123    1
   121   122   125    1
   122    52    51    1
   123    13    11   ar
   124    66    67    1
   125   124   123    2
   126    92    94   ar
   127    92    90   ar
   128    96    94   ar
   129    36    37   ar
   130    36    34   ar
   131    37    35   ar
   132     5     2    1
   133   125   126    1
   134    87    86    1
   135    89    90    1
   136    89    86    1
   137    94    93   ar
   138    90    91   ar
   139    24    23    1
   140    24    25    1
   141    67    70    1
   142    67    68    1
   143     1     2    1
   144    23    21   am
   145    34    32   ar
   146    86    85    1
   147    93    91   ar
   148     2     3    1
   149    35    33   ar
   150   126   127   ar
   151   126   128   ar
   152   127   129   ar
   153    19    20    1
   154    19    17   am
   155    21    20    1
   156    21    22    2
   157    68    69    2
   158    26    25    2
   159    16    17    1
   160    16    15    1
   161    32    33   ar
   162    32    31    1
   163    17    18    2
   164     3     4    2
   165    50    49    1
   166   128   130   ar
   167   129   131   ar
   168    47    49   ar
   169    47    45   ar
   170    31    28    1
   171    49    48   ar
   172    45    44   ar
   173   131   130   ar
   174    27    28    1
   175    28    29    1
   176    39    40    1
   177    48    46   ar
   178    44    46   ar
   179    44    43    1
   180    29    30    2
   181    40    43    1
   182    40    41    1
   183    41    42    2
