@<TRIPOS>MOLECULE
tmp/4bc2C00.pdb
 98 94 0 0 0
SMALL
GASTEIGER

@<TRIPOS>ATOM
      1  N          2.2310   49.8900    6.7050 N.3   289  LEU289     -0.1231
      2  CA         1.8840   49.5000    8.0560 C.3   289  LEU289      0.1693
      3  C          2.9540   48.6100    8.6650 C.2   289  LEU289      0.2593
      4  O          3.2500   47.5560    8.1140 O.2   289  LEU289     -0.2718
      5  CB         0.5430   48.7610    8.0490 C.3   289  LEU289      0.0284
      6  CG        -0.6310   49.6020    7.5180 C.3   289  LEU289      0.0019
      7  CD1       -1.7400   48.7330    6.9290 C.3   289  LEU289      0.0001
      8  CD2       -1.1550   50.5130    8.5640 C.3   289  LEU289      0.0001
      9  N          3.5240   49.0450    9.7800 N.am  290  GLY290     -0.1942
     10  CA         4.5340   48.2820   10.4960 C.3   290  GLY290      0.2014
     11  C          4.7530   48.7910   11.9070 C.2   290  GLY290      0.2639
     12  O          3.8880   49.4760   12.4580 O.2   290  GLY290     -0.2714
     13  N          5.9560   48.5320   12.4670 N.am  291  THR291     -0.1950
     14  CA         6.3590   48.9750   13.8100 C.3   291  THR291      0.1897
     15  C          6.1450   50.4620   13.8750 C.2   291  THR291      0.2313
     16  O          5.5590   50.9720   14.8270 O.2   291  THR291     -0.2863
     17  CB         7.7900   48.4990   14.1340 C.3   291  THR291      0.1794
     18  OG1        7.7560   47.0740   14.2640 O.3   291  THR291     -0.2208
     19  CG2        8.3120   49.0850   15.4070 C.3   291  THR291      0.0378
     20  N          2.2450   48.9570   14.7460 N.3   328  SER328     -0.1217
     21  CA         1.9180   47.5600   14.9630 C.3   328  SER328      0.1889
     22  C          1.9200   47.1560   16.4450 C.2   328  SER328      0.2288
     23  O          1.0710   46.3570   16.8150 O.2   328  SER328     -0.2866
     24  CB         2.8570   46.6680   14.1600 C.3   328  SER328      0.2089
     25  OG         4.1710   46.7580   14.6700 O.3   328  SER328     -0.2183
     26  N         -1.4240   48.4460   17.8420 N.3   330  ARG330     -0.1231
     27  CA        -2.5240   47.5850   17.3530 C.3   330  ARG330      0.1694
     28  C         -2.5050   46.2120   18.0760 C.2   330  ARG330      0.2591
     29  O         -3.5460   45.7090   18.5040 O.2   330  ARG330     -0.2718
     30  CB        -2.4510   47.4240   15.8330 C.3   330  ARG330      0.0321
     31  CG        -2.7960   48.7130   15.0820 C.3   330  ARG330      0.0489
     32  CD        -2.8910   48.4890   13.5850 C.3   330  ARG330      0.2205
     33  NE        -1.5690   48.3730   12.9690 N.pl3 330  ARG330     -0.0865
     34  CZ        -0.7970   49.3870   12.5710 C.cat 330  ARG330      0.5346
     35  NH1       -1.2010   50.6450   12.7260 N.pl3 330  ARG330      0.1354
     36  NH2        0.3830   49.1490   12.0100 N.pl3 330  ARG330      0.1354
     37  N         -1.3110   45.6660   18.2760 N.am  331  GLU331     -0.1979
     38  CA        -1.1000   44.3990   18.9730 C.3   331  GLU331      0.1602
     39  C         -1.4440   44.5070   20.4950 C.2   331  GLU331      0.2287
     40  O         -1.9330   43.5350   21.0550 O.2   331  GLU331     -0.2864
     41  CB         0.3620   43.9560   18.7640 C.3   331  GLU331      0.0415
     42  CG         0.6300   42.4820   18.9780 C.3   331  GLU331      0.1163
     43  CD         2.0270   42.0670   18.5460 C.2   331  GLU331      0.3649
     44  OE1        2.4690   42.4850   17.4470 O.co2 331  GLU331     -0.2457
     45  OE2        2.6730   41.3080   19.3070 O.co2 331  GLU331     -0.2457
     46  N         -6.4170   38.1880   16.0510 N.3   342  TRP342     -0.1241
     47  CA        -6.6780   39.0980   14.9230 C.3   342  TRP342      0.1605
     48  C         -8.0370   38.7860   14.3160 C.2   342  TRP342      0.2264
     49  O         -8.6670   39.6670   13.7440 O.2   342  TRP342     -0.2867
     50  CB        -5.5930   39.0390   13.8360 C.3   342  TRP342      0.0550
     51  CG        -4.2750   39.5730   14.2530 C.ar  342  TRP342      0.0003
     52  CD1       -3.0830   38.9240   14.2070 C.ar  342  TRP342      0.0946
     53  CD2       -3.9900   40.9080   14.7010 C.ar  342  TRP342      0.0152
     54  NE1       -2.0680   39.7700   14.5730 N.ar  342  TRP342     -0.2442
     55  CE2       -2.5980   40.9920   14.8960 C.ar  342  TRP342      0.0810
     56  CE3       -4.7770   42.0470   14.9420 C.ar  342  TRP342      0.0012
     57  CZ2       -1.9740   42.1630   15.3120 C.ar  342  TRP342      0.0191
     58  CZ3       -4.1560   43.1980   15.3680 C.ar  342  TRP342      0.0001
     59  CH2       -2.7810   43.2370   15.6080 C.ar  342  TRP342      0.0015
     60  N          2.4390   45.9970    4.1440 N.3   423  GLY423     -0.1210
     61  CA         2.8020   45.5980    5.4820 C.3   423  GLY423      0.1956
     62  C          1.8660   44.5930    6.0930 C.2   423  GLY423      0.2612
     63  O          0.8420   44.2540    5.5130 O.2   423  GLY423     -0.2717
     64  N          2.2410   44.1240    7.2730 N.am  424  GLY424     -0.1942
     65  CA         1.5150   43.1390    8.0680 C.3   424  GLY424      0.2014
     66  C          0.0200   43.3450    8.2410 C.2   424  GLY424      0.2638
     67  O         -0.7830   42.4460    7.9790 O.2   424  GLY424     -0.2714
     68  N         -0.3610   44.5410    8.7070 N.am  425  ALA425     -0.1977
     69  CA        -1.7670   44.8850    8.9210 C.3   425  ALA425      0.1597
     70  C         -2.5680   44.9720    7.5970 C.2   425  ALA425      0.2287
     71  O         -3.7840   44.8130    7.6620 O.2   425  ALA425     -0.2864
     72  CB        -1.8830   46.1910    9.7150 C.3   425  ALA425      0.0319
     73  N         -2.7770   42.6450    5.4420 N.3   427  HIS427     -0.1226
     74  CA        -3.3370   41.3220    5.3270 C.3   427  HIS427      0.1752
     75  C         -4.7000   41.2090    5.9980 C.2   427  HIS427      0.2596
     76  O         -5.2700   40.1320    5.9600 O.2   427  HIS427     -0.2718
     77  CB        -2.3930   40.2750    5.9450 C.3   427  HIS427      0.0759
     78  CG        -1.0730   40.1740    5.2450 C.ar  427  HIS427      0.0818
     79  ND1       -0.0080   39.5030    5.8160 N.ar  427  HIS427     -0.2268
     80  CD2       -0.6890   40.6620    4.0400 C.ar  427  HIS427      0.1154
     81  CE1        0.9900   39.6160    4.9540 C.ar  427  HIS427      0.1986
     82  NE2        0.6300   40.3150    3.8770 N.ar  427  HIS427     -0.2212
     83  N         -5.2020   42.2630    6.6950 N.am  428  ASN428     -0.1974
     84  CA        -6.5000   42.2550    7.3570 C.3   428  ASN428      0.1688
     85  C         -7.4770   43.1230    6.5630 C.2   428  ASN428      0.2292
     86  O         -7.3820   44.3550    6.5670 O.2   428  ASN428     -0.2864
     87  CB        -6.3030   42.7690    8.7730 C.3   428  ASN428      0.1181
     88  CG        -7.4590   42.5990    9.7190 C.2   428  ASN428      0.2629
     89  OD1       -8.6050   42.8930    9.3980 O.2   428  ASN428     -0.2716
     90  ND2       -7.1750   42.1980   10.9390 N.am  428  ASN428     -0.0877
     91  N         -9.4290   45.8490    8.5010 N.3   431  ILE431     -0.1245
     92  CA        -8.6160   47.0600    8.7030 C.3   431  ILE431      0.1561
     93  C         -8.6040   47.8770    7.3840 C.2   431  ILE431      0.2260
     94  O         -8.8450   49.0760    7.4160 O.2   431  ILE431     -0.2867
     95  CB        -7.1760   46.7100    9.2070 C.3   431  ILE431      0.0252
     96  CG1       -7.2470   46.1100   10.6290 C.3   431  ILE431      0.0019
     97  CG2       -6.2380   47.9460    9.1740 C.3   431  ILE431      0.0019
     98  CD1       -5.9160   45.7400   11.2160 C.3   431  ILE431      0.0001
@<TRIPOS>BOND
     1    82    80   ar
     2    82    81   ar
     3    80    78   ar
     4    60    61    1
     5    81    79   ar
     6    78    79   ar
     7    78    77    1
     8    74    73    1
     9    74    77    1
    10    74    75    1
    11    61    62    1
    12    63    62    2
    13    76    75    2
    14    75    83   am
    15    62    64   am
    16    85    86    2
    17    85    84    1
    18    83    84    1
    19     1     2    1
    20     7     6    1
    21    64    65    1
    22    84    87    1
    23    93    94    2
    24    93    92    1
    25     6     5    1
    26     6     8    1
    27    70    71    2
    28    70    69    1
    29    67    66    2
    30     5     2    1
    31     2     3    1
    32    65    66    1
    33     4     3    2
    34    66    68   am
    35    91    92    1
    36     3     9   am
    37    92    95    1
    38    68    69    1
    39    87    88    1
    40    69    72    1
    41    97    95    1
    42    95    96    1
    43    89    88    2
    44    88    90   am
    45     9    10    1
    46    10    11    1
    47    96    98    1
    48    11    12    2
    49    11    13   am
    50    36    34    1
    51    13    14    1
    52    34    35    1
    53    34    33    2
    54    33    32    1
    55    32    31    1
    56    49    48    2
    57    14    15    1
    58    14    17    1
    59    50    51    1
    60    50    47    1
    61    15    16    2
    62    17    18    1
    63    17    19    1
    64    24    25    1
    65    24    21    1
    66    52    51   ar
    67    52    54   ar
    68    51    53   ar
    69    48    47    1
    70    54    55   ar
    71    53    55   ar
    72    53    56   ar
    73    20    21    1
    74    55    57   ar
    75    47    46    1
    76    56    58   ar
    77    21    22    1
    78    31    30    1
    79    57    59   ar
    80    58    59   ar
    81    30    27    1
    82    22    23    2
    83    27    26    1
    84    27    28    1
    85    44    43   ar
    86    28    37   am
    87    28    29    2
    88    37    38    1
    89    43    42    1
    90    43    45   ar
    91    41    38    1
    92    41    42    1
    93    38    39    1
    94    39    40    2
