@<TRIPOS>MOLECULE
tmp/4bc2B00.pdb
 90 85 0 0 0
SMALL
GASTEIGER

@<TRIPOS>ATOM
      1  N         42.4090   29.5770   14.7960 N.3   290  GLY290     -0.1225
      2  CA        41.4590   28.7240   15.5060 C.3   290  GLY290      0.1811
      3  C         41.9850   28.2950   16.8440 C.2   290  GLY290      0.2280
      4  O         42.8930   28.9380   17.3630 O.2   290  GLY290     -0.2866
      5  N         42.9930   30.6970   19.5440 N.3   328  SER328     -0.1217
      6  CA        41.7240   31.3340   19.8770 C.3   328  SER328      0.1889
      7  C         41.3980   31.3590   21.4150 C.2   328  SER328      0.2288
      8  O         40.7360   32.3060   21.8440 O.2   328  SER328     -0.2866
      9  CB        40.5750   30.6740   19.1100 C.3   328  SER328      0.2089
     10  OG        40.4510   29.3170   19.5000 O.3   328  SER328     -0.2183
     11  N         43.1340   34.4410   22.9100 N.3   330  ARG330     -0.1231
     12  CA        42.4700   35.6540   22.4480 C.3   330  ARG330      0.1694
     13  C         41.1600   35.8380   23.2030 C.2   330  ARG330      0.2591
     14  O         40.8480   36.9590   23.6000 O.2   330  ARG330     -0.2718
     15  CB        42.2310   35.6170   20.9400 C.3   330  ARG330      0.0321
     16  CG        43.4990   35.6860   20.1130 C.3   330  ARG330      0.0489
     17  CD        43.2040   35.8360   18.6080 C.3   330  ARG330      0.2205
     18  NE        42.7960   34.5860   17.9490 N.pl3 330  ARG330     -0.0865
     19  CZ        43.6160   33.6530   17.4840 C.cat 330  ARG330      0.5346
     20  NH1       44.9190   33.7690   17.6490 N.pl3 330  ARG330      0.1354
     21  NH2       43.1280   32.5560   16.9060 N.pl3 330  ARG330      0.1354
     22  N         40.3990   34.7430   23.4090 N.am  331  GLU331     -0.1979
     23  CA        39.1470   34.8000   24.1730 C.3   331  GLU331      0.1602
     24  C         39.4070   35.1300   25.6720 C.2   331  GLU331      0.2287
     25  O         38.6750   35.9320   26.2570 O.2   331  GLU331     -0.2864
     26  CB        38.3420   33.5100   24.0330 C.3   331  GLU331      0.0415
     27  CG        36.8960   33.6460   24.5270 C.3   331  GLU331      0.1163
     28  CD        36.1930   32.3810   25.0010 C.2   331  GLU331      0.3649
     29  OE1       36.3980   31.3220   24.3630 O.co2 331  GLU331     -0.2457
     30  OE2       35.3940   32.4580   25.9700 O.co2 331  GLU331     -0.2457
     31  N         40.3700   38.7640   25.9430 N.3   334  ARG334     -0.1245
     32  CA        39.1420   39.5360   25.7600 C.3   334  ARG334      0.1563
     33  C         38.3020   39.5850   27.0570 C.2   334  ARG334      0.2260
     34  O         37.8120   40.6500   27.4290 O.2   334  ARG334     -0.2867
     35  CB        38.3240   38.9320   24.6290 C.3   334  ARG334      0.0307
     36  CG        36.9690   39.6260   24.3640 C.3   334  ARG334      0.0489
     37  CD        36.0290   38.6730   23.6950 C.3   334  ARG334      0.2205
     38  NE        35.5240   37.6470   24.6200 N.pl3 334  ARG334     -0.0865
     39  CZ        34.5350   36.7980   24.3350 C.cat 334  ARG334      0.5346
     40  NH1       33.9020   36.8710   23.1750 N.pl3 334  ARG334      0.1354
     41  NH2       34.1540   35.8880   25.2230 N.pl3 334  ARG334      0.1354
     42  N         34.2920   41.5450   21.7440 N.3   342  TRP342     -0.1241
     43  CA        35.1900   41.6160   20.5810 C.3   342  TRP342      0.1605
     44  C         35.1700   43.0240   20.0130 C.2   342  TRP342      0.2264
     45  O         36.1490   43.4510   19.4370 O.2   342  TRP342     -0.2867
     46  CB        34.8330   40.6060   19.4890 C.3   342  TRP342      0.0550
     47  CG        35.0720   39.1980   19.8750 C.ar  342  TRP342      0.0003
     48  CD1       34.1740   38.1780   19.8170 C.ar  342  TRP342      0.0946
     49  CD2       36.3420   38.6000   20.1460 C.ar  342  TRP342      0.0152
     50  NE1       34.7990   36.9850   20.0670 N.ar  342  TRP342     -0.2442
     51  CE2       36.1180   37.2230   20.3430 C.ar  342  TRP342      0.0810
     52  CE3       37.6340   39.1060   20.3670 C.ar  342  TRP342      0.0012
     53  CZ2       37.1290   36.3540   20.7690 C.ar  342  TRP342      0.0191
     54  CZ3       38.6420   38.2230   20.7350 C.ar  342  TRP342      0.0001
     55  CH2       38.3780   36.8700   20.9310 C.ar  342  TRP342      0.0015
     56  N         37.8380   32.2010   12.7750 N.3   424  GLY424     -0.1210
     57  CA        37.0520   33.1120   13.6080 C.3   424  GLY424      0.1956
     58  C         37.5880   34.5260   13.7320 C.2   424  GLY424      0.2611
     59  O         36.8410   35.4800   13.4990 O.2   424  GLY424     -0.2717
     60  N         38.9010   34.6700   13.9690 N.am  425  ALA425     -0.1979
     61  CA        39.5390   35.9950   14.1310 C.3   425  ALA425      0.1597
     62  C         39.7030   36.7670   12.7930 C.2   425  ALA425      0.2287
     63  O         39.8720   37.9890   12.8350 O.2   425  ALA425     -0.2864
     64  CB        40.8880   35.8630   14.8580 C.3   425  ALA425      0.0319
     65  N         37.3270   37.4650   11.0600 N.3   427  HIS427     -0.1226
     66  CA        36.1300   38.3050   11.1010 C.3   427  HIS427      0.1752
     67  C         36.3490   39.5740   11.9300 C.2   427  HIS427      0.2596
     68  O         35.3880   40.2710   12.2340 O.2   427  HIS427     -0.2718
     69  CB        34.9270   37.5550   11.6650 C.3   427  HIS427      0.0759
     70  CG        34.5520   36.3420   10.8880 C.ar  427  HIS427      0.0818
     71  ND1       33.6820   35.4120   11.4060 N.ar  427  HIS427     -0.2268
     72  CD2       34.9330   35.9430    9.6610 C.ar  427  HIS427      0.1154
     73  CE1       33.5860   34.4570   10.4950 C.ar  427  HIS427      0.1986
     74  NE2       34.3100   34.7380    9.4280 N.ar  427  HIS427     -0.2212
     75  N         37.6110   39.9060   12.2290 N.am  428  ASN428     -0.1974
     76  CA        38.0170   41.0880   12.9680 C.3   428  ASN428      0.1688
     77  C         39.1040   41.7960   12.1370 C.2   428  ASN428      0.2292
     78  O         40.2610   41.3460   12.0710 O.2   428  ASN428     -0.2864
     79  CB        38.5060   40.6590   14.3450 C.3   428  ASN428      0.1181
     80  CG        38.6230   41.8020   15.3170 C.2   428  ASN428      0.2629
     81  OD1       39.1840   42.8390   15.0000 O.2   428  ASN428     -0.2716
     82  ND2       38.1840   41.6180   16.5480 N.am  428  ASN428     -0.0877
     83  N         42.2710   42.9900   13.9850 N.3   431  ILE431     -0.1245
     84  CA        43.2570   41.9000   14.0970 C.3   431  ILE431      0.1561
     85  C         44.0000   41.7410   12.7400 C.2   431  ILE431      0.2260
     86  O         45.2240   41.6780   12.7150 O.2   431  ILE431     -0.2867
     87  CB        42.6030   40.5760   14.5670 C.3   431  ILE431      0.0252
     88  CG1       42.0680   40.7290   16.0180 C.3   431  ILE431      0.0019
     89  CG2       43.5700   39.3840   14.4500 C.3   431  ILE431      0.0019
     90  CD1       41.4080   39.5110   16.5800 C.3   431  ILE431      0.0001
@<TRIPOS>BOND
     1    74    72   ar
     2    74    73   ar
     3    72    70   ar
     4    73    71   ar
     5    70    71   ar
     6    70    69    1
     7    65    66    1
     8    66    69    1
     9    66    67    1
    10    67    75   am
    11    67    68    2
    12    78    77    2
    13    77    76    1
    14    75    76    1
    15    86    85    2
    16    85    84    1
    17    56    57    1
    18    62    63    2
    19    62    61    1
    20    76    79    1
    21    59    58    2
    22    57    58    1
    23    58    60   am
    24    60    61    1
    25    83    84    1
    26    84    87    1
    27    61    64    1
    28    79    80    1
    29    89    87    1
    30    87    88    1
    31     1     2    1
    32    81    80    2
    33    80    82   am
    34     2     3    1
    35    88    90    1
    36     3     4    2
    37    21    19    1
    38    19    20    1
    39    19    18    2
    40    18    17    1
    41    17    16    1
    42     9    10    1
    43     9     6    1
    44    45    44    2
    45    46    47    1
    46    46    43    1
    47     5     6    1
    48    48    47   ar
    49    48    50   ar
    50    47    49   ar
    51     6     7    1
    52    44    43    1
    53    50    51   ar
    54    16    15    1
    55    49    51   ar
    56    49    52   ar
    57    51    53   ar
    58    52    54   ar
    59    43    42    1
    60    54    55   ar
    61    53    55   ar
    62    15    12    1
    63     7     8    2
    64    12    11    1
    65    12    13    1
    66    40    39    1
    67    13    22   am
    68    13    14    2
    69    22    23    1
    70    37    36    1
    71    37    38    1
    72    26    23    1
    73    26    27    1
    74    23    24    1
    75    39    38    2
    76    39    41    1
    77    29    28   ar
    78    36    35    1
    79    27    28    1
    80    35    32    1
    81    28    30   ar
    82    24    25    2
    83    32    31    1
    84    32    33    1
    85    33    34    2
