@<TRIPOS>MOLECULE
tmp/4bc4C00.pdb
 122 120 0 0 0
SMALL
GASTEIGER

@<TRIPOS>ATOM
      1  N        -18.6440  -13.8080    2.6020 N.3    10  SER10      -0.1202
      2  CA       -18.1920  -13.1320    3.8060 C.3    10  SER10       0.2020
      3  C        -18.6910  -13.8430    5.0520 C.2    10  SER10       0.2619
      4  O        -19.4440  -14.8130    4.9640 O.2    10  SER10      -0.2717
      5  CB       -18.6610  -11.6800    3.7960 C.3    10  SER10       0.2103
      6  OG       -17.8770  -10.8540    4.6400 O.3    10  SER10      -0.2182
      7  N        -18.2630  -13.3630    6.2270 N.am   11  THR11      -0.1952
      8  CA       -18.6610  -13.9810    7.4920 C.3    11  THR11       0.1897
      9  C        -20.1650  -13.9090    7.7520 C.2    11  THR11       0.2313
     10  O        -20.7430  -14.9020    8.1680 O.2    11  THR11      -0.2863
     11  CB       -17.9110  -13.3690    8.6900 C.3    11  THR11       0.1794
     12  OG1      -16.5130  -13.4860    8.4650 O.3    11  THR11      -0.2208
     13  CG2      -18.2650  -14.0680   10.0150 C.3    11  THR11       0.0378
     14  N        -13.9750  -14.9510    2.7270 N.3    89  GLN89      -0.1231
     15  CA       -13.4260  -14.6500    4.0450 C.3    89  GLN89       0.1698
     16  C        -12.1810  -15.5180    4.1960 C.2    89  GLN89       0.2592
     17  O        -12.2130  -16.7020    3.8470 O.2    89  GLN89      -0.2718
     18  CB       -14.4720  -14.9340    5.1370 C.3    89  GLN89       0.0381
     19  CG       -15.1060  -16.3360    5.0360 C.3    89  GLN89       0.0905
     20  CD       -16.0020  -16.6300    6.2000 C.2    89  GLN89       0.2608
     21  OE1      -15.5850  -16.5930    7.3440 O.2    89  GLN89      -0.2717
     22  NE2      -17.2450  -16.9510    5.9410 N.am   89  GLN89      -0.0878
     23  N        -11.0510  -14.9410    4.5890 N.am   90  GLN90      -0.1966
     24  CA        -9.8210  -15.7210    4.5470 C.3    90  GLN90       0.1733
     25  C         -9.7380  -16.8080    5.5920 C.2    90  GLN90       0.2616
     26  O        -10.4980  -16.8430    6.5600 O.2    90  GLN90      -0.2715
     27  CB        -8.5800  -14.8190    4.6530 C.3    90  GLN90       0.0408
     28  CG        -8.5220  -13.8060    3.5310 C.3    90  GLN90       0.0908
     29  CD        -7.1750  -13.1740    3.4020 C.2    90  GLN90       0.2608
     30  OE1       -6.9410  -12.0840    3.9080 O.2    90  GLN90      -0.2717
     31  NE2       -6.2770  -13.8440    2.6950 N.am   90  GLN90      -0.0878
     32  N         -8.8720  -17.7720    5.3080 N.am   91  HIS91      -0.1973
     33  CA        -8.4570  -18.8700    6.1980 C.3    91  HIS91       0.1656
     34  C         -9.4630  -20.0140    6.4180 C.2    91  HIS91       0.2291
     35  O         -9.0180  -21.1650    6.5660 O.2    91  HIS91      -0.2864
     36  CB        -8.0250  -18.3210    7.5780 C.3    91  HIS91       0.0771
     37  CG        -7.2300  -17.0580    7.4990 C.ar   91  HIS91       0.0820
     38  ND1       -5.9920  -17.0180    6.8830 N.ar   91  HIS91      -0.2267
     39  CD2       -7.5470  -15.8130    7.9130 C.ar   91  HIS91       0.1154
     40  CE1       -5.5880  -15.7560    6.9630 C.ar   91  HIS91       0.1986
     41  NE2       -6.4940  -14.9990    7.5680 N.ar   91  HIS91      -0.2212
     42  N        -12.2420  -17.5820   10.2560 N.3   129  TRP129     -0.1241
     43  CA       -11.1450  -16.7090   10.6440 C.3   129  TRP129      0.1605
     44  C        -11.1840  -16.2780   12.1280 C.2   129  TRP129      0.2264
     45  O        -10.1640  -15.8520   12.6370 O.2   129  TRP129     -0.2867
     46  CB       -11.0990  -15.4580    9.7560 C.3   129  TRP129      0.0550
     47  CG       -12.2110  -14.4840   10.0170 C.ar  129  TRP129      0.0003
     48  CD1      -13.4660  -14.5070    9.4830 C.ar  129  TRP129      0.0946
     49  CD2      -12.1530  -13.3150   10.8580 C.ar  129  TRP129      0.0152
     50  NE1      -14.1750  -13.4070    9.9010 N.ar  129  TRP129     -0.2442
     51  CE2      -13.4050  -12.6730   10.7670 C.ar  129  TRP129      0.0810
     52  CE3      -11.1650  -12.7490   11.6770 C.ar  129  TRP129      0.0012
     53  CZ2      -13.6980  -11.4960   11.4680 C.ar  129  TRP129      0.0191
     54  CZ3      -11.4630  -11.5980   12.3920 C.ar  129  TRP129      0.0001
     55  CH2      -12.7150  -10.9690   12.2580 C.ar  129  TRP129      0.0015
     56  N         -6.0100  -18.9470   13.5160 N.3   161  ARG161     -0.1231
     57  CA        -6.9800  -18.9990   12.4130 C.3   161  ARG161      0.1694
     58  C         -6.4110  -19.5380   11.0960 C.2   161  ARG161      0.2592
     59  O         -7.1890  -19.9820   10.2570 O.2   161  ARG161     -0.2718
     60  CB        -7.5880  -17.6190   12.1560 C.3   161  ARG161      0.0321
     61  CG        -6.6760  -16.5750   11.5150 C.3   161  ARG161      0.0489
     62  CD        -7.2760  -15.2050   11.6510 C.3   161  ARG161      0.2205
     63  NE        -6.5250  -14.1480   10.9670 N.pl3 161  ARG161     -0.0865
     64  CZ        -5.4440  -13.5330   11.4340 C.cat 161  ARG161      0.5346
     65  NH1       -4.9130  -13.8950   12.5960 N.pl3 161  ARG161      0.1354
     66  NH2       -4.8780  -12.5560   10.7380 N.pl3 161  ARG161      0.1354
     67  N         -5.0880  -19.5360   10.9170 N.am  162  PHE162     -0.1976
     68  CA        -4.4810  -19.9820    9.6500 C.3   162  PHE162      0.1639
     69  C         -4.7780  -21.4640    9.4510 C.2   162  PHE162      0.2290
     70  O         -4.7470  -22.2510   10.3960 O.2   162  PHE162     -0.2864
     71  CB        -2.9850  -19.6650    9.5860 C.3   162  PHE162      0.0560
     72  CG        -2.6910  -18.2400    9.1350 C.ar  162  PHE162     -0.0200
     73  CD1       -3.4420  -17.1690    9.6050 C.ar  162  PHE162     -0.0042
     74  CD2       -1.6490  -17.9730    8.2570 C.ar  162  PHE162     -0.0042
     75  CE1       -3.1650  -15.8630    9.2000 C.ar  162  PHE162     -0.0003
     76  CE2       -1.3770  -16.6580    7.8390 C.ar  162  PHE162     -0.0003
     77  CZ        -2.1150  -15.6080    8.3390 C.ar  162  PHE162     -0.0000
     78  N        -10.6240  -12.2070    0.7640 N.3   270  ASP270     -0.1225
     79  CA       -11.2800  -10.8960    0.7730 C.3   270  ASP270      0.1805
     80  C        -10.2610   -9.7370    0.8870 C.2   270  ASP270      0.2597
     81  O        -10.4200   -8.7800    0.1410 O.2   270  ASP270     -0.2718
     82  CB       -12.4050  -10.7770    1.8120 C.3   270  ASP270      0.1424
     83  CG       -12.1190  -11.1280    3.2570 C.2   270  ASP270      0.3668
     84  OD1      -10.9260  -11.3320    3.6090 O.co2 270  ASP270     -0.2456
     85  OD2      -13.0750  -11.1340    4.0520 O.co2 270  ASP270     -0.2456
     86  N         -9.2330   -9.8220    1.7460 N.am  271  ASN271     -0.1974
     87  CA        -8.2360   -8.7390    1.8390 C.3   271  ASN271      0.1688
     88  C         -7.4520   -8.6200    0.5360 C.2   271  ASN271      0.2292
     89  O         -7.4280   -7.5110    0.0020 O.2   271  ASN271     -0.2864
     90  CB        -7.3330   -8.8710    3.0290 C.3   271  ASN271      0.1181
     91  CG        -8.1330   -8.7380    4.3180 C.2   271  ASN271      0.2629
     92  OD1       -8.7870   -7.7060    4.5590 O.2   271  ASN271     -0.2716
     93  ND2       -8.2960   -9.8200    5.0370 N.am  271  ASN271     -0.0877
     94  N          1.2650  -10.1090    8.1090 N.3   307  HIS307     -0.1241
     95  CA         1.0370  -11.2370    7.2120 C.3   307  HIS307      0.1621
     96  C          1.4110  -10.8680    5.8190 C.2   307  HIS307      0.2264
     97  O          0.8020   -9.9570    5.2590 O.2   307  HIS307     -0.2867
     98  CB        -0.4380  -11.6670    7.2510 C.3   307  HIS307      0.0745
     99  CG        -1.0030  -11.7740    8.6200 C.ar  307  HIS307      0.0817
    100  ND1       -0.6410  -12.7940    9.4700 N.ar  307  HIS307     -0.2268
    101  CD2       -1.8260  -10.9270    9.2760 C.ar  307  HIS307      0.1154
    102  CE1       -1.3010  -12.5730   10.5850 C.ar  307  HIS307      0.1986
    103  NE2       -1.9770  -11.4360   10.5290 N.ar  307  HIS307     -0.2212
    104  N          1.4350  -12.0000    1.9740 N.3   309  PHE309     -0.1241
    105  CA         0.8450  -12.9190    1.0020 C.3   309  PHE309      0.1605
    106  C          1.4050  -12.6530   -0.3850 C.2   309  PHE309      0.2264
    107  O          1.7880  -11.5180   -0.6950 O.2   309  PHE309     -0.2867
    108  CB        -0.6790  -12.7450    0.9270 C.3   309  PHE309      0.0534
    109  CG        -1.4830  -12.7250    2.2010 C.ar  309  PHE309     -0.0203
    110  CD1       -1.1800  -13.5850    3.2550 C.ar  309  PHE309     -0.0042
    111  CD2       -2.5910  -11.8900    2.3300 C.ar  309  PHE309     -0.0042
    112  CE1       -1.9790  -13.6300    4.3890 C.ar  309  PHE309     -0.0003
    113  CE2       -3.3360  -11.8680    3.5210 C.ar  309  PHE309     -0.0003
    114  CZ        -3.0560  -12.7780    4.5140 C.ar  309  PHE309     -0.0000
    115  N         -0.6220   -7.3780    5.2080 N.3   320  LEU320     -0.1245
    116  CA        -1.5580   -6.8630    6.1740 C.3   320  LEU320      0.1561
    117  C         -0.8630   -6.6760    7.5090 C.2   320  LEU320      0.2260
    118  O         -0.1810   -7.5980    7.9800 O.2   320  LEU320     -0.2867
    119  CB        -2.7390   -7.8130    6.4110 C.3   320  LEU320      0.0270
    120  CG        -3.6700   -8.1700    5.2870 C.3   320  LEU320      0.0019
    121  CD1       -4.8060   -9.0900    5.8250 C.3   320  LEU320      0.0001
    122  CD2       -4.2570   -6.9120    4.6740 C.3   320  LEU320      0.0001
@<TRIPOS>BOND
     1   107   106    2
     2   106   105    1
     3    89    88    2
     4    81    80    2
     5    88    87    1
     6    78    79    1
     7    79    80    1
     8    79    82    1
     9    80    86   am
    10   108   105    1
    11   108   109    1
    12   105   104    1
    13    86    87    1
    14    82    83    1
    15    87    90    1
    16   109   111   ar
    17   109   110   ar
    18   111   113   ar
    19     1     2    1
    20    31    29   am
    21    14    15    1
    22    90    91    1
    23   110   112   ar
    24    83    84   ar
    25    83    85   ar
    26    29    28    1
    27    29    30    2
    28   113   114   ar
    29    28    27    1
    30     5     2    1
    31     5     6    1
    32     2     3    1
    33    17    16    2
    34    15    16    1
    35    15    18    1
    36    16    23   am
    37    91    92    2
    38    91    93   am
    39   112   114   ar
    40    24    23    1
    41    24    27    1
    42    24    25    1
    43   122   120    1
    44     4     3    2
    45    19    18    1
    46    19    20    1
    47     3     7   am
    48   115   116    1
    49    97    96    2
    50   120   121    1
    51   120   119    1
    52    32    25   am
    53    32    33    1
    54    25    26    2
    55    96    95    1
    56    22    20   am
    57   116   119    1
    58   116   117    1
    59    33    34    1
    60    33    36    1
    61    20    21    2
    62     7     8    1
    63    34    35    2
    64    38    40   ar
    65    38    37   ar
    66    40    41   ar
    67    95    98    1
    68    95    94    1
    69    98    99    1
    70     8     9    1
    71     8    11    1
    72    37    36    1
    73    37    39   ar
    74   117   118    2
    75    41    39   ar
    76     9    10    2
    77    76    74   ar
    78    76    77   ar
    79    74    72   ar
    80    77    75   ar
    81    12    11    1
    82    99   101   ar
    83    99   100   ar
    84    11    13    1
    85    72    71    1
    86    72    73   ar
    87    75    73   ar
    88   101   103   ar
    89    69    68    1
    90    69    70    2
    91   100   102   ar
    92    48    50   ar
    93    48    47   ar
    94    71    68    1
    95    68    67    1
    96    46    47    1
    97    46    43    1
    98    50    51   ar
    99    47    49   ar
   100    42    43    1
   101    59    58    2
   102   103   102   ar
   103    43    44    1
   104    66    64    1
   105    51    49   ar
   106    51    53   ar
   107    49    52   ar
   108    67    58   am
   109    63    64    2
   110    63    62    1
   111    58    57    1
   112    64    65    1
   113    53    55   ar
   114    61    62    1
   115    61    60    1
   116    52    54   ar
   117    44    45    2
   118    60    57    1
   119    55    54   ar
   120    57    56    1
