@<TRIPOS>MOLECULE
tmp/4bc5C00.pdb
 128 125 0 0 0
SMALL
GASTEIGER

@<TRIPOS>ATOM
      1  N         38.0820  -45.6060   29.5790 N.3    11  SER11      -0.1202
      2  CA        38.5050  -44.8710   30.7530 C.3    11  SER11       0.2020
      3  C         38.3330  -45.7090   32.0380 C.2    11  SER11       0.2619
      4  O         37.8610  -46.8510   31.9980 O.2    11  SER11      -0.2717
      5  CB        37.7320  -43.5600   30.8220 C.3    11  SER11       0.2103
      6  OG        38.4180  -42.5890   31.5780 O.3    11  SER11      -0.2182
      7  N         38.7700  -45.1580   33.1610 N.am   12  THR12      -0.1952
      8  CA        38.6680  -45.8520   34.4550 C.3    12  THR12       0.1897
      9  C         37.2070  -46.1410   34.9140 C.2    12  THR12       0.2313
     10  O         36.9360  -47.2490   35.3770 O.2    12  THR12      -0.2863
     11  CB        39.4260  -45.0670   35.5300 C.3    12  THR12       0.1794
     12  OG1       40.7590  -44.8610   35.0770 O.3    12  THR12      -0.2208
     13  CG2       39.3960  -45.7740   36.9130 C.3    12  THR12       0.0378
     14  N         42.9300  -45.5410   29.3250 N.3    92  GLN92      -0.1231
     15  CA        43.4940  -45.1280   30.6270 C.3    92  GLN92       0.1698
     16  C         44.9380  -45.6790   30.6270 C.2    92  GLN92       0.2592
     17  O         45.1580  -46.8230   30.2290 O.2    92  GLN92      -0.2718
     18  CB        42.6800  -45.7230   31.8020 C.3    92  GLN92       0.0381
     19  CG        42.4420  -47.2250   31.6950 C.3    92  GLN92       0.0905
     20  CD        41.7530  -47.7510   32.9150 C.2    92  GLN92       0.2608
     21  OE1       42.2510  -47.6080   34.0400 O.2    92  GLN92      -0.2717
     22  NE2       40.6000  -48.3640   32.7370 N.am   92  GLN92      -0.0878
     23  N         45.9110  -44.8490   30.9270 N.am   93  GLN93      -0.1966
     24  CA        47.2960  -45.2800   30.7520 C.3    93  GLN93       0.1733
     25  C         47.7590  -46.3250   31.7360 C.2    93  GLN93       0.2616
     26  O         47.1310  -46.5400   32.7650 O.2    93  GLN93      -0.2715
     27  CB        48.2470  -44.0900   30.7440 C.3    93  GLN93       0.0408
     28  CG        47.8800  -43.1210   29.6250 C.3    93  GLN93       0.0908
     29  CD        49.0050  -42.1740   29.3770 C.2    93  GLN93       0.2608
     30  OE1       49.0290  -41.0740   29.9210 O.2    93  GLN93      -0.2717
     31  NE2       49.9900  -42.6060   28.5830 N.am   93  GLN93      -0.0878
     32  N         48.8470  -47.0210   31.3690 N.am   94  HIS94      -0.1973
     33  CA        49.5630  -47.9840   32.2090 C.3    94  HIS94       0.1656
     34  C         48.9260  -49.3350   32.4160 C.2    94  HIS94       0.2291
     35  O         49.6540  -50.3370   32.4470 O.2    94  HIS94      -0.2864
     36  CB        49.9290  -47.3560   33.5800 C.3    94  HIS94       0.0771
     37  CG        50.4340  -45.9480   33.4650 C.ar   94  HIS94       0.0820
     38  ND1       51.5610  -45.6460   32.7310 N.ar   94  HIS94      -0.2267
     39  CD2       49.8780  -44.8040   33.8840 C.ar   94  HIS94       0.1154
     40  CE1       51.6790  -44.3350   32.7730 C.ar   94  HIS94       0.1986
     41  NE2       50.6980  -43.7870   33.4670 N.ar   94  HIS94      -0.2212
     42  N         46.0180  -47.7540   36.5870 N.3   132  TRP132     -0.1241
     43  CA        46.8570  -46.6060   36.9440 C.3   132  TRP132      0.1605
     44  C         46.9010  -46.2260   38.4400 C.2   132  TRP132      0.2264
     45  O         47.8660  -45.6090   38.8950 O.2   132  TRP132     -0.2867
     46  CB        46.4650  -45.3900   36.0950 C.3   132  TRP132      0.0550
     47  CG        45.1730  -44.7480   36.4920 C.ar  132  TRP132      0.0003
     48  CD1       43.9230  -45.0530   36.0390 C.ar  132  TRP132      0.0946
     49  CD2       45.0200  -43.6180   37.3540 C.ar  132  TRP132      0.0152
     50  NE1       42.9960  -44.2260   36.6240 N.ar  132  TRP132     -0.2442
     51  CE2       43.6410  -43.3210   37.4180 C.ar  132  TRP132      0.0810
     52  CE3       45.9100  -42.8600   38.1280 C.ar  132  TRP132      0.0012
     53  CZ2       43.1360  -42.2710   38.1820 C.ar  132  TRP132      0.0191
     54  CZ3       45.4060  -41.8350   38.9090 C.ar  132  TRP132      0.0001
     55  CH2       44.0320  -41.5310   38.9110 C.ar  132  TRP132      0.0015
     56  N         52.6830  -47.4830   39.2260 N.3   165  ARG165     -0.1231
     57  CA        51.6620  -47.7630   38.2180 C.3   165  ARG165      0.1694
     58  C         52.2180  -48.1410   36.8190 C.2   165  ARG165      0.2592
     59  O         51.4940  -48.7690   36.0640 O.2   165  ARG165     -0.2718
     60  CB        50.7120  -46.5870   38.0880 C.3   165  ARG165      0.0321
     61  CG        51.2750  -45.3640   37.3780 C.3   165  ARG165      0.0489
     62  CD        50.3430  -44.2110   37.6060 C.3   165  ARG165      0.2205
     63  NE        50.7340  -42.9980   36.8900 N.pl3 165  ARG165     -0.0865
     64  CZ        51.6500  -42.1360   37.2970 C.cat 165  ARG165      0.5346
     65  NH1       52.3690  -42.3770   38.3900 N.pl3 165  ARG165      0.1354
     66  NH2       51.8820  -41.0360   36.5950 N.pl3 165  ARG165      0.1354
     67  N         53.4780  -47.7860   36.4900 N.am  166  PHE166     -0.1976
     68  CA        54.0440  -48.0350   35.1530 C.3   166  PHE166      0.1639
     69  C         54.1250  -49.5230   34.9220 C.2   166  PHE166      0.2290
     70  O         54.4780  -50.2780   35.8290 O.2   166  PHE166     -0.2864
     71  CB        55.3800  -47.3060   34.9270 C.3   166  PHE166      0.0560
     72  CG        55.2870  -45.8550   34.5300 C.ar  166  PHE166     -0.0200
     73  CD1       54.3050  -45.0270   35.0640 C.ar  166  PHE166     -0.0042
     74  CD2       56.1090  -45.3390   33.5400 C.ar  166  PHE166     -0.0042
     75  CE1       54.2270  -43.6960   34.7090 C.ar  166  PHE166     -0.0003
     76  CE2       56.0000  -44.0040   33.1460 C.ar  166  PHE166     -0.0003
     77  CZ        55.0340  -43.2030   33.7160 C.ar  166  PHE166     -0.0000
     78  N         45.1890  -42.0470   27.2140 N.3   275  ASP275     -0.1225
     79  CA        44.2120  -40.9450   27.3620 C.3   275  ASP275      0.1805
     80  C         44.8850  -39.5700   27.4030 C.2   275  ASP275      0.2597
     81  O         44.3920  -38.6490   26.7410 O.2   275  ASP275     -0.2718
     82  CB        43.2300  -41.1710   28.5080 C.3   275  ASP275      0.1424
     83  CG        43.7870  -41.2380   29.9560 C.2   275  ASP275      0.3668
     84  OD1       45.0300  -41.2120   30.1290 O.co2 275  ASP275     -0.2456
     85  OD2       42.9860  -41.2960   30.8870 O.co2 275  ASP275     -0.2456
     86  N         46.0330  -39.4250   28.0990 N.am  276  ASN276     -0.1974
     87  CA        46.7110  -38.1100   28.1230 C.3   276  ASN276      0.1688
     88  C         47.2700  -37.7380   26.7510 C.2   276  ASN276      0.2292
     89  O         47.0010  -36.6320   26.2870 O.2   276  ASN276     -0.2864
     90  CB        47.7300  -38.0000   29.2520 C.3   276  ASN276      0.1181
     91  CG        47.0540  -38.1050   30.6000 C.2   276  ASN276      0.2629
     92  OD1       46.2150  -37.2750   30.9570 O.2   276  ASN276     -0.2716
     93  ND2       47.2310  -39.2070   31.2810 N.am  276  ASN276     -0.0877
     94  N         56.8980  -37.1230   33.4630 N.3   314  HIS314     -0.1241
     95  CA        56.9090  -38.2460   32.5390 C.3   314  HIS314      0.1621
     96  C         57.0310  -37.7610   31.1290 C.2   314  HIS314      0.2264
     97  O         56.1750  -37.0020   30.6780 O.2   314  HIS314     -0.2867
     98  CB        55.6230  -39.0810   32.6930 C.3   314  HIS314      0.0745
     99  CG        55.2250  -39.3180   34.1150 C.ar  314  HIS314      0.0817
    100  ND1       55.9240  -40.1890   34.9460 N.ar  314  HIS314     -0.2268
    101  CD2       54.2180  -38.7540   34.8210 C.ar  314  HIS314      0.1154
    102  CE1       55.3140  -40.1180   36.1220 C.ar  314  HIS314      0.1986
    103  NE2       54.2820  -39.2720   36.0830 N.ar  314  HIS314     -0.2212
    104  N         56.8890  -38.7060   27.2360 N.3   316  PHE316     -0.1241
    105  CA        56.4090  -39.7170   26.3070 C.3   316  PHE316      0.1605
    106  C         56.7610  -39.2880   24.8810 C.2   316  PHE316      0.2264
    107  O         56.8550  -38.1050   24.5880 O.2   316  PHE316     -0.2867
    108  CB        54.8900  -39.9040   26.3670 C.3   316  PHE316      0.0534
    109  CG        54.2320  -40.1240   27.7060 C.ar  316  PHE316     -0.0203
    110  CD1       54.8330  -40.9320   28.6730 C.ar  316  PHE316     -0.0042
    111  CD2       52.9600  -39.6410   27.9510 C.ar  316  PHE316     -0.0042
    112  CE1       54.2080  -41.1720   29.8950 C.ar  316  PHE316     -0.0003
    113  CE2       52.3270  -39.8900   29.1650 C.ar  316  PHE316     -0.0003
    114  CZ        52.9570  -40.6610   30.1270 C.ar  316  PHE316     -0.0000
    115  N         54.0450  -34.9760   30.8540 N.3   328  LEU328     -0.1245
    116  CA        53.0580  -34.7780   31.8820 C.3   328  LEU328      0.1561
    117  C         53.8180  -34.4500   33.1770 C.2   328  LEU328      0.2260
    118  O         54.7730  -35.1540   33.5170 O.2   328  LEU328     -0.2867
    119  CB        52.2430  -36.0260   32.1770 C.3   328  LEU328      0.0270
    120  CG        51.3090  -36.5520   31.1290 C.3   328  LEU328      0.0019
    121  CD1       50.5010  -37.7160   31.7210 C.3   328  LEU328      0.0001
    122  CD2       50.3850  -35.4400   30.6000 C.3   328  LEU328      0.0001
    123  N         52.5080  -33.7640   37.1470 N.3   330  CYS330     -0.1235
    124  CA        51.3570  -33.9520   38.0190 C.3   330  CYS330      0.1677
    125  C         51.5310  -33.2150   39.3850 C.2   330  CYS330      0.2270
    126  O         52.5720  -33.3450   40.0240 O.2   330  CYS330     -0.2867
    127  CB        51.1190  -35.4570   38.1770 C.3   330  CYS330      0.0956
    128  SG        50.8140  -36.3290   36.5850 S.3   330  CYS330     -0.0801
@<TRIPOS>BOND
     1   107   106    2
     2   106   105    1
     3    89    88    2
     4   105   108    1
     5   105   104    1
     6   108   109    1
     7    81    80    2
     8    88    87    1
     9    78    79    1
    10    79    80    1
    11    79    82    1
    12    80    86   am
    13   109   111   ar
    14   109   110   ar
    15   111   113   ar
    16    86    87    1
    17    87    90    1
    18    82    83    1
    19    31    29   am
    20   110   112   ar
    21   113   114   ar
    22    90    91    1
    23    14    15    1
    24    29    28    1
    25    29    30    2
    26     1     2    1
    27    28    27    1
    28   112   114   ar
    29    83    84   ar
    30    83    85   ar
    31    17    16    2
    32   122   120    1
    33    91    92    2
    34    91    93   am
    35    16    15    1
    36    16    23   am
    37    15    18    1
    38    97    96    2
    39    27    24    1
    40    24    23    1
    41    24    25    1
    42     2     5    1
    43     2     3    1
    44     5     6    1
    45   115   116    1
    46    96    95    1
    47   120   121    1
    48   120   119    1
    49    32    25   am
    50    32    33    1
    51    19    18    1
    52    19    20    1
    53    25    26    2
    54   116   119    1
    55   116   117    1
    56     4     3    2
    57     3     7   am
    58    33    34    1
    59    33    36    1
    60    34    35    2
    61    95    98    1
    62    95    94    1
    63    98    99    1
    64    38    40   ar
    65    38    37   ar
    66    22    20   am
    67    40    41   ar
    68    20    21    2
    69    76    74   ar
    70    76    77   ar
    71     7     8    1
    72   117   118    2
    73    37    36    1
    74    37    39   ar
    75    41    39   ar
    76    74    72   ar
    77    77    75   ar
    78    99   101   ar
    79    99   100   ar
    80     8     9    1
    81     8    11    1
    82    72    71    1
    83    72    73   ar
    84    75    73   ar
    85   101   103   ar
    86     9    10    2
    87    69    68    1
    88    69    70    2
    89    71    68    1
    90   100   102   ar
    91    12    11    1
    92    68    67    1
    93    11    13    1
    94    48    47   ar
    95    48    50   ar
    96    59    58    2
    97   103   102   ar
    98    46    47    1
    99    46    43    1
   100    67    58   am
   101    47    49   ar
   102   128   127    1
   103    42    43    1
   104    66    64    1
   105    50    51   ar
   106    58    57    1
   107    63    64    2
   108    63    62    1
   109    43    44    1
   110   123   124    1
   111    64    65    1
   112    49    51   ar
   113    49    52   ar
   114    61    62    1
   115    61    60    1
   116    51    53   ar
   117   124   127    1
   118   124   125    1
   119    60    57    1
   120    52    54   ar
   121    53    55   ar
   122    57    56    1
   123    44    45    2
   124    54    55   ar
   125   125   126    2
