@<TRIPOS>MOLECULE
tmp/4bc6A00.pdb
 189 178 0 0 0
SMALL
GASTEIGER

@<TRIPOS>ATOM
      1  N         -1.2960  -13.7020   19.0700 N.3    19  LEU19      -0.1231
      2  CA        -1.2680  -15.1090   19.4690 C.3    19  LEU19       0.1693
      3  C         -0.9810  -16.0330   18.2830 C.2    19  LEU19       0.2592
      4  O         -0.0860  -16.8740   18.3660 O.2    19  LEU19      -0.2718
      5  CB        -2.5910  -15.5220   20.1510 C.3    19  LEU19       0.0284
      6  CG        -2.9330  -14.8790   21.5010 C.3    19  LEU19       0.0019
      7  CD1       -4.3480  -15.2390   21.9300 C.3    19  LEU19       0.0001
      8  CD2       -1.9390  -15.2820   22.5960 C.3    19  LEU19       0.0001
      9  N         -1.7450  -15.8790   17.2070 N.am   20  GLY20      -0.1957
     10  CA        -1.6150  -16.7090   16.0170 C.3    20  GLY20       0.1869
     11  C         -1.8350  -15.9770   14.7110 C.2    20  GLY20       0.2309
     12  O         -2.6040  -15.0120   14.6540 O.2    20  GLY20      -0.2863
     13  N         -7.4050  -18.4000    8.2720 N.3    24  PHE24      -0.1241
     14  CA        -8.5960  -17.5470    8.4190 C.3    24  PHE24       0.1605
     15  C         -8.2680  -16.0960    8.8340 C.2    24  PHE24       0.2264
     16  O         -9.0840  -15.2030    8.5950 O.2    24  PHE24      -0.2867
     17  CB        -9.5720  -18.1610    9.4360 C.3    24  PHE24       0.0534
     18  CG       -10.2200  -19.4940    9.0210 C.ar   24  PHE24      -0.0203
     19  CD1      -10.3110  -19.8290    7.6870 C.ar   24  PHE24      -0.0042
     20  CD2      -10.7510  -20.3110   10.0160 C.ar   24  PHE24      -0.0042
     21  CE1      -10.9470  -21.0110    7.3660 C.ar   24  PHE24      -0.0003
     22  CE2      -11.3840  -21.4840    9.6810 C.ar   24  PHE24      -0.0003
     23  CZ       -11.4750  -21.8200    8.3400 C.ar   24  PHE24      -0.0000
     24  N         -5.0560  -13.5900   15.1320 N.3    27  VAL27      -0.1245
     25  CA        -5.6840  -13.7030   16.4510 C.3    27  VAL27       0.1561
     26  C         -4.8100  -12.9100   17.4190 C.2    27  VAL27       0.2260
     27  O         -3.5980  -13.1460   17.5000 O.2    27  VAL27      -0.2867
     28  CB        -5.9040  -15.1760   16.8940 C.3    27  VAL27       0.0252
     29  CG1       -6.3700  -15.2690   18.3460 C.3    27  VAL27       0.0019
     30  CG2       -6.8840  -15.8880   15.9690 C.3    27  VAL27       0.0019
     31  N         -8.6640  -13.9130   23.9900 N.3    40  ALA40      -0.1231
     32  CA        -8.1170  -14.1410   22.6600 C.3    40  ALA40       0.1694
     33  C         -9.0600  -13.3830   21.7490 C.2    40  ALA40       0.2592
     34  O        -10.2780  -13.4920   21.9370 O.2    40  ALA40      -0.2718
     35  CB        -8.0960  -15.6260   22.3450 C.3    40  ALA40       0.0304
     36  N         -8.5380  -12.5260   20.8630 N.am   41  ALA41      -0.1966
     37  CA        -9.4090  -11.6750   20.0620 C.3    41  ALA41       0.1728
     38  C         -9.0970  -11.6440   18.5760 C.2    41  ALA41       0.2616
     39  O         -7.9550  -11.8340   18.1510 O.2    41  ALA41      -0.2715
     40  CB        -9.3510  -10.2580   20.5960 C.3    41  ALA41       0.0334
     41  N        -10.1340  -11.3210   17.7940 N.am   42  LYS42      -0.1977
     42  CA       -10.0650  -11.1350   16.3530 C.3    42  LYS42       0.1596
     43  C        -10.6410   -9.7600   16.0170 C.2    42  LYS42       0.2287
     44  O        -11.7760   -9.4570   16.4030 O.2    42  LYS42      -0.2864
     45  CB       -10.8100  -12.2610   15.6160 C.3    42  LYS42       0.0298
     46  CG        -9.9010  -13.3900   15.1580 C.3    42  LYS42       0.0038
     47  CD       -10.5670  -14.2480   14.0940 C.3    42  LYS42       0.0206
     48  CE        -9.5660  -15.0650   13.3190 C.3    42  LYS42       0.1093
     49  NZ       -10.2380  -16.0170   12.4010 N.3    42  LYS42      -0.1314
     50  N        -19.6820  -13.8090    9.8790 N.3    55  TYR55      -0.1241
     51  CA       -19.1420  -13.6640   11.2320 C.3    55  TYR55       0.1605
     52  C        -20.2440  -13.3480   12.2680 C.2    55  TYR55       0.2264
     53  O        -20.0840  -13.7210   13.4340 O.2    55  TYR55      -0.2867
     54  CB       -18.0450  -12.5950   11.2820 C.3    55  TYR55       0.0534
     55  CG       -16.7010  -13.0700   10.7730 C.ar   55  TYR55      -0.0201
     56  CD1      -16.0550  -14.1580   11.3570 C.ar   55  TYR55      -0.0009
     57  CD2      -16.0620  -12.4200    9.7210 C.ar   55  TYR55      -0.0009
     58  CE1      -14.8150  -14.5950   10.8960 C.ar   55  TYR55       0.0417
     59  CE2      -14.8200  -12.8450    9.2550 C.ar   55  TYR55       0.0417
     60  CZ       -14.1990  -13.9330    9.8460 C.ar   55  TYR55       0.1957
     61  OH       -12.9740  -14.3600    9.3890 O.3    55  TYR55      -0.2866
     62  N        -21.6770  -16.6120   13.3600 N.3    58  GLU58      -0.1245
     63  CA       -20.6710  -17.1910   14.2420 C.3    58  GLU58       0.1567
     64  C        -20.8200  -16.6160   15.6630 C.2    58  GLU58       0.2260
     65  O        -20.8270  -17.3910   16.6230 O.2    58  GLU58      -0.2867
     66  CB       -19.2570  -16.9550   13.6920 C.3    58  GLU58       0.0388
     67  CG       -18.2830  -18.0530   14.0840 C.3    58  GLU58       0.1160
     68  CD       -16.8030  -17.7590   13.9090 C.2    58  GLU58       0.3649
     69  OE1      -16.4420  -17.0000   12.9800 O.co2  58  GLU58      -0.2457
     70  OE2      -16.0000  -18.3030   14.7020 O.co2  58  GLU58      -0.2457
     71  N        -21.8210  -18.5380   19.0250 N.3    62  LEU62      -0.1245
     72  CA       -20.9850  -18.3630   20.2010 C.3    62  LEU62       0.1561
     73  C        -21.8000  -17.8840   21.4020 C.2    62  LEU62       0.2260
     74  O        -21.6020  -18.4060   22.4950 O.2    62  LEU62      -0.2867
     75  CB       -19.8320  -17.3790   19.9260 C.3    62  LEU62       0.0270
     76  CG       -18.6270  -17.9160   19.1550 C.3    62  LEU62       0.0019
     77  CD1      -17.6800  -16.7950   18.7990 C.3    62  LEU62       0.0001
     78  CD2      -17.8940  -18.9860   19.9380 C.3    62  LEU62       0.0001
     79  N        -15.7520  -22.6620   24.0700 N.3    71  VAL71      -0.1245
     80  CA       -15.1160  -21.3430   24.2220 C.3    71  VAL71       0.1561
     81  C        -16.1820  -20.2980   24.6540 C.2    71  VAL71       0.2260
     82  O        -17.3180  -20.3420   24.1790 O.2    71  VAL71      -0.2867
     83  CB       -14.3390  -20.9080   22.9490 C.3    71  VAL71       0.0252
     84  CG1      -13.0720  -21.7390   22.7810 C.3    71  VAL71       0.0019
     85  CG2      -15.2120  -20.9560   21.6760 C.3    71  VAL71       0.0019
     86  N        -14.1700   -9.4850   18.1550 N.3    85  ILE85      -0.1245
     87  CA       -14.7540  -10.6900   18.7430 C.3    85  ILE85       0.1561
     88  C        -13.8320  -11.0960   19.8730 C.2    85  ILE85       0.2260
     89  O        -12.6730  -11.4430   19.6240 O.2    85  ILE85      -0.2867
     90  CB       -15.0370  -11.8490   17.7400 C.3    85  ILE85       0.0252
     91  CG1      -15.9140  -11.3790   16.5460 C.3    85  ILE85       0.0019
     92  CG2      -15.6910  -13.0420   18.4690 C.3    85  ILE85       0.0019
     93  CD1      -16.0340  -12.3690   15.3770 C.3    85  ILE85       0.0001
     94  N        -13.0640  -13.6000   22.9870 N.3    87  ILE87      -0.1231
     95  CA       -13.3050  -14.9340   23.5400 C.3    87  ILE87       0.1692
     96  C        -12.3360  -15.1920   24.7050 C.2    87  ILE87       0.2592
     97  O        -11.1620  -14.8360   24.6020 O.2    87  ILE87      -0.2718
     98  CB       -13.1920  -16.0330   22.4500 C.3    87  ILE87       0.0266
     99  CG1      -14.3070  -15.8780   21.3810 C.3    87  ILE87       0.0019
    100  CG2      -13.2190  -17.4330   23.0810 C.3    87  ILE87       0.0020
    101  CD1      -14.0850  -16.6480   20.1150 C.3    87  ILE87       0.0001
    102  N        -12.8250  -15.8450   25.7890 N.am   88  GLU88      -0.1966
    103  CA       -12.0340  -16.2120   26.9650 C.3    88  GLU88       0.1733
    104  C        -10.7370  -16.8980   26.5240 C.2    88  GLU88       0.2616
    105  O        -10.7700  -17.8770   25.7760 O.2    88  GLU88      -0.2715
    106  CB       -12.8600  -17.1020   27.9110 C.3    88  GLU88       0.0429
    107  CG       -12.3540  -17.1640   29.3420 C.3    88  GLU88       0.1163
    108  CD       -13.3940  -17.5940   30.3610 C.2    88  GLU88       0.3649
    109  OE1      -14.1820  -16.7290   30.8050 O.co2  88  GLU88      -0.2457
    110  OE2      -13.4190  -18.7920   30.7220 O.co2  88  GLU88      -0.2457
    111  N         -9.6000  -16.3020   26.9160 N.am   89  PHE89      -0.1960
    112  CA        -8.2560  -16.7770   26.6010 C.3    89  PHE89       0.1771
    113  C         -8.0520  -18.1610   27.1920 C.2    89  PHE89       0.2620
    114  O         -8.2750  -18.3530   28.3920 O.2    89  PHE89      -0.2715
    115  CB        -7.2070  -15.7900   27.1300 C.3    89  PHE89       0.0574
    116  CG        -5.7620  -16.2210   26.9960 C.ar   89  PHE89      -0.0200
    117  CD1       -5.1550  -16.3070   25.7440 C.ar   89  PHE89      -0.0042
    118  CD2       -4.9970  -16.4990   28.1190 C.ar   89  PHE89      -0.0042
    119  CE1       -3.8210  -16.6980   25.6210 C.ar   89  PHE89      -0.0003
    120  CE2       -3.6540  -16.8740   27.9940 C.ar   89  PHE89      -0.0003
    121  CZ        -3.0790  -16.9760   26.7460 C.ar   89  PHE89      -0.0000
    122  N         -7.7140  -19.1420   26.3300 N.am   90  CYS90      -0.1954
    123  CA        -7.4850  -20.5140   26.7730 C.3    90  CYS90       0.1828
    124  C         -5.9710  -20.7190   26.8840 C.2    90  CYS90       0.2467
    125  O         -5.2930  -20.8700   25.8660 O.2    90  CYS90      -0.2730
    126  CB        -8.1630  -21.5240   25.8530 C.3    90  CYS90       0.0996
    127  SG        -9.9750  -21.3750   25.7970 S.3    90  CYS90      -0.0797
    128  N         -5.4250  -20.6050   28.1310 N.am   91  PRO91      -0.2715
    129  CA        -3.9630  -20.6320   28.3270 C.3    91  PRO91       0.1536
    130  C         -3.2010  -21.8190   27.7420 C.2    91  PRO91       0.2599
    131  O         -2.1310  -21.5980   27.1860 O.2    91  PRO91      -0.2715
    132  CB        -3.8090  -20.6010   29.8430 C.3    91  PRO91       0.0310
    133  CG        -5.0310  -19.9270   30.3220 C.3    91  PRO91       0.0237
    134  CD        -6.1210  -20.3580   29.4080 C.3    91  PRO91       0.0939
    135  N         -3.7260  -23.0350   27.8580 N.am   92  GLY92      -0.1941
    136  CA        -3.0330  -24.2140   27.3370 C.3    92  GLY92       0.2014
    137  C         -2.9580  -24.3140   25.8250 C.2    92  GLY92       0.2639
    138  O         -2.2050  -25.1320   25.2960 O.2    92  GLY92      -0.2714
    139  N         -3.7770  -23.5210   25.1290 N.am   93  GLY93      -0.1939
    140  CA        -3.8690  -23.5300   23.6650 C.3    93  GLY93       0.2014
    141  C         -4.4520  -24.8240   23.1570 C.2    93  GLY93       0.2638
    142  O         -5.0450  -25.5670   23.9390 O.2    93  GLY93      -0.2714
    143  N         -4.2380  -25.1290   21.8700 N.am   94  ALA94      -0.1977
    144  CA        -4.7930  -26.3080   21.1820 C.3    94  ALA94       0.1597
    145  C         -4.0450  -27.6110   21.4880 C.2    94  ALA94       0.2287
    146  O         -2.8310  -27.6130   21.6950 O.2    94  ALA94      -0.2864
    147  CB        -4.8420  -26.0760   19.6870 C.3    94  ALA94       0.0319
    148  N         -1.2130  -28.6670   19.2180 N.3    97  ALA97      -0.1245
    149  CA         0.0380  -27.9410   19.4600 C.3    97  ALA97       0.1562
    150  C          0.7370  -28.5130   20.6850 C.2    97  ALA97       0.2260
    151  O          1.9500  -28.5770   20.6910 O.2    97  ALA97      -0.2867
    152  CB        -0.2070  -26.4530   19.6210 C.3    97  ALA97       0.0290
    153  N          4.3940  -29.8350   20.8310 N.3   101  GLU101     -0.1245
    154  CA         5.3640  -29.3410   21.8470 C.3   101  GLU101      0.1567
    155  C          5.9860  -30.4840   22.6410 C.2   101  GLU101      0.2260
    156  O          7.1610  -30.4290   22.9660 O.2   101  GLU101     -0.2867
    157  CB         4.7020  -28.3790   22.8520 C.3   101  GLU101      0.0388
    158  CG         4.2810  -27.0240   22.3140 C.3   101  GLU101      0.1160
    159  CD         3.8480  -26.0680   23.4090 C.2   101  GLU101      0.3649
    160  OE1        2.6540  -26.0890   23.7960 O.co2 101  GLU101     -0.2457
    161  OE2        4.7250  -25.3380   23.9240 O.co2 101  GLU101     -0.2457
    162  N         -9.2840  -26.5980   22.7040 N.3   141  LEU141     -0.1245
    163  CA        -8.3240  -25.7720   23.4550 C.3   141  LEU141      0.1561
    164  C         -8.2940  -26.1650   24.9320 C.2   141  LEU141      0.2260
    165  O         -9.2020  -26.8380   25.4000 O.2   141  LEU141     -0.2867
    166  CB        -8.6260  -24.2710   23.2760 C.3   141  LEU141      0.0270
    167  CG        -8.9490  -23.8090   21.8340 C.3   141  LEU141      0.0019
    168  CD1       -9.4360  -22.3940   21.8180 C.3   141  LEU141      0.0001
    169  CD2       -7.7380  -23.9090   20.9410 C.3   141  LEU141      0.0001
    170  N        -13.7200  -24.9390   20.1790 N.3   151  ALA151     -0.1231
    171  CA       -13.4820  -23.6900   19.4570 C.3   151  ALA151      0.1694
    172  C        -13.8900  -23.7120   18.0080 C.2   151  ALA151      0.2592
    173  O        -14.2670  -24.7520   17.4680 O.2   151  ALA151     -0.2718
    174  CB       -11.9900  -23.3760   19.5200 C.3   151  ALA151      0.0304
    175  N        -13.7470  -22.5380   17.3670 N.am  152  ASP152     -0.1974
    176  CA       -13.9470  -22.2700   15.9360 C.3   152  ASP152      0.1709
    177  C        -15.2790  -22.7840   15.3970 C.2   152  ASP152      0.2293
    178  O        -15.3170  -23.8670   14.8090 O.2   152  ASP152     -0.2864
    179  CB       -12.7970  -22.8710   15.1080 C.3   152  ASP152      0.1436
    180  CG       -11.4880  -22.0970   15.1280 C.2   152  ASP152      0.3671
    181  OD1      -10.9430  -21.8700   16.2390 O.co2 152  ASP152     -0.2456
    182  OD2      -10.9510  -21.8090   14.0250 O.co2 152  ASP152     -0.2456
    183  N          8.1040  -26.0300   27.6670 N.3   283  VAL283     -0.1245
    184  CA         8.4270  -24.7270   27.0610 C.3   283  VAL283      0.1561
    185  C          9.7610  -24.1960   27.6110 C.2   283  VAL283      0.2260
    186  O         10.5440  -23.6600   26.8260 O.2   283  VAL283     -0.2867
    187  CB         7.3000  -23.6590   27.2270 C.3   283  VAL283      0.0252
    188  CG1        7.6220  -22.3850   26.4410 C.3   283  VAL283      0.0019
    189  CG2        5.9380  -24.2000   26.7970 C.3   283  VAL283      0.0019
@<TRIPOS>BOND
     1    21    19   ar
     2    21    23   ar
     3    19    18   ar
     4    13    14    1
     5    23    22   ar
     6    14    15    1
     7    14    17    1
     8    16    15    2
     9    18    17    1
    10    18    20   ar
    11    59    57   ar
    12    59    60   ar
    13    61    60    1
    14    22    20   ar
    15    57    55   ar
    16    60    58   ar
    17    50    51    1
    18    55    54    1
    19    55    56   ar
    20    58    56   ar
    21    51    54    1
    22    51    52    1
    23    52    53    2
    24    49    48    1
    25    69    68   ar
    26    48    47    1
    27    62    63    1
    28    66    67    1
    29    66    63    1
    30    68    67    1
    31    68    70   ar
    32   182   180   ar
    33    47    46    1
    34    63    64    1
    35    12    11    2
    36    11    10    1
    37   178   177    2
    38   179   180    1
    39   179   176    1
    40   180   181   ar
    41    24    25    1
    42    46    45    1
    43    93    91    1
    44   177   176    1
    45    45    42    1
    46    64    65    2
    47   176   175    1
    48    30    28    1
    49    43    42    1
    50    43    44    2
    51    10     9    1
    52    42    41    1
    53    25    28    1
    54    25    26    1
    55    91    90    1
    56    28    29    1
    57     9     3   am
    58   175   172   am
    59    26    27    2
    60   173   172    2
    61    90    92    1
    62    90    87    1
    63    41    38   am
    64   172   171    1
    65    39    38    2
    66    86    87    1
    67     3     4    2
    68     3     2    1
    69    38    37    1
    70    87    88    1
    71    77    76    1
    72    71    72    1
    73     1     2    1
    74    76    75    1
    75    76    78    1
    76   148   149    1
    77   171   174    1
    78   171   170    1
    79   149   152    1
    80   149   150    1
    81     2     5    1
    82    89    88    2
    83   147   144    1
    84    75    72    1
    85    37    40    1
    86    37    36    1
    87   101    99    1
    88     5     6    1
    89    72    73    1
    90   150   151    2
    91   153   154    1
    92    36    33   am
    93   169   167    1
    94   144   145    1
    95   144   143    1
    96    99    98    1
    97    73    74    2
    98   145   146    2
    99     6     7    1
   100     6     8    1
   101    85    83    1
   102    33    34    2
   103    33    32    1
   104   168   167    1
   105   167   166    1
   106   154   155    1
   107   154   157    1
   108   143   141   am
   109   158   157    1
   110   158   159    1
   111    35    32    1
   112    98   100    1
   113    98    95    1
   114   155   156    2
   115    32    31    1
   116   162   163    1
   117    84    83    1
   118    83    80    1
   119    94    95    1
   120   141   140    1
   121   141   142    2
   122   166   163    1
   123   159   160   ar
   124   159   161   ar
   125   163   164    1
   126    95    96    1
   127   140   139    1
   128    79    80    1
   129    82    81    2
   130    80    81    1
   131    97    96    2
   132    96   102   am
   133   164   165    2
   134   139   137   am
   135   138   137    2
   136   119   117   ar
   137   119   121   ar
   138   117   116   ar
   139   105   104    2
   140   102   103    1
   141   127   126    1
   142   137   136    1
   143   126   123    1
   144   125   124    2
   145   122   123    1
   146   122   113   am
   147   188   187    1
   148   104   111   am
   149   104   103    1
   150   112   111    1
   151   112   115    1
   152   112   113    1
   153   121   120   ar
   154   123   124    1
   155   189   187    1
   156   186   185    2
   157   124   128   am
   158   103   106    1
   159   116   115    1
   160   116   118   ar
   161   184   187    1
   162   184   185    1
   163   184   183    1
   164   131   130    2
   165   113   114    2
   166   136   135    1
   167   130   135   am
   168   130   129    1
   169   106   107    1
   170   120   118   ar
   171   128   129    1
   172   128   134    1
   173   129   132    1
   174   107   108    1
   175   134   133    1
   176   132   133    1
   177   108   110   ar
   178   108   109   ar
