@<TRIPOS>MOLECULE
tmp/4bc7B00.pdb
 216 209 0 0 0
SMALL
GASTEIGER

@<TRIPOS>ATOM
      1  N         28.0540   23.3310   83.4260 N.3    48  PHE48      -0.1241
      2  CA        29.3700   23.6690   82.8870 C.3    48  PHE48       0.1605
      3  C         30.4480   22.7110   83.3730 C.2    48  PHE48       0.2264
      4  O         31.2680   22.2830   82.5830 O.2    48  PHE48      -0.2867
      5  CB        29.6830   25.1560   83.1750 C.3    48  PHE48       0.0534
      6  CG        31.0180   25.6500   82.6410 C.ar   48  PHE48      -0.0203
      7  CD1       31.5610   25.1650   81.4380 C.ar   48  PHE48      -0.0042
      8  CD2       31.7140   26.6540   83.3220 C.ar   48  PHE48      -0.0042
      9  CE1       32.7970   25.6430   80.9550 C.ar   48  PHE48      -0.0003
     10  CE2       32.9430   27.1310   82.8340 C.ar   48  PHE48      -0.0003
     11  CZ        33.4780   26.6130   81.6490 C.ar   48  PHE48      -0.0000
     12  N         30.1460   19.6280   81.5420 N.3    51  TRP51      -0.1227
     13  CA        30.7010   19.8070   80.2180 C.3    51  TRP51       0.1737
     14  C         32.2300   19.7090   80.2170 C.2    51  TRP51       0.2595
     15  O         32.8170   19.1370   79.3080 O.2    51  TRP51      -0.2718
     16  CB        30.2280   21.1040   79.5690 C.3    51  TRP51       0.0564
     17  CG        30.7330   21.1940   78.1790 C.ar   51  TRP51       0.0003
     18  CD1       30.1600   20.6450   77.0710 C.ar   51  TRP51       0.0946
     19  CD2       31.9520   21.8170   77.7350 C.ar   51  TRP51       0.0152
     20  NE1       30.9340   20.9030   75.9630 N.ar   51  TRP51      -0.2442
     21  CE2       32.0400   21.6120   76.3400 C.ar   51  TRP51       0.0810
     22  CE3       32.9750   22.5290   78.3800 C.ar   51  TRP51       0.0012
     23  CZ2       33.1040   22.0940   75.5750 C.ar   51  TRP51       0.0191
     24  CZ3       34.0350   23.0150   77.6190 C.ar   51  TRP51       0.0001
     25  CH2       34.0860   22.7950   76.2270 C.ar   51  TRP51       0.0015
     26  N         32.8830   20.2910   81.2040 N.am   52  ILE52      -0.1980
     27  CA        34.3290   20.2900   81.1690 C.3    52  ILE52       0.1595
     28  C         34.7700   18.8510   81.3110 C.2    52  ILE52       0.2287
     29  O         35.5810   18.3440   80.5090 O.2    52  ILE52      -0.2864
     30  CB        34.9810   21.1120   82.3080 C.3    52  ILE52       0.0276
     31  CG1       34.5580   22.5720   82.2590 C.3    52  ILE52       0.0022
     32  CG2       36.4890   21.0530   82.2240 C.3    52  ILE52       0.0022
     33  CD1       35.3010   23.4990   83.2890 C.3    52  ILE52       0.0001
     34  N         36.9960   16.9580   78.6020 N.3    56  PHE56      -0.1241
     35  CA        38.4520   16.8220   78.7310 C.3    56  PHE56       0.1605
     36  C         38.9850   15.5690   79.4420 C.2    56  PHE56       0.2264
     37  O         40.1850   15.2880   79.3460 O.2    56  PHE56      -0.2867
     38  CB        39.0720   18.1000   79.2890 C.3    56  PHE56       0.0534
     39  CG        38.9510   19.2570   78.3490 C.ar   56  PHE56      -0.0203
     40  CD1       37.8160   20.0770   78.3670 C.ar   56  PHE56      -0.0042
     41  CD2       39.9360   19.5080   77.4030 C.ar   56  PHE56      -0.0042
     42  CE1       37.6800   21.1540   77.4760 C.ar   56  PHE56      -0.0003
     43  CE2       39.8000   20.5770   76.5040 C.ar   56  PHE56      -0.0003
     44  CZ        38.6630   21.3950   76.5490 C.ar   56  PHE56      -0.0000
     45  N         49.1430   38.1000   76.2310 N.3    95  HIS95      -0.1241
     46  CA        48.2810   37.0120   76.7080 C.3    95  HIS95       0.1621
     47  C         48.3320   35.7790   75.8350 C.2    95  HIS95       0.2264
     48  O         47.2950   35.1430   75.5590 O.2    95  HIS95      -0.2867
     49  CB        46.8590   37.4840   76.9620 C.3    95  HIS95       0.0745
     50  CG        46.7700   38.4220   78.1210 C.ar   95  HIS95       0.0817
     51  ND1       46.5220   38.0160   79.4130 N.ar   95  HIS95      -0.2268
     52  CD2       46.9880   39.7520   78.2000 C.ar   95  HIS95       0.1154
     53  CE1       46.5470   39.0600   80.2270 C.ar   95  HIS95       0.1986
     54  NE2       46.8190   40.1300   79.5120 N.ar   95  HIS95      -0.2212
     55  N         48.2540   39.1780   71.7160 N.3   147  VAL147     -0.1245
     56  CA        48.3720   37.7380   71.7310 C.3   147  VAL147      0.1561
     57  C         49.4370   37.2540   70.7530 C.2   147  VAL147      0.2260
     58  O         49.4660   36.0670   70.4420 O.2   147  VAL147     -0.2867
     59  CB        47.0330   37.0280   71.4330 C.3   147  VAL147      0.0252
     60  CG1       46.0100   37.3760   72.5000 C.3   147  VAL147      0.0019
     61  CG2       46.5250   37.4160   70.0570 C.3   147  VAL147      0.0019
     62  N         36.8970   41.6650   71.4190 N.3   209  ASP209     -0.1239
     63  CA        36.6250   41.0430   72.7180 C.3   209  ASP209      0.1674
     64  C         37.4620   41.6120   73.8590 C.2   209  ASP209      0.2266
     65  O         37.1180   41.4150   75.0030 O.2   209  ASP209     -0.2867
     66  CB        36.7790   39.5360   72.6610 C.3   209  ASP209      0.1410
     67  CG        35.6300   38.8580   71.9120 C.2   209  ASP209      0.3668
     68  OD1       34.5380   39.4690   71.8190 O.co2 209  ASP209     -0.2456
     69  OD2       35.8040   37.6960   71.4310 O.co2 209  ASP209     -0.2456
     70  N         29.6940   23.6460   73.8280 N.3   334  PHE334     -0.1241
     71  CA        30.4970   24.4910   74.7010 C.3   334  PHE334      0.1605
     72  C         29.6060   25.6390   75.1630 C.2   334  PHE334      0.2264
     73  O         29.5170   25.9180   76.3470 O.2   334  PHE334     -0.2867
     74  CB        31.7160   25.0170   73.9580 C.3   334  PHE334      0.0534
     75  CG        32.7490   25.7050   74.8360 C.ar  334  PHE334     -0.0203
     76  CD1       32.4440   26.1420   76.1310 C.ar  334  PHE334     -0.0042
     77  CD2       34.0530   25.9140   74.3480 C.ar  334  PHE334     -0.0042
     78  CE1       33.4100   26.7770   76.9250 C.ar  334  PHE334     -0.0003
     79  CE2       35.0420   26.5540   75.1290 C.ar  334  PHE334     -0.0003
     80  CZ        34.7130   26.9890   76.4170 C.ar  334  PHE334     -0.0000
     81  N         32.4610   34.2040   73.4460 N.3   393  THR393     -0.1218
     82  CA        33.6740   34.9390   72.9990 C.3   393  THR393      0.1862
     83  C         34.2290   35.8910   74.0750 C.2   393  THR393      0.2287
     84  O         35.4360   36.1710   74.0990 O.2   393  THR393     -0.2866
     85  CB        33.4960   35.7270   71.6640 C.3   393  THR393      0.1770
     86  OG1       32.3870   36.6370   71.7390 O.3   393  THR393     -0.2211
     87  CG2       33.3290   34.7780   70.4740 C.3   393  THR393      0.0375
     88  N         35.7720   33.7160   77.6980 N.3   396  ILE396     -0.1231
     89  CA        36.6900   32.6180   77.3730 C.3   396  ILE396      0.1692
     90  C         38.0250   32.8110   77.9730 C.2   396  ILE396      0.2591
     91  O         38.6250   31.8650   78.4510 O.2   396  ILE396     -0.2718
     92  CB        36.9590   32.5130   75.8650 C.3   396  ILE396      0.0266
     93  CG1       35.8900   33.2930   75.1260 C.3   396  ILE396      0.0019
     94  CG2       37.0420   31.0310   75.4230 C.3   396  ILE396      0.0020
     95  CD1       34.5330   33.2270   75.8780 C.3   396  ILE396      0.0001
     96  N         38.5090   34.0420   77.9430 N.am  397  ALA397     -0.1980
     97  CA        39.8040   34.3110   78.5200 C.3   397  ALA397      0.1597
     98  C         39.8280   34.0400   80.0180 C.2   397  ALA397      0.2287
     99  O         40.8820   33.7710   80.5390 O.2   397  ALA397     -0.2864
    100  CB        40.2420   35.7040   78.2040 C.3   397  ALA397      0.0319
    101  N         38.0560   31.4800   81.2420 N.3   399  MET399     -0.1230
    102  CA        38.0370   30.0350   81.2670 C.3   399  MET399      0.1702
    103  C         39.4080   29.4270   81.0980 C.2   399  MET399      0.2592
    104  O         39.7200   28.4220   81.7300 O.2   399  MET399     -0.2718
    105  CB        37.1460   29.5170   80.1770 C.3   399  MET399      0.0401
    106  CG        35.7320   29.8820   80.4270 C.3   399  MET399      0.0596
    107  SD        34.7770   29.2510   79.0720 S.3   399  MET399     -0.1393
    108  CE        33.2430   29.9940   79.5850 C.3   399  MET399      0.0692
    109  N         40.2200   30.0460   80.2540 N.am  400  ARG400     -0.1980
    110  CA        41.5400   29.5600   79.9810 C.3   400  ARG400      0.1597
    111  C         42.3730   29.4270   81.2650 C.2   400  ARG400      0.2287
    112  O         43.1170   28.4580   81.4000 O.2   400  ARG400     -0.2864
    113  CB        42.2240   30.4730   78.9710 C.3   400  ARG400      0.0334
    114  CG        43.3440   29.7480   78.2410 C.3   400  ARG400      0.0492
    115  CD        44.6990   29.9710   78.8190 C.3   400  ARG400      0.2205
    116  NE        45.1320   31.3280   78.5860 N.pl3 400  ARG400     -0.0865
    117  CZ        45.4510   31.8600   77.4030 C.cat 400  ARG400      0.5346
    118  NH1       45.3960   31.1750   76.3000 N.pl3 400  ARG400      0.1354
    119  NH2       45.8310   33.1030   77.3100 N.pl3 400  ARG400      0.1354
    120  N         41.0880   29.0250   84.3360 N.3   402  LEU402     -0.1231
    121  CA        40.4880   27.9270   85.0520 C.3   402  LEU402      0.1693
    122  C         41.0670   26.6040   84.5520 C.2   402  LEU402      0.2592
    123  O         41.6750   25.8720   85.3140 O.2   402  LEU402     -0.2718
    124  CB        38.9690   27.9870   84.9310 C.3   402  LEU402      0.0284
    125  CG        38.2040   26.7720   85.4170 C.3   402  LEU402      0.0019
    126  CD1       38.1930   26.7150   86.9230 C.3   402  LEU402      0.0001
    127  CD2       36.8170   26.8070   84.8640 C.3   402  LEU402      0.0001
    128  N         40.8950   26.3260   83.2670 N.am  403  GLY403     -0.1957
    129  CA        41.6420   25.2730   82.5850 C.3   403  GLY403      0.1869
    130  C         43.0530   24.9930   83.0840 C.2   403  GLY403      0.2309
    131  O         43.3840   23.8570   83.3670 O.2   403  GLY403     -0.2863
    132  N         44.8090   21.8510   81.9810 N.3   408  ILE408     -0.1245
    133  CA        44.3290   22.0200   80.6170 C.3   408  ILE408      0.1561
    134  C         44.9430   23.2530   79.9830 C.2   408  ILE408      0.2260
    135  O         44.8400   24.3580   80.5290 O.2   408  ILE408     -0.2867
    136  CB        42.8170   22.1200   80.5310 C.3   408  ILE408      0.0252
    137  CG1       42.1690   20.8840   81.1490 C.3   408  ILE408      0.0019
    138  CG2       42.4080   22.2670   79.0690 C.3   408  ILE408      0.0019
    139  CD1       40.6990   21.0440   81.4350 C.3   408  ILE408      0.0001
    140  N         44.8760   25.6400   76.6550 N.3   410  GLY410     -0.1210
    141  CA        44.1300   26.0250   75.4680 C.3   410  GLY410      0.1956
    142  C         44.5170   27.3800   74.9190 C.2   410  GLY410      0.2612
    143  O         45.0360   28.2300   75.6300 O.2   410  GLY410     -0.2717
    144  N         44.2450   27.5810   73.6420 N.am  411  GLU411     -0.1965
    145  CA        44.4820   28.8710   73.0040 C.3   411  GLU411      0.1733
    146  C         43.5520   28.9970   71.8260 C.2   411  GLU411      0.2617
    147  O         42.9090   28.0230   71.4350 O.2   411  GLU411     -0.2715
    148  CB        45.9410   28.9980   72.5290 C.3   411  GLU411      0.0429
    149  CG        46.3120   30.3790   72.0090 C.3   411  GLU411      0.1163
    150  CD        47.5070   30.9520   72.7480 C.2   411  GLU411      0.3649
    151  OE1       48.6380   30.7290   72.3540 O.co2 411  GLU411     -0.2457
    152  OE2       47.3650   31.6120   73.7580 O.co2 411  GLU411     -0.2457
    153  N         43.5090   30.2020   71.2630 N.am  412  SER412     -0.1950
    154  CA        42.7210   30.4930   70.0950 C.3   412  SER412      0.1924
    155  C         43.6740   30.9710   69.0520 C.2   412  SER412      0.2314
    156  O         44.7230   31.5090   69.3770 O.2   412  SER412     -0.2863
    157  CB        41.8320   31.6640   70.4060 C.3   412  SER412      0.2116
    158  OG        42.7210   32.7220   70.7590 O.3   412  SER412     -0.2180
    159  N         40.1740   19.2470   72.4800 N.3   447  LEU447     -0.1245
    160  CA        39.1120   20.0980   71.9640 C.3   447  LEU447      0.1561
    161  C         39.6410   20.7840   70.7090 C.2   447  LEU447      0.2260
    162  O         40.6740   21.4500   70.7340 O.2   447  LEU447     -0.2867
    163  CB        38.6750   21.1340   72.9970 C.3   447  LEU447      0.0270
    164  CG        37.5080   22.0410   72.6140 C.3   447  LEU447      0.0019
    165  CD1       36.2100   21.2430   72.3150 C.3   447  LEU447      0.0001
    166  CD2       37.2720   23.0790   73.7190 C.3   447  LEU447      0.0001
    167  N         37.6370   31.3900   63.4150 N.3   463  TYR463     -0.1241
    168  CA        38.2150   31.2700   64.7590 C.3   463  TYR463      0.1605
    169  C         38.3640   29.8170   65.1670 C.2   463  TYR463      0.2264
    170  O         37.4640   29.0140   64.9330 O.2   463  TYR463     -0.2867
    171  CB        37.3160   31.9730   65.7760 C.3   463  TYR463      0.0534
    172  CG        38.0660   32.9810   66.5610 C.ar  463  TYR463     -0.0201
    173  CD1       38.2800   34.2340   66.0450 C.ar  463  TYR463     -0.0009
    174  CD2       38.5740   32.6790   67.8190 C.ar  463  TYR463     -0.0009
    175  CE1       38.9920   35.1850   66.7530 C.ar  463  TYR463      0.0417
    176  CE2       39.3150   33.6170   68.5440 C.ar  463  TYR463      0.0417
    177  CZ        39.5270   34.8700   67.9820 C.ar  463  TYR463      0.1957
    178  OH        40.2200   35.8470   68.6410 O.3   463  TYR463     -0.2866
    179  N         39.4970   27.1500   68.4510 N.3   465  TYR465     -0.1227
    180  CA        39.8580   26.8550   69.8130 C.3   465  TYR465      0.1736
    181  C         40.4470   25.4670   69.8720 C.2   465  TYR465      0.2595
    182  O         39.9120   24.4830   69.3130 O.2   465  TYR465     -0.2718
    183  CB        38.6610   26.9460   70.7510 C.3   465  TYR465      0.0548
    184  CG        38.1490   28.3280   70.9700 C.ar  465  TYR465     -0.0200
    185  CD1       38.8180   29.4180   70.4540 C.ar  465  TYR465     -0.0009
    186  CD2       37.0060   28.5600   71.7390 C.ar  465  TYR465     -0.0009
    187  CE1       38.3480   30.7230   70.6520 C.ar  465  TYR465      0.0417
    188  CE2       36.5300   29.8600   71.9580 C.ar  465  TYR465      0.0417
    189  CZ        37.2190   30.9370   71.4080 C.ar  465  TYR465      0.1957
    190  OH        36.8140   32.2390   71.5960 O.3   465  TYR465     -0.2866
    191  N         41.5520   25.4070   70.5920 N.am  466  PHE466     -0.1962
    192  CA        42.3430   24.2020   70.7080 C.3   466  PHE466      0.1771
    193  C         42.7520   24.0300   72.1820 C.2   466  PHE466      0.2619
    194  O         43.2490   24.9740   72.8160 O.2   466  PHE466     -0.2715
    195  CB        43.5320   24.3330   69.7430 C.3   466  PHE466      0.0574
    196  CG        44.7290   23.5160   70.1060 C.ar  466  PHE466     -0.0200
    197  CD1       44.5930   22.2120   70.5740 C.ar  466  PHE466     -0.0042
    198  CD2       45.9910   24.0340   69.9090 C.ar  466  PHE466     -0.0042
    199  CE1       45.6750   21.4770   70.9020 C.ar  466  PHE466     -0.0003
    200  CE2       47.0820   23.3040   70.2170 C.ar  466  PHE466     -0.0003
    201  CZ        46.9290   22.0130   70.7220 C.ar  466  PHE466     -0.0000
    202  N         42.5100   22.8360   72.7260 N.am  467  ALA467     -0.1977
    203  CA        42.7780   22.5770   74.1400 C.3   467  ALA467      0.1597
    204  C         42.8120   21.0960   74.4970 C.2   467  ALA467      0.2287
    205  O         41.9750   20.3040   74.0430 O.2   467  ALA467     -0.2864
    206  CB        41.7450   23.3160   75.0480 C.3   467  ALA467      0.0319
    207  N         44.6910   39.3560   64.6890 N.3   502  HIS502     -0.1241
    208  CA        45.6080   39.2710   65.8420 C.3   502  HIS502      0.1621
    209  C         46.9380   39.9050   65.5600 C.2   502  HIS502      0.2264
    210  O         47.5250   40.5770   66.4410 O.2   502  HIS502     -0.2867
    211  CB        45.8380   37.8250   66.2960 C.3   502  HIS502      0.0745
    212  CG        44.7360   37.2990   67.1560 C.ar  502  HIS502      0.0817
    213  ND1       44.6290   35.9700   67.5000 N.ar  502  HIS502     -0.2268
    214  CD2       43.6740   37.9310   67.7260 C.ar  502  HIS502      0.1154
    215  CE1       43.5570   35.8110   68.2530 C.ar  502  HIS502      0.1986
    216  NE2       42.9610   36.9850   68.4010 N.ar  502  HIS502     -0.2212
@<TRIPOS>BOND
     1   167   168    1
     2   207   208    1
     3   168   169    1
     4   168   171    1
     5   170   169    2
     6   209   208    1
     7   209   210    2
     8   171   172    1
     9   208   211    1
    10   173   172   ar
    11   173   175   ar
    12   211   212    1
    13   172   174   ar
    14   175   177   ar
    15   212   213   ar
    16   212   214   ar
    17   213   215   ar
    18   214   216   ar
    19   174   176   ar
    20   177   176   ar
    21   177   178    1
    22   215   216   ar
    23   179   180    1
    24   155   156    2
    25   155   154    1
    26   182   181    2
    27   195   196    1
    28   195   192    1
    29   180   181    1
    30   180   183    1
    31   181   191   am
    32   198   196   ar
    33   198   200   ar
    34    61    59    1
    35   154   157    1
    36   154   153    1
    37   196   197   ar
    38   200   201   ar
    39   157   158    1
    40    58    57    2
    41   185   187   ar
    42   185   184   ar
    43    87    85    1
    44   197   199   ar
    45   191   192    1
    46   187   189   ar
    47   192   193    1
    48   161   162    2
    49   161   160    1
    50   201   199   ar
    51   183   184    1
    52    57    56    1
    53   184   186   ar
    54   153   146   am
    55   189   190    1
    56   189   188   ar
    57    62    63    1
    58    69    67   ar
    59    59    56    1
    60    59    60    1
    61   147   146    2
    62    85    86    1
    63    85    82    1
    64    55    56    1
    65   186   188   ar
    66    68    67   ar
    67   146   145    1
    68    67    66    1
    69   160   159    1
    70   160   163    1
    71   149   148    1
    72   149   150    1
    73   193   202   am
    74   193   194    2
    75   165   164    1
    76   151   150   ar
    77   148   145    1
    78   164   163    1
    79   164   166    1
    80    66    63    1
    81    63    64    1
    82   202   203    1
    83   150   152   ar
    84    82    81    1
    85    82    83    1
    86   145   144    1
    87   144   142   am
    88    70    71    1
    89    64    65    2
    90    74    71    1
    91    74    75    1
    92   205   204    2
    93    83    84    2
    94   203   204    1
    95   203   206    1
    96    77    75   ar
    97    77    79   ar
    98    71    72    1
    99    75    76   ar
   100   142   141    1
   101   142   143    2
   102    93    92    1
   103    93    95    1
   104    79    80   ar
   105    72    73    2
   106    94    92    1
   107   141   140    1
   108    48    47    2
   109    23    25   ar
   110    23    21   ar
   111    47    46    1
   112    92    89    1
   113    20    21   ar
   114    20    18   ar
   115    76    78   ar
   116    25    24   ar
   117    45    46    1
   118   118   117    1
   119    21    19   ar
   120    80    78   ar
   121    43    44   ar
   122    43    41   ar
   123    44    42   ar
   124    46    49    1
   125    49    50    1
   126    18    17   ar
   127   119   117    1
   128    89    88    1
   129    89    90    1
   130    41    39   ar
   131   117   116    2
   132    42    40   ar
   133    24    22   ar
   134    19    17   ar
   135    19    22   ar
   136    96    90   am
   137    96    97    1
   138    90    91    2
   139    50    52   ar
   140    50    51   ar
   141    17    16    1
   142    52    54   ar
   143   100    97    1
   144   114   115    1
   145   114   113    1
   146    39    40   ar
   147    39    38    1
   148    97    98    1
   149   116   115    1
   150    34    35    1
   151    35    38    1
   152    35    36    1
   153   113   110    1
   154   138   136    1
   155   107   108    1
   156   107   106    1
   157    15    14    2
   158    37    36    2
   159    51    53   ar
   160    54    53   ar
   161    16    13    1
   162   110   109    1
   163   110   111    1
   164   134   135    2
   165   134   133    1
   166    98    99    2
   167   105   106    1
   168   105   102    1
   169    14    13    1
   170    14    26   am
   171    13    12    1
   172   109   103   am
   173    29    28    2
   174   136   133    1
   175   136   137    1
   176   133   132    1
   177     9     7   ar
   178     9    11   ar
   179   103   102    1
   180   103   104    2
   181   137   139    1
   182    27    26    1
   183    27    28    1
   184    27    30    1
   185   101   102    1
   186   111   112    2
   187     7     6   ar
   188    11    10   ar
   189    32    30    1
   190    31    30    1
   191    31    33    1
   192     4     3    2
   193   129   130    1
   194   129   128    1
   195     6     5    1
   196     6     8   ar
   197    10     8   ar
   198     2     5    1
   199     2     3    1
   200     2     1    1
   201   130   131    2
   202   128   122   am
   203   120   121    1
   204   122   121    1
   205   122   123    2
   206   127   125    1
   207   124   121    1
   208   124   125    1
   209   125   126    1
