@<TRIPOS>MOLECULE
tmp/4bcbA00.pdb
 159 152 0 0 0
SMALL
GASTEIGER

@<TRIPOS>ATOM
      1  N         48.8420   42.4830   88.6380 N.3   173  PHE173     -0.1241
      2  CA        48.2440   41.2880   89.2700 C.3   173  PHE173      0.1605
      3  C         49.0140   40.9230   90.5470 C.2   173  PHE173      0.2264
      4  O         49.3940   39.7370   90.7810 O.2   173  PHE173     -0.2867
      5  CB        48.2450   40.1120   88.2950 C.3   173  PHE173      0.0534
      6  CG        47.6580   40.4340   86.9560 C.ar  173  PHE173     -0.0203
      7  CD1       46.4250   41.0870   86.8610 C.ar  173  PHE173     -0.0042
      8  CD2       48.3490   40.1060   85.7970 C.ar  173  PHE173     -0.0042
      9  CE1       45.8750   41.4040   85.5850 C.ar  173  PHE173     -0.0003
     10  CE2       47.7980   40.4040   84.5210 C.ar  173  PHE173     -0.0003
     11  CZ        46.5510   41.0600   84.4490 C.ar  173  PHE173     -0.0000
     12  N         52.2090   32.3920   89.0170 N.3   235  MET235     -0.1245
     13  CA        52.1330   33.6800   89.7060 C.3   235  MET235      0.1570
     14  C         52.0370   33.3760   91.2010 C.2   235  MET235      0.2261
     15  O         51.0630   32.7310   91.6430 O.2   235  MET235     -0.2867
     16  CB        50.8610   34.4120   89.2510 C.3   235  MET235      0.0387
     17  CG        50.8450   34.6520   87.7720 C.3   235  MET235      0.0595
     18  SD        49.2370   35.1250   87.0400 S.3   235  MET235     -0.1393
     19  CE        49.0730   36.8390   87.4860 C.3   235  MET235      0.0692
     20  N         49.4540   30.4140   91.5800 N.3   252  ARG252     -0.1245
     21  CA        48.3770   30.1380   90.6360 C.3   252  ARG252      0.1563
     22  C         48.9720   29.9260   89.2520 C.2   252  ARG252      0.2260
     23  O         50.0030   30.5130   88.9300 O.2   252  ARG252     -0.2867
     24  CB        47.4230   31.3360   90.5720 C.3   252  ARG252      0.0307
     25  CG        46.7750   31.7050   91.9210 C.3   252  ARG252      0.0489
     26  CD        45.3860   31.1880   92.0850 C.3   252  ARG252      0.2205
     27  NE        44.8010   31.7590   93.3030 N.pl3 252  ARG252     -0.0865
     28  CZ        43.8200   31.2070   94.0170 C.cat 252  ARG252      0.5346
     29  NH1       43.2920   30.0470   93.6650 N.pl3 252  ARG252      0.1354
     30  NH2       43.3770   31.8320   95.1110 N.pl3 252  ARG252      0.1354
     31  N         46.7750   30.0070   85.7710 N.3   254  GLY254     -0.1210
     32  CA        45.4610   30.0670   85.1070 C.3   254  GLY254      0.1956
     33  C         44.4320   30.5160   86.1290 C.2   254  GLY254      0.2612
     34  O         44.7590   30.8350   87.2910 O.2   254  GLY254     -0.2717
     35  N         43.1690   30.4420   85.7240 N.am  255  CYS255     -0.1970
     36  CA        42.0770   31.0500   86.4630 C.3   255  CYS255      0.1712
     37  C         41.2240   30.0900   87.3040 C.2   255  CYS255      0.2296
     38  O         40.2540   30.5450   87.9210 O.2   255  CYS255     -0.2864
     39  CB        41.1650   31.8130   85.4750 C.3   255  CYS255      0.0983
     40  SG        41.9010   33.4080   84.9530 S.3   255  CYS255     -0.0798
     41  N         26.8540   35.9560   82.2100 N.3   473  TYR473     -0.1241
     42  CA        28.2990   35.8920   82.1440 C.3   473  TYR473      0.1605
     43  C         28.6320   34.4330   81.8040 C.2   473  TYR473      0.2264
     44  O         28.8110   34.1170   80.6270 O.2   473  TYR473     -0.2867
     45  CB        28.9110   36.3650   83.4720 C.3   473  TYR473      0.0534
     46  CG        30.4130   36.4010   83.5180 C.ar  473  TYR473     -0.0201
     47  CD1       31.1300   37.4600   82.9220 C.ar  473  TYR473     -0.0009
     48  CD2       31.1370   35.3950   84.1920 C.ar  473  TYR473     -0.0009
     49  CE1       32.4990   37.5220   83.0040 C.ar  473  TYR473      0.0417
     50  CE2       32.5350   35.4450   84.2770 C.ar  473  TYR473      0.0417
     51  CZ        33.2040   36.5220   83.7030 C.ar  473  TYR473      0.1957
     52  OH        34.5970   36.5470   83.7900 O.3   473  TYR473     -0.2866
     53  N         34.3090   31.0670   84.8200 N.3   476  PHE476     -0.1241
     54  CA        35.3520   31.4870   85.7490 C.3   476  PHE476      0.1605
     55  C         34.9300   31.4410   87.2160 C.2   476  PHE476      0.2264
     56  O         35.4880   32.1730   88.0450 O.2   476  PHE476     -0.2867
     57  CB        35.9240   32.8870   85.3550 C.3   476  PHE476      0.0534
     58  CG        36.5840   32.8650   83.9930 C.ar  476  PHE476     -0.0203
     59  CD1       37.8960   32.3980   83.8730 C.ar  476  PHE476     -0.0042
     60  CD2       35.8500   33.1270   82.8470 C.ar  476  PHE476     -0.0042
     61  CE1       38.5180   32.2930   82.6250 C.ar  476  PHE476     -0.0003
     62  CE2       36.4520   33.0030   81.5810 C.ar  476  PHE476     -0.0003
     63  CZ        37.7830   32.6110   81.4640 C.ar  476  PHE476     -0.0000
     64  N         32.5120   32.6070   88.6110 N.3   478  ILE478     -0.1245
     65  CA        31.9230   33.8900   89.0290 C.3   478  ILE478      0.1561
     66  C         30.4070   33.7180   89.2030 C.2   478  ILE478      0.2260
     67  O         29.7190   33.2830   88.2800 O.2   478  ILE478     -0.2867
     68  CB        32.2270   35.0270   88.0390 C.3   478  ILE478      0.0252
     69  CG1       33.7480   35.2130   87.8190 C.3   478  ILE478      0.0019
     70  CG2       31.5810   36.3640   88.5210 C.3   478  ILE478      0.0019
     71  CD1       34.5130   35.5360   89.0830 C.3   478  ILE478      0.0001
     72  N         33.1190   40.8800   78.8310 N.3   554  SER554     -0.1202
     73  CA        34.3410   40.0840   78.9360 C.3   554  SER554      0.2020
     74  C         33.9490   38.6680   78.5080 C.2   554  SER554      0.2618
     75  O         33.5740   38.4760   77.3360 O.2   554  SER554     -0.2717
     76  CB        34.9610   40.1820   80.3510 C.3   554  SER554      0.2103
     77  OG        36.3010   39.7110   80.3180 O.3   554  SER554     -0.2182
     78  N         34.0260   37.6940   79.4080 N.am  555  ASN555     -0.1974
     79  CA        33.4260   36.3670   79.1230 C.3   555  ASN555      0.1688
     80  C         31.9300   36.4300   78.7530 C.2   555  ASN555      0.2292
     81  O         31.4480   35.5880   77.9890 O.2   555  ASN555     -0.2864
     82  CB        33.6810   35.4350   80.3330 C.3   555  ASN555      0.1181
     83  CG        33.0630   34.0360   80.1630 C.2   555  ASN555      0.2629
     84  OD1       33.4530   33.2680   79.2940 O.2   555  ASN555     -0.2716
     85  ND2       32.1040   33.7080   81.0400 N.am  555  ASN555     -0.0877
     86  N         35.6560   38.6550   74.5540 N.3   580  VAL580     -0.1245
     87  CA        36.6570   37.7650   73.9290 C.3   580  VAL580      0.1561
     88  C         36.0210   37.1730   72.6710 C.2   580  VAL580      0.2260
     89  O         35.0870   36.3610   72.7410 O.2   580  VAL580     -0.2867
     90  CB        37.0670   36.6520   74.8590 C.3   580  VAL580      0.0252
     91  CG1       38.3320   35.9350   74.3000 C.3   580  VAL580      0.0019
     92  CG2       37.3310   37.2270   76.2270 C.3   580  VAL580      0.0019
     93  N         47.3110   38.8080   79.5040 N.3   591  ILE591     -0.1245
     94  CA        47.0940   37.7510   80.4980 C.3   591  ILE591      0.1561
     95  C         46.1640   36.6360   79.9490 C.2   591  ILE591      0.2260
     96  O         45.7070   35.7680   80.6920 O.2   591  ILE591     -0.2867
     97  CB        46.5460   38.3960   81.8180 C.3   591  ILE591      0.0252
     98  CG1       46.6660   37.4670   83.0200 C.3   591  ILE591      0.0019
     99  CG2       45.0850   38.8760   81.6410 C.3   591  ILE591      0.0019
    100  CD1       48.0900   36.9380   83.3360 C.3   591  ILE591      0.0001
    101  N         46.0130   32.9100   80.8410 N.3   594  ALA594     -0.1231
    102  CA        45.3990   32.4330   82.0690 C.3   594  ALA594      0.1694
    103  C         43.9980   31.8520   81.8810 C.2   594  ALA594      0.2592
    104  O         43.5060   31.1640   82.7970 O.2   594  ALA594     -0.2718
    105  CB        45.3790   33.5610   83.1440 C.3   594  ALA594      0.0304
    106  N         43.3650   32.1310   80.7320 N.am  595  TRP595     -0.1976
    107  CA        41.9500   31.7460   80.5230 C.3   595  TRP595      0.1640
    108  C         41.7820   30.3490   79.9360 C.2   595  TRP595      0.2290
    109  O         40.6480   29.8860   79.7840 O.2   595  TRP595     -0.2864
    110  CB        41.1760   32.7430   79.6600 C.3   595  TRP595      0.0576
    111  CG        41.4340   34.1980   80.0350 C.ar  595  TRP595      0.0006
    112  CD1       41.7740   34.6870   81.2720 C.ar  595  TRP595      0.0946
    113  CD2       41.4140   35.3190   79.1470 C.ar  595  TRP595      0.0152
    114  NE1       41.9490   36.0650   81.2020 N.ar  595  TRP595     -0.2442
    115  CE2       41.7510   36.4670   79.9070 C.ar  595  TRP595      0.0810
    116  CE3       41.1680   35.4600   77.7630 C.ar  595  TRP595      0.0012
    117  CZ2       41.8340   37.7590   79.3380 C.ar  595  TRP595      0.0191
    118  CZ3       41.2440   36.7250   77.2000 C.ar  595  TRP595      0.0001
    119  CH2       41.5970   37.8570   77.9740 C.ar  595  TRP595      0.0015
    120  N         38.6460   27.7890   78.8050 N.3   599  TYR599     -0.1241
    121  CA        38.3650   27.6830   77.3660 C.3   599  TYR599      0.1605
    122  C         39.0690   26.5440   76.6310 C.2   599  TYR599      0.2264
    123  O         38.5630   26.0900   75.6070 O.2   599  TYR599     -0.2867
    124  CB        38.7560   28.9850   76.6470 C.3   599  TYR599      0.0534
    125  CG        38.0190   30.2290   77.1240 C.ar  599  TYR599     -0.0201
    126  CD1       36.6500   30.1960   77.4550 C.ar  599  TYR599     -0.0009
    127  CD2       38.6640   31.4650   77.1550 C.ar  599  TYR599     -0.0009
    128  CE1       35.9460   31.3910   77.8410 C.ar  599  TYR599      0.0417
    129  CE2       37.9730   32.6550   77.5100 C.ar  599  TYR599      0.0417
    130  CZ        36.6280   32.5980   77.8620 C.ar  599  TYR599      0.1957
    131  OH        35.9620   33.7530   78.2120 O.3   599  TYR599     -0.2866
    132  N         43.1800   43.9640   79.6050 N.3   643  ARG643     -0.1231
    133  CA        42.6670   42.6770   80.0270 C.3   643  ARG643      0.1694
    134  C         42.2180   41.8420   78.8480 C.2   643  ARG643      0.2591
    135  O         42.6960   40.6980   78.6820 O.2   643  ARG643     -0.2718
    136  CB        41.5190   42.8380   81.0610 C.3   643  ARG643      0.0321
    137  CG        41.0030   41.4930   81.6420 C.3   643  ARG643      0.0489
    138  CD        42.0610   40.8280   82.5740 C.3   643  ARG643      0.2205
    139  NE        42.3000   41.6910   83.7430 N.pl3 643  ARG643     -0.0865
    140  CZ        41.5480   41.7200   84.8470 C.cat 643  ARG643      0.5346
    141  NH1       40.5270   40.8760   85.0170 N.pl3 643  ARG643      0.1354
    142  NH2       41.8310   42.5970   85.8260 N.pl3 643  ARG643      0.1354
    143  N         41.2760   42.3890   78.0750 N.am  644  VAL644     -0.1980
    144  CA        40.8120   41.7770   76.8370 C.3   644  VAL644      0.1595
    145  C         41.2140   42.7280   75.7290 C.2   644  VAL644      0.2287
    146  O         40.5470   43.7380   75.4800 O.2   644  VAL644     -0.2864
    147  CB        39.2660   41.4680   76.8490 C.3   644  VAL644      0.0276
    148  CG1       38.7830   40.9270   75.4880 C.3   644  VAL644      0.0022
    149  CG2       38.9230   40.4990   77.9580 C.3   644  VAL644      0.0022
    150  N         39.4640   47.9740   80.7460 N.3   680  HIS680     -0.1241
    151  CA        38.4930   46.8630   80.8310 C.3   680  HIS680      0.1621
    152  C         37.2310   47.2700   81.5940 C.2   680  HIS680      0.2264
    153  O         36.1170   46.7580   81.3160 O.2   680  HIS680     -0.2867
    154  CB        39.1550   45.6460   81.4980 C.3   680  HIS680      0.0745
    155  CG        38.3960   44.3650   81.3010 C.ar  680  HIS680      0.0817
    156  ND1       38.0490   43.8910   80.0540 N.ar  680  HIS680     -0.2268
    157  CD2       37.9160   43.4670   82.1910 C.ar  680  HIS680      0.1154
    158  CE1       37.3910   42.7490   80.1870 C.ar  680  HIS680      0.1986
    159  NE2       37.2910   42.4770   81.4750 N.ar  680  HIS680     -0.2212
@<TRIPOS>BOND
     1    88    89    2
     2    88    87    1
     3    87    86    1
     4    87    90    1
     5    91    90    1
     6    90    92    1
     7   146   145    2
     8   148   147    1
     9   123   122    2
    10   145   144    1
    11   122   121    1
    12   124   125    1
    13   124   121    1
    14   144   147    1
    15   144   143    1
    16   147   149    1
    17   125   127   ar
    18   125   126   ar
    19   127   129   ar
    20   118   116   ar
    21   118   119   ar
    22    75    74    2
    23   121   120    1
    24   126   128   ar
    25   129   130   ar
    26   116   113   ar
    27   128   130   ar
    28   130   131    1
    29   119   117   ar
    30    81    80    2
    31   143   134   am
    32    74    73    1
    33    74    78   am
    34   135   134    2
    35    80    79    1
    36    72    73    1
    37   134   133    1
    38    73    76    1
    39    79    78    1
    40    79    82    1
    41   113   115   ar
    42   113   111   ar
    43    84    83    2
    44   117   115   ar
    45    93    94    1
    46   132   133    1
    47   110   111    1
    48   110   107    1
    49   109   108    2
    50   115   114   ar
    51   108   107    1
    52    95    94    1
    53    95    96    2
    54   133   136    1
    55   111   112   ar
    56   156   158   ar
    57   156   155   ar
    58    83    82    1
    59    83    85   am
    60   158   159   ar
    61    77    76    1
    62    94    97    1
    63   107   106    1
    64    44    43    2
    65   106   103   am
    66   150   151    1
    67   151   154    1
    68   151   152    1
    69   101   102    1
    70   136   137    1
    71   114   112   ar
    72   155   154    1
    73   155   157   ar
    74   153   152    2
    75    63    62   ar
    76    63    61   ar
    77   159   157   ar
    78    62    60   ar
    79    99    97    1
    80   137   138    1
    81    43    42    1
    82    97    98    1
    83   103   102    1
    84   103   104    2
    85   102   105    1
    86    42    41    1
    87    42    45    1
    88   138   139    1
    89    61    59   ar
    90    60    58   ar
    91    47    49   ar
    92    47    46   ar
    93    49    51   ar
    94    98   100    1
    95    45    46    1
    96    46    48   ar
    97    51    52    1
    98    51    50   ar
    99   139   140    2
   100    59    58   ar
   101    58    57    1
   102    48    50   ar
   103    11    10   ar
   104    11     9   ar
   105    10     8   ar
   106    53    54    1
   107   140   141    1
   108   140   142    1
   109    40    39    1
   110    32    31    1
   111    32    33    1
   112    57    54    1
   113    39    36    1
   114     9     7   ar
   115    35    33   am
   116    35    36    1
   117    54    55    1
   118     8     6   ar
   119    33    34    2
   120    36    37    1
   121     7     6   ar
   122     6     5    1
   123    18    19    1
   124    18    17    1
   125    55    56    2
   126    37    38    2
   127    17    16    1
   128    69    68    1
   129    69    71    1
   130    68    70    1
   131    68    65    1
   132    67    66    2
   133     5     2    1
   134    64    65    1
   135     1     2    1
   136    23    22    2
   137    12    13    1
   138    65    66    1
   139    16    13    1
   140    22    21    1
   141     2     3    1
   142    13    14    1
   143     3     4    2
   144    24    21    1
   145    24    25    1
   146    21    20    1
   147    14    15    2
   148    25    26    1
   149    26    27    1
   150    27    28    2
   151    29    28    1
   152    28    30    1
