@<TRIPOS>MOLECULE
tmp/4bccA00.pdb
 189 182 0 0 0
SMALL
GASTEIGER

@<TRIPOS>ATOM
      1  N         48.8090   42.4080   88.3700 N.3   173  PHE173     -0.1241
      2  CA        48.2420   41.2160   89.0160 C.3   173  PHE173      0.1605
      3  C         49.0010   40.8700   90.3060 C.2   173  PHE173      0.2264
      4  O         49.4070   39.6890   90.5560 O.2   173  PHE173     -0.2867
      5  CB        48.2080   40.0350   88.0540 C.3   173  PHE173      0.0534
      6  CG        47.6030   40.3630   86.7140 C.ar  173  PHE173     -0.0203
      7  CD1       46.3470   40.9790   86.6340 C.ar  173  PHE173     -0.0042
      8  CD2       48.2780   40.0470   85.5600 C.ar  173  PHE173     -0.0042
      9  CE1       45.7940   41.2790   85.3430 C.ar  173  PHE173     -0.0003
     10  CE2       47.7540   40.3510   84.3010 C.ar  173  PHE173     -0.0003
     11  CZ        46.5050   40.9640   84.2210 C.ar  173  PHE173     -0.0000
     12  N         52.1620   32.2780   88.7840 N.3   235  MET235     -0.1245
     13  CA        52.0650   33.5930   89.4660 C.3   235  MET235      0.1570
     14  C         51.9700   33.3270   90.9700 C.2   235  MET235      0.2261
     15  O         51.0180   32.6880   91.4160 O.2   235  MET235     -0.2867
     16  CB        50.7990   34.3210   88.9750 C.3   235  MET235      0.0387
     17  CG        50.8440   34.6040   87.4840 C.3   235  MET235      0.0595
     18  SD        49.2550   35.1010   86.7280 S.3   235  MET235     -0.1393
     19  CE        49.0850   36.7630   87.3290 C.3   235  MET235      0.0692
     20  N         49.4300   30.3300   91.3180 N.3   252  ARG252     -0.1245
     21  CA        48.3400   30.0630   90.3800 C.3   252  ARG252      0.1563
     22  C         48.9280   29.8270   89.0020 C.2   252  ARG252      0.2260
     23  O         49.9880   30.3730   88.6820 O.2   252  ARG252     -0.2867
     24  CB        47.3750   31.2890   90.3160 C.3   252  ARG252      0.0307
     25  CG        46.7990   31.6930   91.6760 C.3   252  ARG252      0.0489
     26  CD        45.5590   30.9760   92.0140 C.3   252  ARG252      0.2205
     27  NE        44.9560   31.5920   93.2080 N.pl3 252  ARG252     -0.0865
     28  CZ        43.8840   31.1150   93.8390 C.cat 252  ARG252      0.5346
     29  NH1       43.2900   30.0190   93.4110 N.pl3 252  ARG252      0.1354
     30  NH2       43.4240   31.7370   94.9260 N.pl3 252  ARG252      0.1354
     31  N         46.7060   29.8430   85.5130 N.3   254  GLY254     -0.1210
     32  CA        45.3680   29.8740   84.9270 C.3   254  GLY254      0.1956
     33  C         44.3590   30.3880   85.9340 C.2   254  GLY254      0.2612
     34  O         44.7070   30.7820   87.0540 O.2   254  GLY254     -0.2717
     35  N         43.0820   30.2920   85.5560 N.am  255  CYS255     -0.1970
     36  CA        41.9860   30.9290   86.2810 C.3   255  CYS255      0.1712
     37  C         41.1350   29.9850   87.1200 C.2   255  CYS255      0.2296
     38  O         40.1190   30.4240   87.6850 O.2   255  CYS255     -0.2864
     39  CB        41.0880   31.6550   85.2670 C.3   255  CYS255      0.0983
     40  SG        41.8850   33.1910   84.7220 S.3   255  CYS255     -0.0798
     41  N         20.6460   39.5410   80.8240 N.3   471  TYR471     -0.1241
     42  CA        22.0690   39.6030   81.1220 C.3   471  TYR471      0.1605
     43  C         22.5940   38.2320   81.5340 C.2   471  TYR471      0.2264
     44  O         21.9280   37.5020   82.2560 O.2   471  TYR471     -0.2867
     45  CB        22.3100   40.6030   82.2750 C.3   471  TYR471      0.0534
     46  CG        23.7540   40.7650   82.6270 C.ar  471  TYR471     -0.0201
     47  CD1       24.5390   41.7120   81.9730 C.ar  471  TYR471     -0.0009
     48  CD2       24.3320   40.0250   83.6530 C.ar  471  TYR471     -0.0009
     49  CE1       25.8880   41.8730   82.3170 C.ar  471  TYR471      0.0417
     50  CE2       25.6870   40.1920   84.0000 C.ar  471  TYR471      0.0417
     51  CZ        26.4270   41.1160   83.3490 C.ar  471  TYR471      0.1957
     52  OH        27.7530   41.2450   83.7100 O.3   471  TYR471     -0.2866
     53  N         26.7390   35.9310   82.0760 N.3   473  TYR473     -0.1241
     54  CA        28.2000   35.8670   81.9980 C.3   473  TYR473      0.1605
     55  C         28.5720   34.4000   81.6480 C.2   473  TYR473      0.2264
     56  O         28.7930   34.0920   80.4860 O.2   473  TYR473     -0.2867
     57  CB        28.7990   36.3610   83.3260 C.3   473  TYR473      0.0534
     58  CG        30.3000   36.3880   83.3670 C.ar  473  TYR473     -0.0201
     59  CD1       31.0190   37.4360   82.7580 C.ar  473  TYR473     -0.0009
     60  CD2       31.0120   35.3800   84.0260 C.ar  473  TYR473     -0.0009
     61  CE1       32.4170   37.4540   82.8160 C.ar  473  TYR473      0.0417
     62  CE2       32.4100   35.3830   84.0900 C.ar  473  TYR473      0.0417
     63  CZ        33.0930   36.4380   83.5120 C.ar  473  TYR473      0.1957
     64  OH        34.4810   36.4550   83.5840 O.3   473  TYR473     -0.2866
     65  N         34.2130   31.0490   84.6710 N.3   476  PHE476     -0.1241
     66  CA        35.2430   31.4840   85.6190 C.3   476  PHE476      0.1605
     67  C         34.8170   31.4330   87.0740 C.2   476  PHE476      0.2264
     68  O         35.3780   32.1390   87.9160 O.2   476  PHE476     -0.2867
     69  CB        35.8390   32.8830   85.2090 C.3   476  PHE476      0.0534
     70  CG        36.4710   32.8390   83.8510 C.ar  476  PHE476     -0.0203
     71  CD1       37.7820   32.3310   83.7120 C.ar  476  PHE476     -0.0042
     72  CD2       35.7430   33.1530   82.7130 C.ar  476  PHE476     -0.0042
     73  CE1       38.3740   32.1990   82.4510 C.ar  476  PHE476     -0.0003
     74  CE2       36.3280   32.9880   81.4460 C.ar  476  PHE476     -0.0003
     75  CZ        37.6460   32.5660   81.3060 C.ar  476  PHE476     -0.0000
     76  N         32.4020   32.6260   88.4620 N.3   478  ILE478     -0.1231
     77  CA        31.8170   33.8890   88.8870 C.3   478  ILE478      0.1692
     78  C         30.3090   33.7070   89.0490 C.2   478  ILE478      0.2593
     79  O         29.6130   33.2350   88.1480 O.2   478  ILE478     -0.2718
     80  CB        32.1290   35.0500   87.9250 C.3   478  ILE478      0.0266
     81  CG1       33.6500   35.2780   87.7980 C.3   478  ILE478      0.0019
     82  CG2       31.3910   36.3630   88.4080 C.3   478  ILE478      0.0020
     83  CD1       34.3150   35.6420   89.0840 C.3   478  ILE478      0.0001
     84  N         29.8070   34.0330   90.2330 N.am  479  SER479     -0.1938
     85  CA        28.3480   34.0220   90.4660 C.3   479  SER479      0.2055
     86  C         27.7230   35.3850   90.2290 C.2   479  SER479      0.2642
     87  O         28.2260   36.4050   90.7500 O.2   479  SER479     -0.2714
     88  CB        28.0430   33.5730   91.9060 C.3   479  SER479      0.2130
     89  OG        28.4660   32.2310   92.0800 O.3   479  SER479     -0.2179
     90  N         26.6270   35.3920   89.4660 N.am  480  ILE480     -0.1977
     91  CA        25.9260   36.6190   89.1150 C.3   480  ILE480      0.1596
     92  C         24.7850   36.8550   90.0810 C.2   480  ILE480      0.2287
     93  O         23.6740   36.3600   89.9060 O.2   480  ILE480     -0.2864
     94  CB        25.5140   36.6290   87.6040 C.3   480  ILE480      0.0276
     95  CG1       26.6940   36.1470   86.7430 C.3   480  ILE480      0.0022
     96  CG2       25.0870   38.0160   87.2260 C.3   480  ILE480      0.0022
     97  CD1       27.9550   37.0770   86.7900 C.3   480  ILE480      0.0001
     98  N         29.4680   41.1130   79.3950 N.3   553  GLY553     -0.1210
     99  CA        30.7930   41.7450   79.2740 C.3   553  GLY553      0.1956
    100  C         31.8900   40.6960   79.4040 C.2   553  GLY553      0.2613
    101  O         31.7450   39.7770   80.2150 O.2   553  GLY553     -0.2717
    102  N         32.9570   40.8290   78.6080 N.am  554  SER554     -0.1938
    103  CA        34.1660   39.9960   78.7490 C.3   554  SER554      0.2055
    104  C         33.7610   38.6000   78.3110 C.2   554  SER554      0.2643
    105  O         33.4050   38.3770   77.1500 O.2   554  SER554     -0.2714
    106  CB        34.7780   40.0410   80.1800 C.3   554  SER554      0.2130
    107  OG        36.1540   39.5450   80.2260 O.3   554  SER554     -0.2179
    108  N         33.8390   37.6330   79.2100 N.am  555  ASN555     -0.1971
    109  CA        33.3220   36.2970   78.8780 C.3   555  ASN555      0.1688
    110  C         31.8190   36.3420   78.5700 C.2   555  ASN555      0.2292
    111  O         31.2950   35.4970   77.8400 O.2   555  ASN555     -0.2864
    112  CB        33.5920   35.4010   80.1090 C.3   555  ASN555      0.1181
    113  CG        32.9910   34.0150   79.9810 C.2   555  ASN555      0.2629
    114  OD1       33.3990   33.2240   79.1270 O.2   555  ASN555     -0.2716
    115  ND2       32.0490   33.7050   80.8860 N.am  555  ASN555     -0.0877
    116  N         35.4730   38.5940   74.4150 N.3   580  VAL580     -0.1245
    117  CA        36.5050   37.6880   73.8480 C.3   580  VAL580      0.1561
    118  C         35.8720   37.0760   72.5870 C.2   580  VAL580      0.2260
    119  O         34.9470   36.2560   72.6530 O.2   580  VAL580     -0.2867
    120  CB        36.8790   36.5740   74.8160 C.3   580  VAL580      0.0252
    121  CG1       38.0960   35.8270   74.2570 C.3   580  VAL580      0.0019
    122  CG2       37.1970   37.1640   76.1920 C.3   580  VAL580      0.0019
    123  N         47.2640   38.7640   79.2860 N.3   591  ILE591     -0.1245
    124  CA        47.0390   37.6800   80.2810 C.3   591  ILE591      0.1561
    125  C         46.0920   36.5680   79.7570 C.2   591  ILE591      0.2260
    126  O         45.6870   35.6710   80.4860 O.2   591  ILE591     -0.2867
    127  CB        46.5500   38.3280   81.5920 C.3   591  ILE591      0.0252
    128  CG1       46.6860   37.3810   82.7840 C.3   591  ILE591      0.0019
    129  CG2       45.0680   38.8150   81.4800 C.3   591  ILE591      0.0019
    130  CD1       48.0450   36.7520   83.0060 C.3   591  ILE591      0.0001
    131  N         45.9470   32.7970   80.6370 N.3   594  ALA594     -0.1231
    132  CA        45.3750   32.3070   81.8890 C.3   594  ALA594      0.1694
    133  C         43.9630   31.7650   81.6850 C.2   594  ALA594      0.2592
    134  O         43.4310   31.0870   82.5800 O.2   594  ALA594     -0.2718
    135  CB        45.4020   33.4200   82.9800 C.3   594  ALA594      0.0304
    136  N         43.3400   32.0540   80.5330 N.am  595  TRP595     -0.1976
    137  CA        41.9010   31.6880   80.3590 C.3   595  TRP595      0.1640
    138  C         41.6910   30.2770   79.7900 C.2   595  TRP595      0.2290
    139  O         40.5640   29.8160   79.6610 O.2   595  TRP595     -0.2864
    140  CB        41.1480   32.6920   79.5140 C.3   595  TRP595      0.0576
    141  CG        41.4130   34.1240   79.8830 C.ar  595  TRP595      0.0006
    142  CD1       41.7650   34.6240   81.1350 C.ar  595  TRP595      0.0946
    143  CD2       41.3450   35.2460   79.0050 C.ar  595  TRP595      0.0152
    144  NE1       41.9500   35.9930   81.0530 N.ar  595  TRP595     -0.2442
    145  CE2       41.7190   36.3880   79.7530 C.ar  595  TRP595      0.0810
    146  CE3       41.0640   35.3860   77.6160 C.ar  595  TRP595      0.0012
    147  CZ2       41.7570   37.6690   79.1860 C.ar  595  TRP595      0.0191
    148  CZ3       41.1020   36.6520   77.0490 C.ar  595  TRP595      0.0001
    149  CH2       41.4710   37.7740   77.8220 C.ar  595  TRP595      0.0015
    150  N         38.5320   27.7640   78.6920 N.3   599  TYR599     -0.1241
    151  CA        38.2710   27.6290   77.2530 C.3   599  TYR599      0.1605
    152  C         38.9500   26.4900   76.4990 C.2   599  TYR599      0.2264
    153  O         38.4490   26.0470   75.4380 O.2   599  TYR599     -0.2867
    154  CB        38.6900   28.9320   76.5540 C.3   599  TYR599      0.0534
    155  CG        37.9590   30.1630   77.0170 C.ar  599  TYR599     -0.0201
    156  CD1       36.5710   30.1390   77.3370 C.ar  599  TYR599     -0.0009
    157  CD2       38.6160   31.3970   77.0160 C.ar  599  TYR599     -0.0009
    158  CE1       35.8720   31.3390   77.7330 C.ar  599  TYR599      0.0417
    159  CE2       37.9280   32.5880   77.3860 C.ar  599  TYR599      0.0417
    160  CZ        36.5670   32.5490   77.7220 C.ar  599  TYR599      0.1957
    161  OH        35.8950   33.7000   78.1030 O.3   599  TYR599     -0.2866
    162  N         43.1270   43.8390   79.4430 N.3   643  ARG643     -0.1231
    163  CA        42.6230   42.5420   79.8840 C.3   643  ARG643      0.1694
    164  C         42.1560   41.7240   78.6840 C.2   643  ARG643      0.2591
    165  O         42.6610   40.6110   78.4610 O.2   643  ARG643     -0.2718
    166  CB        41.5000   42.7310   80.9130 C.3   643  ARG643      0.0321
    167  CG        40.9730   41.4090   81.5320 C.3   643  ARG643      0.0489
    168  CD        42.0160   40.7320   82.4430 C.3   643  ARG643      0.2205
    169  NE        42.2880   41.6310   83.5850 N.pl3 643  ARG643     -0.0865
    170  CZ        41.5460   41.6820   84.6740 C.cat 643  ARG643      0.5346
    171  NH1       40.5410   40.8110   84.8640 N.pl3 643  ARG643      0.1354
    172  NH2       41.8360   42.5830   85.6300 N.pl3 643  ARG643      0.1354
    173  N         41.1920   42.2800   77.9390 N.am  644  VAL644     -0.1980
    174  CA        40.6980   41.6800   76.6940 C.3   644  VAL644      0.1595
    175  C         41.1000   42.6440   75.5810 C.2   644  VAL644      0.2287
    176  O         40.4200   43.6560   75.3340 O.2   644  VAL644     -0.2864
    177  CB        39.1620   41.4150   76.7170 C.3   644  VAL644      0.0276
    178  CG1       38.7090   40.8390   75.3610 C.3   644  VAL644      0.0022
    179  CG2       38.8250   40.3870   77.8040 C.3   644  VAL644      0.0022
    180  N         39.3910   47.8450   80.5710 N.3   680  HIS680     -0.1241
    181  CA        38.4200   46.7700   80.6490 C.3   680  HIS680      0.1621
    182  C         37.1740   47.1520   81.4370 C.2   680  HIS680      0.2264
    183  O         36.0890   46.6000   81.2020 O.2   680  HIS680     -0.2867
    184  CB        39.0720   45.5470   81.2910 C.3   680  HIS680      0.0745
    185  CG        38.3170   44.2720   81.0630 C.ar  680  HIS680      0.0817
    186  ND1       37.9510   43.8350   79.8020 N.ar  680  HIS680     -0.2268
    187  CD2       37.8960   43.3260   81.9270 C.ar  680  HIS680      0.1154
    188  CE1       37.3200   42.6750   79.9120 C.ar  680  HIS680      0.1986
    189  NE2       37.2680   42.3470   81.1910 N.ar  680  HIS680     -0.2212
@<TRIPOS>BOND
     1   118   119    2
     2   118   117    1
     3   117   116    1
     4   117   120    1
     5   121   120    1
     6   120   122    1
     7   176   175    2
     8   178   177    1
     9   153   152    2
    10   175   174    1
    11   152   151    1
    12   154   155    1
    13   154   151    1
    14   174   177    1
    15   174   173    1
    16   177   179    1
    17   157   155   ar
    18   157   159   ar
    19   155   156   ar
    20   148   146   ar
    21   148   149   ar
    22   105   104    2
    23   151   150    1
    24   156   158   ar
    25   159   160   ar
    26   146   143   ar
    27   160   158   ar
    28   160   161    1
    29   149   147   ar
    30   111   110    2
    31   173   164   am
    32   104   103    1
    33   104   108   am
    34   165   164    2
    35   110   109    1
    36   102   103    1
    37   102   100   am
    38   164   163    1
    39   103   106    1
    40   109   108    1
    41   109   112    1
    42   143   145   ar
    43   143   141   ar
    44   114   113    2
    45   147   145   ar
    46    99    98    1
    47    99   100    1
    48   123   124    1
    49   100   101    2
    50   162   163    1
    51   140   141    1
    52   140   137    1
    53   139   138    2
    54   145   144   ar
    55   125   124    1
    56   125   126    2
    57   138   137    1
    58   186   188   ar
    59   186   185   ar
    60   141   142   ar
    61   163   166    1
    62   188   189   ar
    63   113   112    1
    64   113   115   am
    65   106   107    1
    66   124   127    1
    67   137   136    1
    68    56    55    2
    69   136   133   am
    70   180   181    1
    71   131   132    1
    72   181   184    1
    73   181   182    1
    74    41    42    1
    75   166   167    1
    76   144   142   ar
    77   185   184    1
    78   185   187   ar
    79    42    43    1
    80    42    45    1
    81   189   187   ar
    82   183   182    2
    83    75    74   ar
    84    75    73   ar
    85    74    72   ar
    86   129   127    1
    87   167   168    1
    88    43    44    2
    89   127   128    1
    90    55    54    1
    91   133   132    1
    92   133   134    2
    93   132   135    1
    94    47    49   ar
    95    47    46   ar
    96    54    53    1
    97    54    57    1
    98    45    46    1
    99    49    51   ar
   100   168   169    1
   101    73    71   ar
   102    46    48   ar
   103    72    70   ar
   104    59    61   ar
   105    59    58   ar
   106   128   130    1
   107    61    63   ar
   108    57    58    1
   109    51    52    1
   110    51    50   ar
   111    58    60   ar
   112    63    64    1
   113    63    62   ar
   114   169   170    2
   115    48    50   ar
   116    71    70   ar
   117    70    69    1
   118    60    62   ar
   119    11    10   ar
   120    11     9   ar
   121    10     8   ar
   122    65    66    1
   123   170   171    1
   124   170   172    1
   125    40    39    1
   126    32    31    1
   127    32    33    1
   128    69    66    1
   129    39    36    1
   130     9     7   ar
   131    35    33   am
   132    35    36    1
   133     8     6   ar
   134    66    67    1
   135    33    34    2
   136    36    37    1
   137     7     6   ar
   138     6     5    1
   139    18    19    1
   140    18    17    1
   141    95    97    1
   142    95    94    1
   143    67    68    2
   144    37    38    2
   145    96    94    1
   146    17    16    1
   147    94    91    1
   148    81    80    1
   149    81    83    1
   150    80    82    1
   151    80    77    1
   152     5     2    1
   153    79    78    2
   154     1     2    1
   155    76    77    1
   156    23    22    2
   157    12    13    1
   158    77    78    1
   159    16    13    1
   160    22    21    1
   161     2     3    1
   162    78    84   am
   163    91    90    1
   164    91    92    1
   165    13    14    1
   166    90    86   am
   167    93    92    2
   168    86    85    1
   169    86    87    2
   170    84    85    1
   171     3     4    2
   172    24    21    1
   173    24    25    1
   174    21    20    1
   175    85    88    1
   176    14    15    2
   177    25    26    1
   178    88    89    1
   179    26    27    1
   180    27    28    2
   181    29    28    1
   182    28    30    1
