@<TRIPOS>MOLECULE
tmp/4bcdA00.pdb
 159 152 0 0 0
SMALL
GASTEIGER

@<TRIPOS>ATOM
      1  N         48.9830   42.4520   89.1460 N.3   173  PHE173     -0.1241
      2  CA        48.3620   41.2750   89.7890 C.3   173  PHE173      0.1605
      3  C         49.1270   40.9200   91.0790 C.2   173  PHE173      0.2264
      4  O         49.5240   39.7540   91.3160 O.2   173  PHE173     -0.2867
      5  CB        48.2960   40.0760   88.8190 C.3   173  PHE173      0.0534
      6  CG        47.7310   40.4200   87.4510 C.ar  173  PHE173     -0.0203
      7  CD1       46.4990   41.0670   87.3260 C.ar  173  PHE173     -0.0042
      8  CD2       48.4500   40.0980   86.3050 C.ar  173  PHE173     -0.0042
      9  CE1       45.9840   41.3600   86.0460 C.ar  173  PHE173     -0.0003
     10  CE2       47.9450   40.4370   85.0140 C.ar  173  PHE173     -0.0003
     11  CZ        46.6980   41.0490   84.9210 C.ar  173  PHE173     -0.0000
     12  N         52.2780   32.3540   89.6080 N.3   235  MET235     -0.1245
     13  CA        52.1790   33.6390   90.3040 C.3   235  MET235      0.1570
     14  C         52.0760   33.3220   91.7800 C.2   235  MET235      0.2261
     15  O         51.1310   32.6640   92.2130 O.2   235  MET235     -0.2867
     16  CB        50.9250   34.3930   89.8250 C.3   235  MET235      0.0387
     17  CG        50.9650   34.6190   88.3130 C.3   235  MET235      0.0595
     18  SD        49.4100   35.1360   87.5430 S.3   235  MET235     -0.1393
     19  CE        49.2760   36.7960   88.1730 C.3   235  MET235      0.0692
     20  N         49.4640   30.4030   92.1580 N.3   252  ARG252     -0.1245
     21  CA        48.4550   30.1170   91.1400 C.3   252  ARG252      0.1563
     22  C         49.0730   29.9200   89.7690 C.2   252  ARG252      0.2260
     23  O         50.1310   30.4870   89.4480 O.2   252  ARG252     -0.2867
     24  CB        47.4650   31.2770   91.0620 C.3   252  ARG252      0.0307
     25  CG        46.9270   31.7260   92.3910 C.3   252  ARG252      0.0489
     26  CD        45.6960   31.0030   92.7720 C.3   252  ARG252      0.2205
     27  NE        45.1830   31.5280   94.0400 N.pl3 252  ARG252     -0.0865
     28  CZ        44.1240   31.0610   94.6990 C.cat 252  ARG252      0.5346
     29  NH1       43.3990   30.0520   94.2250 N.pl3 252  ARG252      0.1354
     30  NH2       43.8020   31.6100   95.8690 N.pl3 252  ARG252      0.1354
     31  N         46.8740   30.0050   86.3040 N.3   254  GLY254     -0.1210
     32  CA        45.5700   30.0060   85.6640 C.3   254  GLY254      0.1956
     33  C         44.5360   30.4820   86.6690 C.2   254  GLY254      0.2612
     34  O         44.8260   30.8190   87.8270 O.2   254  GLY254     -0.2717
     35  N         43.2900   30.4450   86.2190 N.am  255  CYS255     -0.1970
     36  CA        42.1720   31.0380   86.9490 C.3   255  CYS255      0.1712
     37  C         41.3140   30.0670   87.7670 C.2   255  CYS255      0.2296
     38  O         40.3520   30.5050   88.3910 O.2   255  CYS255     -0.2864
     39  CB        41.2840   31.7780   85.9420 C.3   255  CYS255      0.0983
     40  SG        42.0010   33.3470   85.3910 S.3   255  CYS255     -0.0798
     41  N         26.9390   36.0040   82.6020 N.3   473  TYR473     -0.1241
     42  CA        28.4010   35.9720   82.5580 C.3   473  TYR473      0.1605
     43  C         28.7740   34.5120   82.2130 C.2   473  TYR473      0.2264
     44  O         29.0390   34.2110   81.0580 O.2   473  TYR473     -0.2867
     45  CB        28.9830   36.4410   83.9190 C.3   473  TYR473      0.0534
     46  CG        30.4860   36.4950   83.9620 C.ar  473  TYR473     -0.0201
     47  CD1       31.1930   37.6020   83.4430 C.ar  473  TYR473     -0.0009
     48  CD2       31.2100   35.4380   84.4860 C.ar  473  TYR473     -0.0009
     49  CE1       32.5750   37.6440   83.4850 C.ar  473  TYR473      0.0417
     50  CE2       32.6020   35.4860   84.5410 C.ar  473  TYR473      0.0417
     51  CZ        33.2720   36.5860   84.0390 C.ar  473  TYR473      0.1957
     52  OH        34.6610   36.6460   84.0960 O.3   473  TYR473     -0.2866
     53  N         34.4140   31.1770   85.2520 N.3   476  PHE476     -0.1241
     54  CA        35.4330   31.6180   86.2120 C.3   476  PHE476      0.1605
     55  C         34.9820   31.5710   87.6500 C.2   476  PHE476      0.2264
     56  O         35.5230   32.2690   88.4860 O.2   476  PHE476     -0.2867
     57  CB        36.0050   33.0140   85.8130 C.3   476  PHE476      0.0534
     58  CG        36.6740   32.9840   84.4900 C.ar  476  PHE476     -0.0203
     59  CD1       38.0280   32.6420   84.4230 C.ar  476  PHE476     -0.0042
     60  CD2       35.9650   33.2100   83.3090 C.ar  476  PHE476     -0.0042
     61  CE1       38.6960   32.5250   83.2090 C.ar  476  PHE476     -0.0003
     62  CE2       36.6060   33.0820   82.0730 C.ar  476  PHE476     -0.0003
     63  CZ        37.9900   32.7660   82.0270 C.ar  476  PHE476     -0.0000
     64  N         32.4660   32.6690   88.9840 N.3   478  ILE478     -0.1245
     65  CA        31.8520   33.9250   89.4630 C.3   478  ILE478      0.1561
     66  C         30.3590   33.7180   89.6470 C.2   478  ILE478      0.2260
     67  O         29.6660   33.2430   88.7510 O.2   478  ILE478     -0.2867
     68  CB        32.1090   35.0940   88.5270 C.3   478  ILE478      0.0252
     69  CG1       33.6110   35.2950   88.3460 C.3   478  ILE478      0.0019
     70  CG2       31.4510   36.3830   89.1270 C.3   478  ILE478      0.0019
     71  CD1       34.0310   36.5370   87.5240 C.3   478  ILE478      0.0001
     72  N         33.1780   41.0240   79.3510 N.3   554  SER554     -0.1202
     73  CA        34.3680   40.1860   79.5450 C.3   554  SER554      0.2020
     74  C         34.0680   38.7570   79.0760 C.2   554  SER554      0.2618
     75  O         33.7660   38.5590   77.8990 O.2   554  SER554     -0.2717
     76  CB        34.7960   40.3340   81.0130 C.3   554  SER554      0.2103
     77  OG        36.0730   39.7750   81.2260 O.3   554  SER554     -0.2182
     78  N         34.1140   37.7700   79.9660 N.am  555  ASN555     -0.1974
     79  CA        33.6160   36.4540   79.6150 C.3   555  ASN555      0.1688
     80  C         32.1190   36.5070   79.2370 C.2   555  ASN555      0.2292
     81  O         31.6480   35.7080   78.4230 O.2   555  ASN555     -0.2864
     82  CB        33.8900   35.4970   80.7850 C.3   555  ASN555      0.1181
     83  CG        33.2520   34.1410   80.5720 C.2   555  ASN555      0.2629
     84  OD1       33.6770   33.3360   79.7200 O.2   555  ASN555     -0.2716
     85  ND2       32.2410   33.8640   81.3790 N.am  555  ASN555     -0.0877
     86  N         35.8490   38.6450   75.0290 N.3   580  VAL580     -0.1245
     87  CA        36.8530   37.7580   74.4070 C.3   580  VAL580      0.1561
     88  C         36.2490   37.1780   73.1510 C.2   580  VAL580      0.2260
     89  O         35.3130   36.3710   73.2220 O.2   580  VAL580     -0.2867
     90  CB        37.2670   36.6100   75.3700 C.3   580  VAL580      0.0252
     91  CG1       38.5100   35.9000   74.8290 C.3   580  VAL580      0.0019
     92  CG2       37.5320   37.1850   76.7760 C.3   580  VAL580      0.0019
     93  N         47.5470   38.7990   80.0160 N.3   591  ILE591     -0.1245
     94  CA        47.3230   37.7270   81.0100 C.3   591  ILE591      0.1561
     95  C         46.3650   36.6540   80.4740 C.2   591  ILE591      0.2260
     96  O         45.9090   35.7890   81.2310 O.2   591  ILE591     -0.2867
     97  CB        46.7980   38.3780   82.3390 C.3   591  ILE591      0.0252
     98  CG1       46.8830   37.4670   83.5680 C.3   591  ILE591      0.0019
     99  CG2       45.3400   38.8690   82.2110 C.3   591  ILE591      0.0019
    100  CD1       48.2680   36.8370   83.8220 C.3   591  ILE591      0.0001
    101  N         46.1480   32.9120   81.3740 N.3   594  ALA594     -0.1231
    102  CA        45.5410   32.4190   82.5970 C.3   594  ALA594      0.1694
    103  C         44.1330   31.8560   82.3740 C.2   594  ALA594      0.2592
    104  O         43.6080   31.1680   83.2540 O.2   594  ALA594     -0.2718
    105  CB        45.5590   33.5310   83.6700 C.3   594  ALA594      0.0304
    106  N         43.5040   32.1580   81.2320 N.am  595  TRP595     -0.1976
    107  CA        42.1080   31.7430   81.0120 C.3   595  TRP595      0.1640
    108  C         41.9580   30.3690   80.4280 C.2   595  TRP595      0.2290
    109  O         40.8210   29.8850   80.2940 O.2   595  TRP595     -0.2864
    110  CB        41.3490   32.7410   80.1160 C.3   595  TRP595      0.0576
    111  CG        41.5840   34.1700   80.4940 C.ar  595  TRP595      0.0006
    112  CD1       41.9120   34.6660   81.7320 C.ar  595  TRP595      0.0946
    113  CD2       41.5870   35.2850   79.5950 C.ar  595  TRP595      0.0152
    114  NE1       42.0890   36.0490   81.6590 N.ar  595  TRP595     -0.2442
    115  CE2       41.9030   36.4380   80.3540 C.ar  595  TRP595      0.0810
    116  CE3       41.3460   35.4190   78.2050 C.ar  595  TRP595      0.0012
    117  CZ2       42.0390   37.7120   79.7710 C.ar  595  TRP595      0.0191
    118  CZ3       41.4310   36.6870   77.6340 C.ar  595  TRP595      0.0001
    119  CH2       41.7850   37.8130   78.4100 C.ar  595  TRP595      0.0015
    120  N         38.7930   27.8610   79.2750 N.3   599  TYR599     -0.1241
    121  CA        38.4880   27.7070   77.8430 C.3   599  TYR599      0.1605
    122  C         39.2010   26.5700   77.1270 C.2   599  TYR599      0.2264
    123  O         38.7250   26.1030   76.0790 O.2   599  TYR599     -0.2867
    124  CB        38.8970   29.0080   77.1510 C.3   599  TYR599      0.0534
    125  CG        38.1680   30.2450   77.6090 C.ar  599  TYR599     -0.0201
    126  CD1       36.8050   30.2210   77.9250 C.ar  599  TYR599     -0.0009
    127  CD2       38.8460   31.4670   77.6830 C.ar  599  TYR599     -0.0009
    128  CE1       36.1290   31.4000   78.3000 C.ar  599  TYR599      0.0417
    129  CE2       38.1870   32.6550   78.0420 C.ar  599  TYR599      0.0417
    130  CZ        36.8150   32.6060   78.3380 C.ar  599  TYR599      0.1957
    131  OH        36.1250   33.7580   78.7050 O.3   599  TYR599     -0.2866
    132  N         43.3790   43.9250   80.0690 N.3   643  ARG643     -0.1231
    133  CA        42.8760   42.6370   80.5390 C.3   643  ARG643      0.1694
    134  C         42.4050   41.8160   79.3460 C.2   643  ARG643      0.2591
    135  O         42.9110   40.7060   79.1380 O.2   643  ARG643     -0.2718
    136  CB        41.8090   42.8120   81.5990 C.3   643  ARG643      0.0321
    137  CG        41.2840   41.4970   82.1830 C.3   643  ARG643      0.0489
    138  CD        42.3310   40.8630   83.1310 C.3   643  ARG643      0.2205
    139  NE        42.5690   41.7360   84.2830 N.pl3 643  ARG643     -0.0865
    140  CZ        41.8790   41.7280   85.3970 C.cat 643  ARG643      0.5346
    141  NH1       40.9060   40.8290   85.6180 N.pl3 643  ARG643      0.1354
    142  NH2       42.1790   42.6170   86.3430 N.pl3 643  ARG643      0.1354
    143  N         41.4590   42.3610   78.5730 N.am  644  VAL644     -0.1980
    144  CA        41.0220   41.7510   77.3110 C.3   644  VAL644      0.1595
    145  C         41.4610   42.7290   76.2040 C.2   644  VAL644      0.2287
    146  O         40.7730   43.7300   75.9540 O.2   644  VAL644     -0.2864
    147  CB        39.4870   41.4930   77.3010 C.3   644  VAL644      0.0276
    148  CG1       39.0560   40.8850   75.9460 C.3   644  VAL644      0.0022
    149  CG2       39.0790   40.4810   78.4140 C.3   644  VAL644      0.0022
    150  N         39.5980   47.8190   81.2350 N.3   680  HIS680     -0.1241
    151  CA        38.6230   46.7420   81.3140 C.3   680  HIS680      0.1621
    152  C         37.3800   47.1350   82.1000 C.2   680  HIS680      0.2264
    153  O         36.2740   46.6090   81.8440 O.2   680  HIS680     -0.2867
    154  CB        39.2630   45.4990   81.9210 C.3   680  HIS680      0.0745
    155  CG        38.5260   44.2380   81.6170 C.ar  680  HIS680      0.0817
    156  ND1       38.1880   43.8580   80.3360 N.ar  680  HIS680     -0.2268
    157  CD2       38.0400   43.2790   82.4370 C.ar  680  HIS680      0.1154
    158  CE1       37.5380   42.6980   80.3830 C.ar  680  HIS680      0.1986
    159  NE2       37.4110   42.3500   81.6510 N.ar  680  HIS680     -0.2212
@<TRIPOS>BOND
     1    88    89    2
     2    88    87    1
     3    87    86    1
     4    87    90    1
     5    91    90    1
     6    90    92    1
     7   148   147    1
     8   146   145    2
     9   123   122    2
    10   145   144    1
    11   122   121    1
    12   124   125    1
    13   124   121    1
    14   147   144    1
    15   147   149    1
    16   144   143    1
    17   125   127   ar
    18   125   126   ar
    19   118   116   ar
    20   118   119   ar
    21   127   129   ar
    22   121   120    1
    23    75    74    2
    24   126   128   ar
    25   129   130   ar
    26   116   113   ar
    27   128   130   ar
    28   130   131    1
    29   119   117   ar
    30    81    80    2
    31   143   134   am
    32    74    73    1
    33    74    78   am
    34   135   134    2
    35    80    79    1
    36   134   133    1
    37    72    73    1
    38    73    76    1
    39   113   115   ar
    40   113   111   ar
    41    79    78    1
    42    79    82    1
    43    84    83    2
    44   117   115   ar
    45    93    94    1
    46   132   133    1
    47   110   111    1
    48   110   107    1
    49   109   108    2
    50   156   158   ar
    51   156   155   ar
    52   115   114   ar
    53   158   159   ar
    54   108   107    1
    55    95    94    1
    56    95    96    2
    57   111   112   ar
    58   133   136    1
    59    83    82    1
    60    83    85   am
    61    94    97    1
    62   107   106    1
    63    76    77    1
    64    44    43    2
    65   106   103   am
    66   150   151    1
    67   151   154    1
    68   151   152    1
    69   101   102    1
    70   136   137    1
    71   155   154    1
    72   155   157   ar
    73   159   157   ar
    74   114   112   ar
    75   153   152    2
    76    63    62   ar
    77    63    61   ar
    78    62    60   ar
    79   137   138    1
    80    99    97    1
    81    43    42    1
    82    97    98    1
    83   103   102    1
    84   103   104    2
    85    42    41    1
    86    42    45    1
    87   102   105    1
    88   138   139    1
    89    61    59   ar
    90    60    58   ar
    91    47    49   ar
    92    47    46   ar
    93    49    51   ar
    94    98   100    1
    95    45    46    1
    96    46    48   ar
    97    51    52    1
    98    51    50   ar
    99   139   140    2
   100    59    58   ar
   101    48    50   ar
   102    58    57    1
   103    11    10   ar
   104    11     9   ar
   105    10     8   ar
   106    53    54    1
   107    40    39    1
   108   140   141    1
   109   140   142    1
   110    32    31    1
   111    32    33    1
   112    57    54    1
   113    39    36    1
   114     9     7   ar
   115    54    55    1
   116    35    33   am
   117    35    36    1
   118     8     6   ar
   119    33    34    2
   120    36    37    1
   121     7     6   ar
   122     6     5    1
   123    71    69    1
   124    18    19    1
   125    18    17    1
   126    55    56    2
   127    37    38    2
   128    17    16    1
   129    69    68    1
   130    68    70    1
   131    68    65    1
   132    67    66    2
   133     5     2    1
   134    64    65    1
   135     1     2    1
   136    23    22    2
   137    65    66    1
   138    12    13    1
   139    22    21    1
   140     2     3    1
   141    16    13    1
   142    13    14    1
   143    24    21    1
   144    24    25    1
   145     3     4    2
   146    21    20    1
   147    14    15    2
   148    25    26    1
   149    26    27    1
   150    27    28    2
   151    29    28    1
   152    28    30    1
