@<TRIPOS>MOLECULE
tmp/4bcgA00.pdb
 173 165 0 0 0
SMALL
GASTEIGER

@<TRIPOS>ATOM
      1  N         56.9220  -20.9740  -18.6800 N.3    19  ILE19      -0.1231
      2  CA        57.2860  -21.0990  -17.2820 C.3    19  ILE19       0.1692
      3  C         56.1310  -21.6780  -16.4580 C.2    19  ILE19       0.2592
      4  O         56.1950  -21.6160  -15.2380 O.2    19  ILE19      -0.2718
      5  CB        57.7420  -19.7560  -16.6710 C.3    19  ILE19       0.0266
      6  CG1       56.5910  -18.7600  -16.6200 C.3    19  ILE19       0.0019
      7  CG2       58.8950  -19.1750  -17.4780 C.3    19  ILE19       0.0020
      8  CD1       56.9880  -17.3500  -16.2310 C.3    19  ILE19       0.0001
      9  N         55.0360  -22.1170  -17.0910 N.am   20  GLY20      -0.1957
     10  CA        53.9160  -22.7220  -16.3580 C.3    20  GLY20       0.1869
     11  C         53.3290  -23.9230  -17.0600 C.2    20  GLY20       0.2309
     12  O         52.2180  -23.8650  -17.5290 O.2    20  GLY20      -0.2863
     13  N         50.9750  -25.6940  -14.0740 N.3    23  THR23      -0.1203
     14  CA        50.2190  -24.8180  -13.1590 C.3    23  THR23       0.1994
     15  C         49.1590  -24.0090  -13.9000 C.2    23  THR23       0.2617
     16  O         49.4460  -22.9920  -14.5600 O.2    23  THR23      -0.2717
     17  CB        51.1280  -23.8740  -12.3610 C.3    23  THR23       0.1784
     18  OG1       51.7130  -22.9140  -13.2620 O.3    23  THR23      -0.2211
     19  CG2       52.1990  -24.6860  -11.5670 C.3    23  THR23       0.0376
     20  N         47.9280  -24.5090  -13.8100 N.am   24  PHE24      -0.1975
     21  CA        46.7900  -23.9260  -14.4900 C.3    24  PHE24       0.1639
     22  C         47.1040  -23.8010  -15.9770 C.2    24  PHE24       0.2290
     23  O         47.6290  -24.7450  -16.5890 O.2    24  PHE24      -0.2864
     24  CB        46.4430  -22.5810  -13.8480 C.3    24  PHE24       0.0560
     25  CG        46.0380  -22.6860  -12.4000 C.ar   24  PHE24      -0.0200
     26  CD1       46.8330  -23.4000  -11.4830 C.ar   24  PHE24      -0.0042
     27  CD2       44.8680  -22.0670  -11.9440 C.ar   24  PHE24      -0.0042
     28  CE1       46.4570  -23.5100  -10.1670 C.ar   24  PHE24      -0.0003
     29  CE2       44.4910  -22.1670  -10.6150 C.ar   24  PHE24      -0.0003
     30  CZ        45.2920  -22.8900   -9.7290 C.ar   24  PHE24      -0.0000
     31  N         51.7850  -20.4620  -19.1070 N.3    27  VAL27      -0.1245
     32  CA        52.3280  -19.1470  -18.7590 C.3    27  VAL27       0.1561
     33  C         53.6640  -18.9420  -19.4770 C.2    27  VAL27       0.2260
     34  O         54.5220  -19.8180  -19.4200 O.2    27  VAL27      -0.2867
     35  CB        52.5570  -19.0720  -17.2440 C.3    27  VAL27       0.0252
     36  CG1       52.9520  -17.6880  -16.8080 C.3    27  VAL27       0.0019
     37  CG2       51.2830  -19.4970  -16.5310 C.3    27  VAL27       0.0019
     38  N         54.8290  -11.3960  -18.0130 N.3    40  ALA40      -0.1245
     39  CA        54.3020  -12.7520  -18.0400 C.3    40  ALA40       0.1562
     40  C         53.0050  -12.7790  -18.8250 C.2    40  ALA40       0.2260
     41  O         52.1010  -11.9790  -18.5810 O.2    40  ALA40      -0.2867
     42  CB        54.0680  -13.2900  -16.6250 C.3    40  ALA40       0.0290
     43  N         49.6100  -14.9780  -19.8460 N.3    42  LYS42      -0.1245
     44  CA        48.7330  -16.1060  -19.5820 C.3    42  LYS42       0.1561
     45  C         47.6260  -16.1480  -20.6070 C.2    42  LYS42       0.2260
     46  O         46.7900  -15.2530  -20.6310 O.2    42  LYS42      -0.2867
     47  CB        48.1160  -15.9390  -18.1870 C.3    42  LYS42       0.0271
     48  CG        48.2500  -17.1630  -17.3270 C.3    42  LYS42       0.0035
     49  CD        47.1300  -17.1910  -16.2680 C.3    42  LYS42       0.0206
     50  CE        46.9080  -18.5920  -15.7030 C.3    42  LYS42       0.1093
     51  NZ        46.4150  -18.5260  -14.2770 N.3    42  LYS42      -0.1314
     52  N         50.3620   -8.9740   -7.4640 N.3    73  VAL73      -0.1245
     53  CA        50.8270   -9.0220   -8.8390 C.3    73  VAL73       0.1561
     54  C         50.0260   -8.0120   -9.6520 C.2    73  VAL73       0.2260
     55  O         48.8870   -7.7290   -9.3340 O.2    73  VAL73      -0.2867
     56  CB        50.6840  -10.4550   -9.4050 C.3    73  VAL73       0.0252
     57  CG1       49.2280  -10.7360   -9.7770 C.3    73  VAL73       0.0019
     58  CG2       51.6200  -10.6380  -10.5690 C.3    73  VAL73       0.0019
     59  N         51.0440   -9.7050  -17.4180 N.3    89  PHE89      -0.1227
     60  CA        51.5080   -9.2610  -16.0870 C.3    89  PHE89       0.1736
     61  C         52.9570   -8.7760  -16.0550 C.2    89  PHE89       0.2595
     62  O         53.7610   -9.1700  -16.9110 O.2    89  PHE89      -0.2718
     63  CB        51.3880  -10.3930  -15.0780 C.3    89  PHE89       0.0547
     64  CG        50.0080  -10.9770  -14.9590 C.ar   89  PHE89      -0.0202
     65  CD1       49.1030  -10.4900  -14.0230 C.ar   89  PHE89      -0.0042
     66  CD2       49.6600  -12.0920  -15.7000 C.ar   89  PHE89      -0.0042
     67  CE1       47.8510  -11.0610  -13.8810 C.ar   89  PHE89      -0.0003
     68  CE2       48.4140  -12.7000  -15.5490 C.ar   89  PHE89      -0.0003
     69  CZ        47.5030  -12.1670  -14.6420 C.ar   89  PHE89      -0.0000
     70  N         53.2640   -7.8620  -15.1370 N.am   90  ASP90      -0.1960
     71  CA        54.6640   -7.5380  -14.8270 C.3    90  ASP90       0.1840
     72  C         55.3770   -8.8450  -14.4700 C.2    90  ASP90       0.2622
     73  O         54.8430   -9.6620  -13.7130 O.2    90  ASP90      -0.2715
     74  CB        54.7410   -6.5780  -13.6460 C.3    90  ASP90       0.1450
     75  CG        54.5190   -5.1060  -14.0360 C.2    90  ASP90       0.3671
     76  OD1       54.8610   -4.6980  -15.1650 O.co2  90  ASP90      -0.2456
     77  OD2       54.0480   -4.3560  -13.1750 O.co2  90  ASP90      -0.2456
     78  N         56.5840   -9.0510  -14.9940 N.am   91  PHE91      -0.1960
     79  CA        57.3120  -10.3030  -14.6850 C.3    91  PHE91       0.1771
     80  C         57.9560  -10.2960  -13.2940 C.2    91  PHE91       0.2620
     81  O         58.5130   -9.2790  -12.8660 O.2    91  PHE91      -0.2715
     82  CB        58.3570  -10.5790  -15.7470 C.3    91  PHE91       0.0574
     83  CG        59.1330  -11.8420  -15.5230 C.ar   91  PHE91      -0.0200
     84  CD1       58.5720  -13.0870  -15.7900 C.ar   91  PHE91      -0.0042
     85  CD2       60.4420  -11.7900  -15.0690 C.ar   91  PHE91      -0.0042
     86  CE1       59.3100  -14.2490  -15.5970 C.ar   91  PHE91      -0.0003
     87  CE2       61.2160  -12.9540  -14.9380 C.ar   91  PHE91      -0.0003
     88  CZ        60.6280  -14.1820  -15.1610 C.ar   91  PHE91      -0.0000
     89  N         57.9190  -11.4320  -12.6120 N.am   92  CYS92      -0.1954
     90  CA        58.5910  -11.5860  -11.3080 C.3    92  CYS92       0.1843
     91  C         59.6270  -12.6820  -11.4300 C.2    92  CYS92       0.2625
     92  O         59.3130  -13.7990  -11.8990 O.2    92  CYS92      -0.2714
     93  CB        57.5770  -11.9530  -10.2210 C.3    92  CYS92       0.0997
     94  SG        56.3670  -10.6900   -9.9490 S.3    92  CYS92      -0.0797
     95  N         60.8520  -12.3900  -11.0070 N.am   93  GLU93      -0.1963
     96  CA        61.9770  -13.2860  -11.1870 C.3    93  GLU93       0.1733
     97  C         61.8220  -14.6420  -10.4890 C.2    93  GLU93       0.2616
     98  O         62.0660  -15.6940  -11.0940 O.2    93  GLU93      -0.2715
     99  CB        63.2700  -12.5970  -10.7590 C.3    93  GLU93       0.0429
    100  CG        64.5280  -13.4300  -10.9410 C.3    93  GLU93       0.1163
    101  CD        64.7320  -13.8840  -12.3800 C.2    93  GLU93       0.3649
    102  OE1       64.0350  -13.3550  -13.2800 O.co2  93  GLU93      -0.2457
    103  OE2       65.5540  -14.7960  -12.5920 O.co2  93  GLU93      -0.2457
    104  N         61.4250  -14.6120   -9.2240 N.am   94  HIS94      -0.1959
    105  CA        61.3550  -15.8360   -8.4220 C.3    94  HIS94       0.1787
    106  C         59.9540  -16.2900   -8.0640 C.2    94  HIS94       0.2620
    107  O         59.0160  -15.5020   -8.1070 O.2    94  HIS94      -0.2715
    108  CB        62.1840  -15.6900   -7.1290 C.3    94  HIS94       0.0785
    109  CG        63.5190  -15.0620   -7.3680 C.ar   94  HIS94       0.0821
    110  ND1       64.4800  -15.6480   -8.1650 N.ar   94  HIS94      -0.2267
    111  CD2       64.0300  -13.8750   -6.9660 C.ar   94  HIS94       0.1154
    112  CE1       65.5250  -14.8470   -8.2420 C.ar   94  HIS94       0.1986
    113  NE2       65.2820  -13.7680   -7.5180 N.ar   94  HIS94      -0.2212
    114  N         59.8460  -17.5540   -7.6460 N.am   95  ASP95      -0.1971
    115  CA        58.6230  -18.0620   -7.0490 C.3    95  ASP95       0.1709
    116  C         58.9150  -18.8070   -5.7390 C.2    95  ASP95       0.2293
    117  O         59.7300  -19.7200   -5.7200 O.2    95  ASP95      -0.2864
    118  CB        57.9110  -18.9850   -8.0320 C.3    95  ASP95       0.1436
    119  CG        56.9600  -19.8900   -7.3230 C.2    95  ASP95       0.3671
    120  OD1       56.3760  -19.3910   -6.3450 O.co2  95  ASP95      -0.2456
    121  OD2       56.8650  -21.0850   -7.6330 O.co2  95  ASP95      -0.2456
    122  N         57.6790  -21.1270   -4.0040 N.3    97  ALA97      -0.1231
    123  CA        57.7410  -22.6010   -4.0810 C.3    97  ALA97       0.1694
    124  C         59.1320  -23.0300   -4.6170 C.2    97  ALA97       0.2592
    125  O         59.7570  -23.9620   -4.0950 O.2    97  ALA97      -0.2718
    126  CB        56.6230  -23.1380   -4.9640 C.3    97  ALA97       0.0304
    127  N         59.5900  -22.3250   -5.6570 N.am   98  GLY98      -0.1957
    128  CA        60.8880  -22.5830   -6.2420 C.3    98  GLY98       0.1869
    129  C         62.0600  -22.3290   -5.3120 C.2    98  GLY98       0.2309
    130  O         62.9340  -23.1900   -5.1670 O.2    98  GLY98      -0.2863
    131  N         49.1530  -20.5830   -1.5540 N.3   137  LYS137     -0.1245
    132  CA        50.1940  -21.6150   -1.5150 C.3   137  LYS137      0.1561
    133  C         51.5240  -21.0400   -1.9630 C.2   137  LYS137      0.2260
    134  O         51.5670  -20.0220   -2.6810 O.2   137  LYS137     -0.2867
    135  CB        49.8110  -22.8390   -2.3670 C.3   137  LYS137      0.0271
    136  CG        49.5900  -22.5350   -3.8480 C.3   137  LYS137      0.0035
    137  CD        49.0070  -23.7160   -4.5770 C.3   137  LYS137      0.0206
    138  CE        49.2060  -23.6310   -6.0700 C.3   137  LYS137      0.1093
    139  NZ        48.2440  -24.4590   -6.8480 N.3   137  LYS137     -0.1314
    140  N         53.5050  -21.7270   -4.2620 N.3   139  ALA139     -0.1231
    141  CA        53.6810  -21.5600   -5.7010 C.3   139  ALA139      0.1694
    142  C         52.9950  -20.3020   -6.2680 C.2   139  ALA139      0.2592
    143  O         53.4310  -19.7600   -7.2950 O.2   139  ALA139     -0.2718
    144  CB        53.2670  -22.8110   -6.4440 C.3   139  ALA139      0.0304
    145  N         52.0120  -19.7970   -5.5340 N.am  140  ASN140     -0.1974
    146  CA        51.2870  -18.5940   -5.8880 C.3   140  ASN140      0.1688
    147  C         51.8650  -17.3190   -5.2680 C.2   140  ASN140      0.2292
    148  O         51.2870  -16.2300   -5.3990 O.2   140  ASN140     -0.2864
    149  CB        49.8250  -18.7320   -5.4600 C.3   140  ASN140      0.1181
    150  CG        49.0510  -19.6500   -6.3660 C.2   140  ASN140      0.2629
    151  OD1       49.4800  -19.9430   -7.4870 O.2   140  ASN140     -0.2716
    152  ND2       47.9080  -20.1180   -5.8950 N.am  140  ASN140     -0.0877
    153  N         55.0510  -14.8490   -5.4180 N.3   142  LEU142     -0.1245
    154  CA        56.2340  -14.5150   -6.2140 C.3   142  LEU142      0.1561
    155  C         57.1070  -13.4950   -5.4990 C.2   142  LEU142      0.2260
    156  O         56.6290  -12.7870   -4.5990 O.2   142  LEU142     -0.2867
    157  CB        55.8230  -13.9570   -7.5770 C.3   142  LEU142      0.0270
    158  CG        54.8610  -14.8490   -8.3550 C.3   142  LEU142      0.0019
    159  CD1       54.4230  -14.2120   -9.6380 C.3   142  LEU142      0.0001
    160  CD2       55.4560  -16.2090   -8.5760 C.3   142  LEU142      0.0001
    161  N         49.8970  -13.8510   -6.2880 N.3   152  ALA152     -0.1231
    162  CA        49.6460  -14.1140   -7.6940 C.3   152  ALA152      0.1694
    163  C         48.5290  -15.1370   -7.8530 C.2   152  ALA152      0.2592
    164  O         48.0380  -15.7040   -6.8660 O.2   152  ALA152     -0.2718
    165  CB        50.9260  -14.6300   -8.3470 C.3   152  ALA152      0.0304
    166  N         48.1160  -15.3740   -9.0980 N.am  153  ASP153     -0.1974
    167  CA        47.0720  -16.3250   -9.4050 C.3   153  ASP153      0.1709
    168  C         45.7400  -16.0540   -8.7350 C.2   153  ASP153      0.2293
    169  O         45.3760  -16.7170   -7.7600 O.2   153  ASP153     -0.2864
    170  CB        47.5420  -17.6970   -9.0400 C.3   153  ASP153      0.1436
    171  CG        46.9520  -18.7690   -9.9310 C.2   153  ASP153      0.3671
    172  OD1       45.7910  -18.6120  -10.3820 O.co2 153  ASP153     -0.2456
    173  OD2       47.6670  -19.7650  -10.1590 O.co2 153  ASP153     -0.2456
@<TRIPOS>BOND
     1    46    45    2
     2    45    44    1
     3    43    44    1
     4    44    47    1
     5    33    34    2
     6    33    32    1
     7    31    32    1
     8    40    41    2
     9    40    39    1
    10    32    35    1
    11     1     2    1
    12    47    48    1
    13    39    38    1
    14    39    42    1
    15    12    11    2
    16     7     5    1
    17    59    60    1
    18    48    49    1
    19     2     5    1
    20     2     3    1
    21    35    36    1
    22    35    37    1
    23     9     3   am
    24     9    10    1
    25    11    10    1
    26    62    61    2
    27     5     6    1
    28     6     8    1
    29    23    22    2
    30     3     4    2
    31    49    50    1
    32    60    61    1
    33    60    63    1
    34    61    70   am
    35    22    21    1
    36    84    86   ar
    37    84    83   ar
    38    82    83    1
    39    82    79    1
    40    50    51    1
    41    66    68   ar
    42    66    64   ar
    43    86    88   ar
    44    68    69   ar
    45    83    85   ar
    46    76    75   ar
    47    88    87   ar
    48    70    71    1
    49    63    64    1
    50    85    87   ar
    51    78    79    1
    52    78    72   am
    53    64    65   ar
    54    71    72    1
    55    71    74    1
    56    79    80    1
    57    69    67   ar
    58    16    15    2
    59    21    24    1
    60    21    20    1
    61    72    73    2
    62    13    14    1
    63    75    74    1
    64    75    77   ar
    65    65    67   ar
    66    15    20   am
    67    15    14    1
    68    24    25    1
    69    80    81    2
    70    80    89   am
    71   102   101   ar
    72    18    17    1
    73    14    17    1
    74    89    90    1
    75   103   101   ar
    76    25    27   ar
    77    25    26   ar
    78   101   100    1
    79    17    19    1
    80    27    29   ar
    81    92    91    2
    82    26    28   ar
    83    91    90    1
    84    91    95   am
    85    90    93    1
    86    96    95    1
    87    96    99    1
    88    96    97    1
    89    98    97    2
    90   100    99    1
    91    29    30   ar
    92    58    56    1
    93    97   104   am
    94   172   171   ar
    95    93    94    1
    96    28    30   ar
    97   173   171   ar
    98   171   170    1
    99    57    56    1
   100    54    55    2
   101    54    53    1
   102   159   158    1
   103    56    53    1
   104   167   166    1
   105   167   170    1
   106   167   168    1
   107   104   105    1
   108   166   163   am
   109    53    52    1
   110   168   169    2
   111   160   158    1
   112   105   106    1
   113   105   108    1
   114   158   157    1
   115   165   162    1
   116   112   110   ar
   117   112   113   ar
   118   110   109   ar
   119   107   106    2
   120   106   114   am
   121   118   119    1
   122   118   115    1
   123   163   162    1
   124   163   164    2
   125   162   161    1
   126   114   115    1
   127   121   119   ar
   128   157   154    1
   129   113   111   ar
   130   151   150    2
   131   109   108    1
   132   109   111   ar
   133   119   120   ar
   134   143   142    2
   135   115   116    1
   136   139   138    1
   137   144   141    1
   138   150   152   am
   139   150   149    1
   140   142   141    1
   141   142   145   am
   142   128   127    1
   143   128   129    1
   144   154   155    1
   145   154   153    1
   146   138   137    1
   147   146   145    1
   148   146   149    1
   149   146   147    1
   150   116   117    2
   151   141   140    1
   152   127   124   am
   153   155   156    2
   154   148   147    2
   155   129   130    2
   156   126   123    1
   157   124   125    2
   158   124   123    1
   159   137   136    1
   160   123   122    1
   161   136   135    1
   162   134   133    2
   163   135   132    1
   164   133   132    1
   165   131   132    1
