@<TRIPOS>MOLECULE
tmp/4bchA00.pdb
 157 150 0 0 0
SMALL
GASTEIGER

@<TRIPOS>ATOM
      1  N         57.8530  -20.6190  -19.0380 N.3    19  ILE19      -0.1231
      2  CA        58.3330  -20.8100  -17.6790 C.3    19  ILE19       0.1692
      3  C         57.4660  -21.7520  -16.8630 C.2    19  ILE19       0.2592
      4  O         57.9800  -22.5780  -16.0890 O.2    19  ILE19      -0.2718
      5  CB        58.4900  -19.4690  -16.9330 C.3    19  ILE19       0.0266
      6  CG1       57.1250  -18.7980  -16.7420 C.3    19  ILE19       0.0019
      7  CG2       59.4120  -18.5440  -17.7170 C.3    19  ILE19       0.0020
      8  CD1       57.2260  -17.4240  -16.1020 C.3    19  ILE19       0.0001
      9  N         56.1630  -21.5810  -16.9960 N.am   20  GLY20      -0.1957
     10  CA        55.2330  -22.3490  -16.2040 C.3    20  GLY20       0.1869
     11  C         55.3350  -23.8430  -16.4510 C.2    20  GLY20       0.2309
     12  O         55.6080  -24.6480  -15.5360 O.2    20  GLY20      -0.2863
     13  N         48.4690  -25.8940  -14.7260 N.3    24  PHE24      -0.1241
     14  CA        48.0240  -24.5160  -15.0390 C.3    24  PHE24       0.1605
     15  C         48.7920  -24.0200  -16.2950 C.2    24  PHE24       0.2264
     16  O         49.9960  -24.2110  -16.4130 O.2    24  PHE24      -0.2867
     17  CB        48.2920  -23.5960  -13.8500 C.3    24  PHE24       0.0534
     18  CG        49.7540  -23.4170  -13.5660 C.ar   24  PHE24      -0.0203
     19  CD1       50.4640  -22.4240  -14.2240 C.ar   24  PHE24      -0.0042
     20  CD2       50.4430  -24.2720  -12.6910 C.ar   24  PHE24      -0.0042
     21  CE1       51.8240  -22.2520  -14.0020 C.ar   24  PHE24      -0.0003
     22  CE2       51.8110  -24.1080  -12.4640 C.ar   24  PHE24      -0.0003
     23  CZ        52.5010  -23.0970  -13.1220 C.ar   24  PHE24      -0.0000
     24  N         52.0590  -20.1150  -18.5370 N.3    27  VAL27      -0.1245
     25  CA        52.7420  -18.8730  -18.3230 C.3    27  VAL27       0.1561
     26  C         54.0520  -18.7810  -19.1220 C.2    27  VAL27       0.2260
     27  O         54.9070  -19.6800  -19.0790 O.2    27  VAL27      -0.2867
     28  CB        52.9400  -18.5280  -16.8490 C.3    27  VAL27       0.0252
     29  CG1       52.2500  -19.5500  -15.9570 C.3    27  VAL27       0.0019
     30  CG2       54.4220  -18.4600  -16.5280 C.3    27  VAL27       0.0019
     31  N         55.1280  -11.3360  -17.7160 N.3    40  ALA40      -0.1245
     32  CA        54.6250  -12.7050  -17.7550 C.3    40  ALA40       0.1562
     33  C         53.3030  -12.7210  -18.5070 C.2    40  ALA40       0.2260
     34  O         52.4150  -11.9280  -18.2340 O.2    40  ALA40      -0.2867
     35  CB        54.4320  -13.2680  -16.3610 C.3    40  ALA40       0.0290
     36  N         49.9270  -14.9060  -19.5400 N.3    42  LYS42      -0.1245
     37  CA        49.0600  -16.0450  -19.3380 C.3    42  LYS42       0.1561
     38  C         47.9140  -16.0060  -20.3260 C.2    42  LYS42       0.2260
     39  O         47.1010  -15.0960  -20.3120 O.2    42  LYS42      -0.2867
     40  CB        48.5500  -16.0260  -17.9040 C.3    42  LYS42       0.0271
     41  CG        48.4510  -17.3920  -17.2810 C.3    42  LYS42       0.0035
     42  CD        47.3280  -17.4240  -16.2190 C.3    42  LYS42       0.0206
     43  CE        46.5130  -18.7000  -16.3090 C.3    42  LYS42       0.1093
     44  NZ        45.0820  -18.4910  -15.9230 N.3    42  LYS42      -0.1314
     45  N         50.7700   -8.9380   -7.2060 N.3    73  VAL73      -0.1245
     46  CA        51.2250   -8.9760   -8.5790 C.3    73  VAL73       0.1561
     47  C         50.4180   -7.9630   -9.3730 C.2    73  VAL73       0.2260
     48  O         49.2630   -7.6860   -9.0710 O.2    73  VAL73      -0.2867
     49  CB        51.0520  -10.4120   -9.0560 C.3    73  VAL73       0.0252
     50  CG1       49.6330  -10.6890   -9.5370 C.3    73  VAL73       0.0019
     51  CG2       52.0910  -10.8290  -10.0240 C.3    73  VAL73       0.0019
     52  N         51.3750   -9.5940  -17.0510 N.3    90  PHE90      -0.1227
     53  CA        51.8490   -9.1460  -15.7200 C.3    90  PHE90       0.1736
     54  C         53.2970   -8.6820  -15.6730 C.2    90  PHE90       0.2595
     55  O         54.1340   -9.1800  -16.4380 O.2    90  PHE90      -0.2718
     56  CB        51.7630  -10.3070  -14.7220 C.3    90  PHE90       0.0547
     57  CG        50.3890  -10.8920  -14.5880 C.ar   90  PHE90      -0.0202
     58  CD1       49.9710  -11.8910  -15.4330 C.ar   90  PHE90      -0.0042
     59  CD2       49.5460  -10.4930  -13.5620 C.ar   90  PHE90      -0.0042
     60  CE1       48.7120  -12.4640  -15.2900 C.ar   90  PHE90      -0.0003
     61  CE2       48.2750  -11.0300  -13.4310 C.ar   90  PHE90      -0.0003
     62  CZ        47.8640  -12.0250  -14.2940 C.ar   90  PHE90      -0.0000
     63  N         53.6050   -7.7620  -14.7620 N.am   91  ASP91      -0.1960
     64  CA        55.0140   -7.4390  -14.4530 C.3    91  ASP91       0.1840
     65  C         55.7160   -8.7690  -14.1230 C.2    91  ASP91       0.2622
     66  O         55.2010   -9.5640  -13.3320 O.2    91  ASP91      -0.2715
     67  CB        55.1010   -6.5030  -13.2620 C.3    91  ASP91       0.1450
     68  CG        54.8770   -5.0280  -13.6170 C.2    91  ASP91       0.3671
     69  OD1       55.1610   -4.6230  -14.7570 O.co2  91  ASP91      -0.2456
     70  OD2       54.4170   -4.2770  -12.7230 O.co2  91  ASP91      -0.2456
     71  N         56.8750   -9.0290  -14.7320 N.am   92  PHE92      -0.1960
     72  CA        57.5620  -10.3100  -14.4840 C.3    92  PHE92       0.1771
     73  C         58.3010  -10.3480  -13.1410 C.2    92  PHE92       0.2620
     74  O         58.9010   -9.3620  -12.7370 O.2    92  PHE92      -0.2715
     75  CB        58.5290  -10.6220  -15.6200 C.3    92  PHE92       0.0574
     76  CG        59.2530  -11.9240  -15.4600 C.ar   92  PHE92      -0.0200
     77  CD1       58.6110  -13.1330  -15.7090 C.ar   92  PHE92      -0.0042
     78  CD2       60.5840  -11.9460  -15.0930 C.ar   92  PHE92      -0.0042
     79  CE1       59.2910  -14.3420  -15.5370 C.ar   92  PHE92      -0.0003
     80  CE2       61.2860  -13.1550  -14.9590 C.ar   92  PHE92      -0.0003
     81  CZ        60.6260  -14.3510  -15.1700 C.ar   92  PHE92      -0.0000
     82  N         58.2830  -11.4860  -12.4620 N.am   93  CYS93      -0.1954
     83  CA        58.9970  -11.6490  -11.1900 C.3    93  CYS93       0.1843
     84  C         60.0010  -12.7820  -11.3010 C.2    93  CYS93       0.2625
     85  O         59.6440  -13.8990  -11.6970 O.2    93  CYS93      -0.2714
     86  CB        58.0060  -11.9520  -10.0420 C.3    93  CYS93       0.0997
     87  SG        56.7480  -10.7320   -9.6920 S.3    93  CYS93      -0.0797
     88  N         61.2400  -12.5080  -10.9050 N.am   94  GLU94      -0.1963
     89  CA        62.3500  -13.4190  -11.0890 C.3    94  GLU94       0.1733
     90  C         62.1800  -14.7540  -10.3470 C.2    94  GLU94       0.2616
     91  O         62.4410  -15.8220  -10.9020 O.2    94  GLU94      -0.2715
     92  CB        63.6430  -12.7240  -10.6470 C.3    94  GLU94       0.0429
     93  CG        64.8990  -13.5800  -10.7360 C.3    94  GLU94       0.1163
     94  CD        65.0720  -14.1940  -12.1170 C.2    94  GLU94       0.3649
     95  OE1       64.1580  -14.0070  -12.9570 O.co2  94  GLU94      -0.2457
     96  OE2       66.1060  -14.8540  -12.3500 O.co2  94  GLU94      -0.2457
     97  N         61.7700  -14.6910   -9.0910 N.am   95  HIS95      -0.1959
     98  CA        61.7030  -15.8920   -8.2510 C.3    95  HIS95       0.1787
     99  C         60.2980  -16.3300   -7.8980 C.2    95  HIS95       0.2620
    100  O         59.3850  -15.5030   -7.8980 O.2    95  HIS95      -0.2715
    101  CB        62.4650  -15.6350   -6.9380 C.3    95  HIS95       0.0785
    102  CG        63.8240  -15.0530   -7.1780 C.ar   95  HIS95       0.0821
    103  ND1       64.8740  -15.8070   -7.6590 N.ar   95  HIS95      -0.2267
    104  CD2       64.2900  -13.7890   -7.0410 C.ar   95  HIS95       0.1154
    105  CE1       65.9340  -15.0310   -7.7930 C.ar   95  HIS95       0.1986
    106  NE2       65.6050  -13.8020   -7.4360 N.ar   95  HIS95      -0.2212
    107  N         60.1530  -17.5770   -7.4380 N.am   96  ASP96      -0.1971
    108  CA        58.9800  -17.9050   -6.6430 C.3    96  ASP96       0.1709
    109  C         59.3450  -18.7220   -5.4040 C.2    96  ASP96       0.2293
    110  O         60.1920  -19.6070   -5.4490 O.2    96  ASP96      -0.2864
    111  CB        57.9000  -18.5530   -7.4680 C.3    96  ASP96       0.1436
    112  CG        58.0130  -20.0350   -7.4920 C.2    96  ASP96       0.3671
    113  OD1       58.9440  -20.5410   -8.1550 O.co2  96  ASP96      -0.2456
    114  OD2       57.1800  -20.6860   -6.8310 O.co2  96  ASP96      -0.2456
    115  N         58.3130  -21.1600   -3.7340 N.3    98  ALA98      -0.1231
    116  CA        58.4110  -22.6230   -3.7690 C.3    98  ALA98       0.1694
    117  C         59.7580  -23.0900   -4.3420 C.2    98  ALA98       0.2592
    118  O         60.3900  -24.0290   -3.8140 O.2    98  ALA98      -0.2718
    119  CB        57.2510  -23.2390   -4.5280 C.3    98  ALA98       0.0304
    120  N         60.1930  -22.4290   -5.4110 N.am   99  GLY99      -0.1957
    121  CA        61.4950  -22.6880   -6.0040 C.3    99  GLY99       0.1869
    122  C         62.6650  -22.3800   -5.0950 C.2    99  GLY99       0.2309
    123  O         63.5560  -23.2190   -4.9410 O.2    99  GLY99      -0.2863
    124  N         54.0930  -21.7070   -3.8850 N.3   140  ALA140     -0.1231
    125  CA        54.2750  -21.5630   -5.3210 C.3   140  ALA140      0.1694
    126  C         53.5730  -20.3290   -5.9050 C.2   140  ALA140      0.2592
    127  O         53.9120  -19.8600   -6.9900 O.2   140  ALA140     -0.2718
    128  CB        53.8960  -22.8340   -6.0480 C.3   140  ALA140      0.0304
    129  N         52.6020  -19.8050   -5.1620 N.am  141  ASN141     -0.1974
    130  CA        51.8850  -18.5930   -5.5680 C.3   141  ASN141      0.1688
    131  C         52.4690  -17.3230   -4.9630 C.2   141  ASN141      0.2292
    132  O         51.8910  -16.2410   -5.0910 O.2   141  ASN141     -0.2864
    133  CB        50.4090  -18.6980   -5.1930 C.3   141  ASN141      0.1181
    134  CG        49.6650  -19.6290   -6.1010 C.2   141  ASN141      0.2629
    135  OD1       50.0930  -19.8210   -7.2470 O.2   141  ASN141     -0.2716
    136  ND2       48.5450  -20.2000   -5.6260 N.am  141  ASN141     -0.0877
    137  N         55.4960  -14.8550   -5.1210 N.3   143  LEU143     -0.1245
    138  CA        56.6530  -14.4970   -5.9570 C.3   143  LEU143      0.1561
    139  C         57.5710  -13.5090   -5.2570 C.2   143  LEU143      0.2260
    140  O         57.1390  -12.7710   -4.3590 O.2   143  LEU143     -0.2867
    141  CB        56.1670  -13.8800   -7.2660 C.3   143  LEU143      0.0270
    142  CG        55.2320  -14.7690   -8.0750 C.3   143  LEU143      0.0019
    143  CD1       54.9610  -14.1780   -9.4280 C.3   143  LEU143      0.0001
    144  CD2       55.8010  -16.1600   -8.1900 C.3   143  LEU143      0.0001
    145  N         50.4180  -13.9130   -5.8870 N.3   153  ALA153     -0.1231
    146  CA        50.1360  -14.1370   -7.3050 C.3   153  ALA153      0.1694
    147  C         48.9850  -15.1090   -7.4820 C.2   153  ALA153      0.2592
    148  O         48.5010  -15.6880   -6.5070 O.2   153  ALA153     -0.2718
    149  CB        51.3790  -14.6620   -8.0070 C.3   153  ALA153      0.0304
    150  N         48.5390  -15.2860   -8.7260 N.am  154  ASP154     -0.1974
    151  CA        47.5150  -16.2820   -9.0320 C.3   154  ASP154      0.1709
    152  C         46.1810  -16.0360   -8.3570 C.2   154  ASP154      0.2293
    153  O         45.8470  -16.6950   -7.3680 O.2   154  ASP154     -0.2864
    154  CB        48.0080  -17.6670   -8.6620 C.3   154  ASP154      0.1436
    155  CG        47.2730  -18.7540   -9.4070 C.2   154  ASP154      0.3671
    156  OD1       46.3020  -18.4080  -10.1280 O.co2 154  ASP154     -0.2456
    157  OD2       47.6910  -19.9330   -9.3030 O.co2 154  ASP154     -0.2456
@<TRIPOS>BOND
     1    38    39    2
     2    38    37    1
     3    36    37    1
     4    37    40    1
     5    26    27    2
     6    26    25    1
     7     1     2    1
     8    24    25    1
     9    33    34    2
    10    33    32    1
    11    25    28    1
    12    40    41    1
    13    32    31    1
    14    32    35    1
    15     7     5    1
    16     2     5    1
    17     2     3    1
    18    41    42    1
    19    52    53    1
    20     9     3   am
    21     9    10    1
    22     5     6    1
    23     3     4    2
    24    28    30    1
    25    28    29    1
    26     6     8    1
    27    11    10    1
    28    11    12    2
    29    55    54    2
    30    16    15    2
    31    43    42    1
    32    43    44    1
    33    15    14    1
    34    53    54    1
    35    53    56    1
    36    77    79   ar
    37    77    76   ar
    38    54    63   am
    39    75    76    1
    40    75    72    1
    41    79    81   ar
    42    76    78   ar
    43    58    60   ar
    44    58    57   ar
    45    60    62   ar
    46    81    80   ar
    47    78    80   ar
    48    14    13    1
    49    14    17    1
    50    63    64    1
    51    69    68   ar
    52    71    72    1
    53    71    65   am
    54    56    57    1
    55    57    59   ar
    56    72    73    1
    57    64    65    1
    58    64    67    1
    59    62    61   ar
    60    19    21   ar
    61    19    18   ar
    62    65    66    2
    63    21    23   ar
    64    17    18    1
    65    68    67    1
    66    68    70   ar
    67    18    20   ar
    68    59    61   ar
    69    73    74    2
    70    73    82   am
    71    23    22   ar
    72    95    94   ar
    73    20    22   ar
    74    82    83    1
    75    96    94   ar
    76    94    93    1
    77    85    84    2
    78    84    83    1
    79    84    88   am
    80    83    86    1
    81    89    88    1
    82    89    92    1
    83    89    90    1
    84    91    90    2
    85    93    92    1
    86    90    97   am
    87   156   155   ar
    88    86    87    1
    89    51    49    1
    90    50    49    1
    91   143   142    1
    92   155   157   ar
    93   155   154    1
    94    47    48    2
    95    47    46    1
    96    97    98    1
    97    49    46    1
    98   151   150    1
    99   151   154    1
   100   151   152    1
   101   150   147   am
   102    46    45    1
   103   152   153    2
   104    98    99    1
   105    98   101    1
   106   144   142    1
   107   113   112   ar
   108   142   141    1
   109   149   146    1
   110    99   100    2
   111    99   107   am
   112   105   103   ar
   113   105   106   ar
   114   103   102   ar
   115   112   111    1
   116   112   114   ar
   117   147   146    1
   118   147   148    2
   119   111   108    1
   120   107   108    1
   121   106   104   ar
   122   146   145    1
   123   141   138    1
   124   135   134    2
   125   102   104   ar
   126   102   101    1
   127   127   126    2
   128   108   109    1
   129   134   136   am
   130   134   133    1
   131   128   125    1
   132   121   120    1
   133   121   122    1
   134   138   139    1
   135   138   137    1
   136   126   125    1
   137   126   129   am
   138   130   133    1
   139   130   129    1
   140   130   131    1
   141   110   109    2
   142   120   117   am
   143   125   124    1
   144   139   140    2
   145   122   123    2
   146   132   131    2
   147   119   116    1
   148   117   118    2
   149   117   116    1
   150   116   115    1
