@<TRIPOS>MOLECULE
tmp/4bciA00.pdb
 170 163 0 0 0
SMALL
GASTEIGER

@<TRIPOS>ATOM
      1  N         57.5960  -20.3840  -18.5460 N.3    21  ILE21      -0.1231
      2  CA        58.0570  -20.3460  -17.1580 C.3    21  ILE21       0.1692
      3  C         57.3350  -21.3160  -16.2160 C.2    21  ILE21       0.2593
      4  O         57.9800  -21.9700  -15.3950 O.2    21  ILE21      -0.2718
      5  CB        57.9410  -18.9390  -16.5630 C.3    21  ILE21       0.0266
      6  CG1       56.4770  -18.5200  -16.4310 C.3    21  ILE21       0.0019
      7  CG2       58.7130  -17.9260  -17.3960 C.3    21  ILE21       0.0020
      8  CD1       56.3150  -17.1190  -15.8790 C.3    21  ILE21       0.0001
      9  N         56.0250  -21.4370  -16.3580 N.am   22  GLY22      -0.1942
     10  CA        55.2700  -22.3510  -15.5300 C.3    22  GLY22       0.2014
     11  C         55.8290  -23.7570  -15.5270 C.2    22  GLY22       0.2638
     12  O         55.8850  -24.4150  -14.4860 O.2    22  GLY22      -0.2714
     13  N         56.2660  -24.2010  -16.6980 N.am   23  GLN23      -0.1977
     14  CA        56.9200  -25.5020  -16.8410 C.3    23  GLN23       0.1601
     15  C         56.0620  -26.7010  -16.4320 C.2    23  GLN23       0.2287
     16  O         56.5120  -27.8510  -16.5140 O.2    23  GLN23      -0.2864
     17  CB        58.2560  -25.5040  -16.0820 C.3    23  GLN23       0.0394
     18  CG        59.3330  -24.7090  -16.7910 C.3    23  GLN23       0.0908
     19  CD        60.6000  -24.5430  -15.9820 C.2    23  GLN23       0.2608
     20  OE1       60.6050  -24.6880  -14.7590 O.2    23  GLN23      -0.2717
     21  NE2       61.6890  -24.2270  -16.6660 N.am   23  GLN23      -0.0878
     22  N         50.8990  -25.8030  -17.5860 N.3    26  PHE26      -0.1227
     23  CA        49.7120  -25.1850  -17.0190 C.3    26  PHE26       0.1736
     24  C         49.6680  -23.6660  -17.2080 C.2    26  PHE26       0.2596
     25  O         50.6270  -22.9590  -16.9280 O.2    26  PHE26      -0.2718
     26  CB        49.5490  -25.5360  -15.5460 C.3    26  PHE26       0.0547
     27  CG        50.7570  -25.2440  -14.6980 C.ar   26  PHE26      -0.0202
     28  CD1       51.2060  -23.9440  -14.5050 C.ar   26  PHE26      -0.0042
     29  CD2       51.4050  -26.2750  -14.0300 C.ar   26  PHE26      -0.0042
     30  CE1       52.3010  -23.6860  -13.7040 C.ar   26  PHE26      -0.0003
     31  CE2       52.5020  -26.0220  -13.2250 C.ar   26  PHE26      -0.0003
     32  CZ        52.9590  -24.7300  -13.0730 C.ar   26  PHE26      -0.0000
     33  N         48.5410  -23.2000  -17.7480 N.am   27  GLY27      -0.1957
     34  CA        48.2990  -21.8030  -18.0040 C.3    27  GLY27       0.1869
     35  C         48.7000  -21.3450  -19.3940 C.2    27  GLY27       0.2309
     36  O         48.2700  -20.2860  -19.8600 O.2    27  GLY27      -0.2863
     37  N         51.7940  -20.2730  -19.7070 N.3    29  VAL29      -0.1245
     38  CA        52.4410  -19.0910  -19.1570 C.3    29  VAL29       0.1561
     39  C         53.8620  -18.8820  -19.6820 C.2    29  VAL29       0.2260
     40  O         54.7230  -19.7480  -19.5250 O.2    29  VAL29      -0.2867
     41  CB        52.5320  -19.1990  -17.6110 C.3    29  VAL29       0.0252
     42  CG1       53.2240  -17.9750  -17.0430 C.3    29  VAL29       0.0019
     43  CG2       51.1480  -19.3400  -17.0140 C.3    29  VAL29       0.0019
     44  N         57.3940  -16.2840  -20.3950 N.3    31  LYS31      -0.1245
     45  CA        58.1740  -15.0730  -20.1840 C.3    31  LYS31       0.1561
     46  C         58.2610  -14.3650  -21.5270 C.2    31  LYS31       0.2260
     47  O         58.4210  -15.0090  -22.5560 O.2    31  LYS31      -0.2867
     48  CB        59.5770  -15.4030  -19.6810 C.3    31  LYS31       0.0271
     49  CG        60.3660  -14.1530  -19.2930 C.3    31  LYS31       0.0035
     50  CD        61.7760  -14.5380  -18.8530 C.3    31  LYS31       0.0206
     51  CE        62.6420  -13.3160  -18.6020 C.3    31  LYS31       0.1093
     52  NZ        64.0830  -13.6760  -18.3710 N.3    31  LYS31      -0.1314
     53  N         55.1680  -11.3770  -18.0880 N.3    42  ALA42      -0.1245
     54  CA        54.6590  -12.7420  -18.1240 C.3    42  ALA42       0.1562
     55  C         53.3210  -12.7600  -18.8350 C.2    42  ALA42       0.2260
     56  O         52.4310  -11.9730  -18.5260 O.2    42  ALA42      -0.2867
     57  CB        54.5110  -13.3410  -16.7170 C.3    42  ALA42       0.0290
     58  N         49.9300  -14.8710  -19.7620 N.3    44  LYS44      -0.1245
     59  CA        49.0450  -16.0080  -19.5120 C.3    44  LYS44       0.1561
     60  C         47.9500  -15.9920  -20.5490 C.2    44  LYS44       0.2260
     61  O         47.1360  -15.0820  -20.6090 O.2    44  LYS44      -0.2867
     62  CB        48.4640  -15.9390  -18.1040 C.3    44  LYS44       0.0271
     63  CG        48.0060  -17.2850  -17.5710 C.3    44  LYS44       0.0035
     64  CD        47.1940  -17.0980  -16.2990 C.3    44  LYS44       0.0206
     65  CE        46.9730  -18.3930  -15.5280 C.3    44  LYS44       0.1093
     66  NZ        46.7100  -18.1290  -14.0680 N.3    44  LYS44      -0.1314
     67  N         50.7490   -8.9180   -7.4320 N.3    75  VAL75      -0.1245
     68  CA        51.0830   -9.0330   -8.8390 C.3    75  VAL75       0.1561
     69  C         50.3090   -8.0370   -9.6440 C.2    75  VAL75       0.2260
     70  O         49.1730   -7.7490   -9.3390 O.2    75  VAL75      -0.2867
     71  CB        50.7930  -10.4700   -9.3470 C.3    75  VAL75       0.0252
     72  CG1       50.9490  -10.5680  -10.7990 C.3    75  VAL75       0.0019
     73  CG2       51.7850  -11.4240   -8.7060 C.3    75  VAL75       0.0019
     74  N         51.3970   -9.6440  -17.4020 N.3    90  PHE90      -0.1227
     75  CA        51.9050   -9.1860  -16.1000 C.3    90  PHE90       0.1736
     76  C         53.3270   -8.6630  -16.0950 C.2    90  PHE90       0.2595
     77  O         54.1520   -9.0710  -16.9210 O.2    90  PHE90      -0.2718
     78  CB        51.8310  -10.2940  -15.0490 C.3    90  PHE90       0.0547
     79  CG        50.4610  -10.8920  -14.9000 C.ar   90  PHE90      -0.0202
     80  CD1       50.0580  -11.9310  -15.7350 C.ar   90  PHE90      -0.0042
     81  CD2       49.5730  -10.4080  -13.9670 C.ar   90  PHE90      -0.0042
     82  CE1       48.8110  -12.5070  -15.5990 C.ar   90  PHE90      -0.0003
     83  CE2       48.3240  -10.9900  -13.8110 C.ar   90  PHE90      -0.0003
     84  CZ        47.9340  -12.0310  -14.6420 C.ar   90  PHE90      -0.0000
     85  N         53.6040   -7.7700  -15.1410 N.am   91  ASP91      -0.1960
     86  CA        54.9890   -7.4330  -14.7980 C.3    91  ASP91       0.1840
     87  C         55.7080   -8.7390  -14.4490 C.2    91  ASP91       0.2622
     88  O         55.2220   -9.5200  -13.6340 O.2    91  ASP91      -0.2715
     89  CB        55.0360   -6.4610  -13.6330 C.3    91  ASP91       0.1450
     90  CG        54.8560   -4.9930  -14.0600 C.2    91  ASP91       0.3671
     91  OD1       55.1930   -4.6490  -15.2160 O.co2  91  ASP91      -0.2456
     92  OD2       54.3980   -4.1920  -13.2350 O.co2  91  ASP91      -0.2456
     93  N         56.8660   -8.9870  -15.0640 N.am   92  PHE92      -0.1960
     94  CA        57.6070  -10.2240  -14.7770 C.3    92  PHE92       0.1771
     95  C         58.3090  -10.2110  -13.4060 C.2    92  PHE92       0.2620
     96  O         58.8480   -9.1910  -12.9920 O.2    92  PHE92      -0.2715
     97  CB        58.6190  -10.5090  -15.8650 C.3    92  PHE92       0.0574
     98  CG        59.3650  -11.7940  -15.6700 C.ar   92  PHE92      -0.0200
     99  CD1       58.7520  -13.0240  -15.9150 C.ar   92  PHE92      -0.0042
    100  CD2       60.6970  -11.7780  -15.3130 C.ar   92  PHE92      -0.0042
    101  CE1       59.4660  -14.2090  -15.7490 C.ar   92  PHE92      -0.0003
    102  CE2       61.4350  -12.9660  -15.1830 C.ar   92  PHE92      -0.0003
    103  CZ        60.8030  -14.1820  -15.3720 C.ar   92  PHE92      -0.0000
    104  N         58.2540  -11.3450  -12.7110 N.am   93  CYS93      -0.1954
    105  CA        58.9330  -11.5020  -11.4300 C.3    93  CYS93       0.1843
    106  C         60.0050  -12.5550  -11.5870 C.2    93  CYS93       0.2625
    107  O         59.7190  -13.7080  -11.9840 O.2    93  CYS93      -0.2714
    108  CB        57.9460  -11.8870  -10.3180 C.3    93  CYS93       0.0997
    109  SG        56.8290  -10.5320   -9.8990 S.3    93  CYS93      -0.0797
    110  N         61.2370  -12.1770  -11.2530 N.am   94  GLU94      -0.1963
    111  CA        62.3820  -13.0630  -11.4120 C.3    94  GLU94       0.1733
    112  C         62.1670  -14.4260  -10.7480 C.2    94  GLU94       0.2616
    113  O         62.1520  -15.4400  -11.4410 O.2    94  GLU94      -0.2715
    114  CB        63.6450  -12.3870  -10.9030 C.3    94  GLU94       0.0429
    115  CG        64.9050  -13.2530  -10.9860 C.3    94  GLU94       0.1163
    116  CD        65.2500  -13.6310  -12.4160 C.2    94  GLU94       0.3649
    117  OE1       64.3140  -13.6520  -13.2510 O.co2  94  GLU94      -0.2457
    118  OE2       66.4360  -13.8900  -12.6940 O.co2  94  GLU94      -0.2457
    119  N         61.9230  -14.4510   -9.4390 N.am   95  HIS95      -0.1959
    120  CA        61.7930  -15.7220   -8.7270 C.3    95  HIS95       0.1787
    121  C         60.3670  -16.0220   -8.2530 C.2    95  HIS95       0.2620
    122  O         59.5080  -15.1360   -8.2430 O.2    95  HIS95      -0.2715
    123  CB        62.7210  -15.7650   -7.5090 C.3    95  HIS95       0.0785
    124  CG        64.0050  -15.0160   -7.6640 C.ar   95  HIS95       0.0821
    125  ND1       65.1570  -15.5870   -8.1560 N.ar   95  HIS95      -0.2267
    126  CD2       64.3150  -13.7270   -7.3770 C.ar   95  HIS95       0.1154
    127  CE1       66.1210  -14.6820   -8.1710 C.ar   95  HIS95       0.1986
    128  NE2       65.6370  -13.5450   -7.7080 N.ar   95  HIS95      -0.2212
    129  N         60.1560  -17.2590   -7.8190 N.am   96  ASP96      -0.1971
    130  CA        58.9970  -17.5330   -7.0210 C.3    96  ASP96       0.1709
    131  C         59.3500  -18.4070   -5.8020 C.2    96  ASP96       0.2293
    132  O         60.1440  -19.3290   -5.8990 O.2    96  ASP96      -0.2864
    133  CB        57.8860  -18.1240   -7.8710 C.3    96  ASP96       0.1436
    134  CG        57.8110  -19.6120   -7.7830 C.2    96  ASP96       0.3671
    135  OD1       58.8620  -20.2630   -7.9190 O.co2  96  ASP96      -0.2456
    136  OD2       56.6860  -20.1300   -7.5830 O.co2  96  ASP96      -0.2456
    137  N         54.0470  -21.6100   -4.1190 N.3   140  ALA140     -0.1231
    138  CA        54.1760  -21.5460   -5.5740 C.3   140  ALA140      0.1694
    139  C         53.5580  -20.2660   -6.1780 C.2   140  ALA140      0.2592
    140  O         54.0390  -19.7450   -7.1840 O.2   140  ALA140     -0.2718
    141  CB        53.5530  -22.7820   -6.2020 C.3   140  ALA140      0.0304
    142  N         52.5620  -19.7380   -5.4800 N.am  141  ASN141     -0.1974
    143  CA        51.8240  -18.5520   -5.9180 C.3   141  ASN141      0.1688
    144  C         52.3930  -17.2500   -5.3350 C.2   141  ASN141      0.2292
    145  O         51.7660  -16.1850   -5.3640 O.2   141  ASN141     -0.2864
    146  CB        50.3590  -18.6860   -5.5110 C.3   141  ASN141      0.1181
    147  CG        49.6200  -19.6750   -6.3630 C.2   141  ASN141      0.2629
    148  OD1       50.0840  -20.0280   -7.4480 O.2   141  ASN141     -0.2716
    149  ND2       48.4570  -20.1130   -5.9010 N.am  141  ASN141     -0.0877
    150  N         55.5910  -14.8070   -5.5700 N.3   143  LEU143     -0.1245
    151  CA        56.7740  -14.4630   -6.3630 C.3   143  LEU143      0.1561
    152  C         57.5990  -13.3980   -5.6780 C.2   143  LEU143      0.2260
    153  O         57.0830  -12.6440   -4.8560 O.2   143  LEU143     -0.2867
    154  CB        56.3460  -13.9440   -7.7620 C.3   143  LEU143      0.0270
    155  CG        55.1280  -14.6850   -8.3250 C.3   143  LEU143      0.0019
    156  CD1       54.5440  -13.9690   -9.4870 C.3   143  LEU143      0.0001
    157  CD2       55.4960  -16.1140   -8.6580 C.3   143  LEU143      0.0001
    158  N         50.3560  -13.8270   -6.1800 N.3   153  ALA153     -0.1231
    159  CA        50.0730  -14.0540   -7.5870 C.3   153  ALA153      0.1694
    160  C         48.9600  -15.0720   -7.7630 C.2   153  ALA153      0.2592
    161  O         48.5190  -15.6910   -6.7970 O.2   153  ALA153     -0.2718
    162  CB        51.3390  -14.5530   -8.2780 C.3   153  ALA153      0.0304
    163  N         48.5190  -15.2480   -9.0040 N.am  154  ASP154     -0.1974
    164  CA        47.5410  -16.2810   -9.3270 C.3   154  ASP154      0.1709
    165  C         46.1990  -16.0810   -8.6450 C.2   154  ASP154      0.2293
    166  O         45.8720  -16.7520   -7.6660 O.2   154  ASP154     -0.2864
    167  CB        48.0750  -17.6590   -8.9850 C.3   154  ASP154      0.1436
    168  CG        47.5450  -18.7250   -9.9280 C.2   154  ASP154      0.3671
    169  OD1       46.4080  -18.5520  -10.4210 O.co2 154  ASP154     -0.2456
    170  OD2       48.2700  -19.7210  -10.1630 O.co2 154  ASP154     -0.2456
@<TRIPOS>BOND
     1    47    46    2
     2    46    45    1
     3    61    60    2
     4    60    59    1
     5    44    45    1
     6    45    48    1
     7    36    35    2
     8    58    59    1
     9    37    38    1
    10    39    40    2
    11    39    38    1
    12    48    49    1
    13    59    62    1
    14    35    34    1
    15    49    50    1
    16    38    41    1
    17    50    51    1
    18    55    56    2
    19    55    54    1
    20    51    52    1
    21     1     2    1
    22    54    53    1
    23    54    57    1
    24    62    63    1
    25    34    33    1
    26    33    24   am
    27    41    42    1
    28    41    43    1
    29    22    23    1
    30    63    64    1
    31    74    75    1
    32     7     5    1
    33    24    23    1
    34    24    25    2
    35     2     5    1
    36     2     3    1
    37    23    26    1
    38    77    76    2
    39    14    13    1
    40    14    15    1
    41    14    17    1
    42    18    17    1
    43    18    19    1
    44    13    11   am
    45    21    19   am
    46     5     6    1
    47    16    15    2
    48     6     8    1
    49     9     3   am
    50     9    10    1
    51    64    65    1
    52     3     4    2
    53    75    76    1
    54    75    78    1
    55    76    85   am
    56    19    20    2
    57    99   101   ar
    58    99    98   ar
    59    97    98    1
    60    97    94    1
    61   101   103   ar
    62    80    82   ar
    63    80    79   ar
    64    98   100   ar
    65    82    84   ar
    66    26    27    1
    67    10    11    1
    68    65    66    1
    69    11    12    2
    70   103   102   ar
    71   100   102   ar
    72    91    90   ar
    73    85    86    1
    74    93    94    1
    75    93    87   am
    76    78    79    1
    77    79    81   ar
    78    86    87    1
    79    86    89    1
    80    94    95    1
    81    27    28   ar
    82    27    29   ar
    83    84    83   ar
    84    28    30   ar
    85    87    88    2
    86    90    89    1
    87    90    92   ar
    88    29    31   ar
    89    81    83   ar
    90    30    32   ar
    91    95    96    2
    92    95   104   am
    93   117   116   ar
    94    31    32   ar
    95   104   105    1
    96   118   116   ar
    97   116   115    1
    98   107   106    2
    99   106   105    1
   100   106   110   am
   101   113   112    2
   102   105   108    1
   103   111   110    1
   104   111   114    1
   105   111   112    1
   106   115   114    1
   107    72    71    1
   108   112   119   am
   109   169   168   ar
   110   108   109    1
   111   170   168   ar
   112   168   167    1
   113    69    70    2
   114    69    68    1
   115   156   155    1
   116   119   120    1
   117    71    68    1
   118    71    73    1
   119   164   163    1
   120   164   167    1
   121   164   165    1
   122   163   160   am
   123    68    67    1
   124   120   121    1
   125   120   123    1
   126   157   155    1
   127   165   166    2
   128   155   154    1
   129   162   159    1
   130   121   122    2
   131   121   129   am
   132   127   125   ar
   133   127   128   ar
   134   125   124   ar
   135   135   134   ar
   136   133   134    1
   137   133   130    1
   138   129   130    1
   139   134   136   ar
   140   160   159    1
   141   160   161    2
   142   154   151    1
   143   128   126   ar
   144   124   123    1
   145   124   126   ar
   146   159   158    1
   147   148   147    2
   148   140   139    2
   149   130   131    1
   150   147   149   am
   151   147   146    1
   152   151   152    1
   153   151   150    1
   154   141   138    1
   155   139   138    1
   156   139   142   am
   157   143   146    1
   158   143   142    1
   159   143   144    1
   160   132   131    2
   161   152   153    2
   162   138   137    1
   163   145   144    2
