@<TRIPOS>MOLECULE
tmp/4bcjA00.pdb
 156 149 0 0 0
SMALL
GASTEIGER

@<TRIPOS>ATOM
      1  N         57.5270  -20.3910  -18.3150 N.3    20  ILE20      -0.1231
      2  CA        57.7710  -20.6000  -16.8910 C.3    20  ILE20       0.1692
      3  C         56.7910  -21.6000  -16.3060 C.2    20  ILE20       0.2592
      4  O         57.2070  -22.5510  -15.6140 O.2    20  ILE20      -0.2718
      5  CB        57.7610  -19.2760  -16.1080 C.3    20  ILE20       0.0266
      6  CG1       56.5680  -18.4130  -16.5070 C.3    20  ILE20       0.0019
      7  CG2       59.0660  -18.5110  -16.3700 C.3    20  ILE20       0.0020
      8  CD1       56.7820  -16.9110  -16.2640 C.3    20  ILE20       0.0001
      9  N         55.5110  -21.4090  -16.6000 N.am   21  GLY21      -0.1957
     10  CA        54.4440  -22.2630  -16.0620 C.3    21  GLY21       0.1869
     11  C         54.5880  -23.7610  -16.3300 C.2    21  GLY21       0.2309
     12  O         54.0480  -24.2710  -17.3070 O.2    21  GLY21      -0.2863
     13  N         50.7080  -25.7720  -16.4770 N.3    25  PHE25      -0.1227
     14  CA        49.7250  -25.0440  -15.6590 C.3    25  PHE25       0.1736
     15  C         49.7030  -23.5460  -15.9910 C.2    25  PHE25       0.2596
     16  O         50.6030  -22.7900  -15.6280 O.2    25  PHE25      -0.2718
     17  CB        49.8000  -25.3680  -14.1440 C.3    25  PHE25       0.0547
     18  CG        51.0160  -24.8240  -13.4350 C.ar   25  PHE25      -0.0202
     19  CD1       51.2220  -23.4390  -13.3190 C.ar   25  PHE25      -0.0042
     20  CD2       51.9390  -25.7040  -12.8240 C.ar   25  PHE25      -0.0042
     21  CE1       52.3390  -22.9360  -12.6510 C.ar   25  PHE25      -0.0003
     22  CE2       53.0590  -25.2060  -12.1530 C.ar   25  PHE25      -0.0003
     23  CZ        53.2530  -23.8170  -12.0590 C.ar   25  PHE25      -0.0000
     24  N         48.6630  -23.1670  -16.7300 N.am   26  GLY26      -0.1957
     25  CA        48.4610  -21.8260  -17.2140 C.3    26  GLY26       0.1869
     26  C         48.7970  -21.6210  -18.6840 C.2    26  GLY26       0.2309
     27  O         48.0690  -20.9000  -19.4100 O.2    26  GLY26      -0.2863
     28  N         51.8730  -20.2000  -19.1680 N.3    28  VAL28      -0.1245
     29  CA        52.4980  -18.9240  -18.8160 C.3    28  VAL28       0.1561
     30  C         53.8890  -18.7950  -19.4430 C.2    28  VAL28       0.2260
     31  O         54.7640  -19.6370  -19.1960 O.2    28  VAL28      -0.2867
     32  CB        52.6420  -18.8220  -17.2910 C.3    28  VAL28       0.0252
     33  CG1       53.2780  -17.5210  -16.8730 C.3    28  VAL28       0.0019
     34  CG2       51.3000  -19.0150  -16.6420 C.3    28  VAL28       0.0019
     35  N         55.2220  -11.1880  -17.8020 N.3    41  ALA41      -0.1245
     36  CA        54.6840  -12.5410  -17.8510 C.3    41  ALA41       0.1562
     37  C         53.3590  -12.5350  -18.5930 C.2    41  ALA41       0.2260
     38  O         52.5090  -11.6650  -18.3750 O.2    41  ALA41      -0.2867
     39  CB        54.4750  -13.0760  -16.4280 C.3    41  ALA41       0.0290
     40  N         49.9350  -14.6710  -19.3870 N.3    43  LYS43      -0.1245
     41  CA        49.0510  -15.8350  -19.2530 C.3    43  LYS43       0.1561
     42  C         47.9810  -15.8090  -20.3160 C.2    43  LYS43       0.2260
     43  O         47.1920  -14.8830  -20.3850 O.2    43  LYS43      -0.2867
     44  CB        48.4110  -15.8470  -17.8660 C.3    43  LYS43       0.0271
     45  CG        47.8490  -17.2130  -17.5020 C.3    43  LYS43       0.0035
     46  CD        46.9930  -17.1260  -16.2560 C.3    43  LYS43       0.0206
     47  CE        46.7340  -18.5060  -15.6400 C.3    43  LYS43       0.1093
     48  NZ        45.8970  -18.3760  -14.4110 N.3    43  LYS43      -0.1314
     49  N         50.9970   -8.6920   -7.2710 N.3    74  VAL74      -0.1245
     50  CA        51.4260   -8.7350   -8.6600 C.3    74  VAL74       0.1561
     51  C         50.5830   -7.7620   -9.4690 C.2    74  VAL74       0.2260
     52  O         49.4470   -7.4880   -9.1260 O.2    74  VAL74      -0.2867
     53  CB        51.3180  -10.1770   -9.2190 C.3    74  VAL74       0.0252
     54  CG1       49.8920  -10.4790   -9.6430 C.3    74  VAL74       0.0019
     55  CG2       52.2600  -10.3350  -10.3960 C.3    74  VAL74       0.0019
     56  N         51.5040   -9.2980  -17.2080 N.3    91  PHE91      -0.1227
     57  CA        51.9810   -8.9270  -15.8820 C.3    91  PHE91       0.1736
     58  C         53.4200   -8.4250  -15.8450 C.2    91  PHE91       0.2595
     59  O         54.2650   -8.8840  -16.6360 O.2    91  PHE91      -0.2718
     60  CB        51.9180  -10.1550  -14.9710 C.3    91  PHE91       0.0547
     61  CG        50.5200  -10.6390  -14.7130 C.ar   91  PHE91      -0.0202
     62  CD1       49.7180  -10.0100  -13.7740 C.ar   91  PHE91      -0.0042
     63  CD2       50.0090  -11.7170  -15.4150 C.ar   91  PHE91      -0.0042
     64  CE1       48.4410  -10.4820  -13.5090 C.ar   91  PHE91      -0.0003
     65  CE2       48.7390  -12.1980  -15.1600 C.ar   91  PHE91      -0.0003
     66  CZ        47.9470  -11.5770  -14.2000 C.ar   91  PHE91      -0.0000
     67  N         53.7070   -7.5300  -14.8990 N.am   92  ASP92      -0.1960
     68  CA        55.0970   -7.2120  -14.5440 C.3    92  ASP92       0.1840
     69  C         55.8050   -8.5370  -14.2530 C.2    92  ASP92       0.2622
     70  O         55.2790   -9.3590  -13.4900 O.2    92  ASP92      -0.2715
     71  CB        55.1390   -6.3190  -13.3040 C.3    92  ASP92       0.1450
     72  CG        54.9080   -4.8350  -13.6190 C.2    92  ASP92       0.3671
     73  OD1       55.2020   -4.3990  -14.7600 O.co2  92  ASP92      -0.2456
     74  OD2       54.4240   -4.1320  -12.7200 O.co2  92  ASP92      -0.2456
     75  N         56.9760   -8.7630  -14.8480 N.am   93  PHE93      -0.1960
     76  CA        57.6960  -10.0220  -14.5950 C.3    93  PHE93       0.1771
     77  C         58.3850  -10.0720  -13.2260 C.2    93  PHE93       0.2620
     78  O         58.9710   -9.0800  -12.7840 O.2    93  PHE93      -0.2715
     79  CB        58.7120  -10.2980  -15.7030 C.3    93  PHE93       0.0574
     80  CG        59.4400  -11.5980  -15.5300 C.ar   93  PHE93      -0.0200
     81  CD1       58.8180  -12.8060  -15.8240 C.ar   93  PHE93      -0.0042
     82  CD2       60.7540  -11.6230  -15.0770 C.ar   93  PHE93      -0.0042
     83  CE1       59.4850  -14.0110  -15.6300 C.ar   93  PHE93      -0.0003
     84  CE2       61.4400  -12.8260  -14.9050 C.ar   93  PHE93      -0.0003
     85  CZ        60.8060  -14.0190  -15.2010 C.ar   93  PHE93      -0.0000
     86  N         58.3350  -11.2230  -12.5640 N.am   94  CYS94      -0.1954
     87  CA        58.9970  -11.3890  -11.2640 C.3    94  CYS94       0.1843
     88  C         60.1010  -12.4150  -11.3980 C.2    94  CYS94       0.2625
     89  O         59.8590  -13.5520  -11.8560 O.2    94  CYS94      -0.2714
     90  CB        57.9980  -11.8130  -10.1800 C.3    94  CYS94       0.0997
     91  SG        56.9260  -10.4780   -9.6310 S.3    94  CYS94      -0.0797
     92  N         61.3070  -12.0330  -10.9860 N.am   95  GLU95      -0.1963
     93  CA        62.4540  -12.9250  -11.1120 C.3    95  GLU95       0.1733
     94  C         62.2280  -14.3100  -10.5070 C.2    95  GLU95       0.2616
     95  O         62.2070  -15.3070  -11.2400 O.2    95  GLU95      -0.2715
     96  CB        63.7150  -12.2710  -10.5860 C.3    95  GLU95       0.0429
     97  CG        64.9800  -13.0730  -10.9010 C.3    95  GLU95       0.1163
     98  CD        64.9510  -13.7100  -12.2710 C.2    95  GLU95       0.3649
     99  OE1       63.9450  -13.5290  -12.9870 O.co2  95  GLU95      -0.2457
    100  OE2       65.9450  -14.3830  -12.6330 O.co2  95  GLU95      -0.2457
    101  N         61.9810  -14.3930   -9.2060 N.am   96  HIS96      -0.1959
    102  CA        61.8670  -15.7030   -8.5450 C.3    96  HIS96       0.1787
    103  C         60.4530  -16.0160   -8.0590 C.2    96  HIS96       0.2620
    104  O         59.6400  -15.0900   -7.8610 O.2    96  HIS96      -0.2715
    105  CB        62.8250  -15.7920   -7.3480 C.3    96  HIS96       0.0785
    106  CG        64.1420  -15.1210   -7.5870 C.ar   96  HIS96       0.0821
    107  ND1       64.3880  -13.8210   -7.1980 N.ar   96  HIS96      -0.2267
    108  CD2       65.2510  -15.5400   -8.2340 C.ar   96  HIS96       0.1154
    109  CE1       65.6130  -13.4820   -7.5510 C.ar   96  HIS96       0.1986
    110  NE2       66.1510  -14.5010   -8.1980 N.ar   96  HIS96      -0.2212
    111  N         60.1990  -17.2940   -7.7920 N.am   97  ASP97      -0.1971
    112  CA        59.0370  -17.6550   -7.0050 C.3    97  ASP97       0.1709
    113  C         59.4430  -18.4600   -5.7690 C.2    97  ASP97       0.2293
    114  O         60.3460  -19.2980   -5.8200 O.2    97  ASP97      -0.2864
    115  CB        57.9280  -18.2190   -7.8440 C.3    97  ASP97       0.1436
    116  CG        57.8560  -19.7170   -7.8060 C.2    97  ASP97       0.3671
    117  OD1       58.9200  -20.3530   -7.9340 O.co2  97  ASP97      -0.2456
    118  OD2       56.7380  -20.2460   -7.6260 O.co2  97  ASP97      -0.2456
    119  N         60.4550  -22.1180   -5.8090 N.3   100  GLY100     -0.1225
    120  CA        61.7130  -22.3890   -6.4820 C.3   100  GLY100      0.1811
    121  C         62.9250  -22.1870   -5.5800 C.2   100  GLY100      0.2280
    122  O         63.9020  -22.8910   -5.6960 O.2   100  GLY100     -0.2866
    123  N         54.1480  -21.6050   -4.0760 N.3   141  ALA141     -0.1231
    124  CA        54.3020  -21.4110   -5.5180 C.3   141  ALA141      0.1694
    125  C         53.6810  -20.0880   -6.0130 C.2   141  ALA141      0.2592
    126  O         54.2540  -19.4130   -6.8730 O.2   141  ALA141     -0.2718
    127  CB        53.7230  -22.5930   -6.2690 C.3   141  ALA141      0.0304
    128  N         52.6340  -19.6430   -5.3270 N.am  142  ASN142     -0.1974
    129  CA        51.9080  -18.4310   -5.7320 C.3   142  ASN142      0.1688
    130  C         52.4930  -17.1430   -5.1540 C.2   142  ASN142      0.2292
    131  O         51.8900  -16.0730   -5.2380 O.2   142  ASN142     -0.2864
    132  CB        50.4490  -18.5510   -5.3320 C.3   142  ASN142      0.1181
    133  CG        49.6830  -19.4710   -6.2290 C.2   142  ASN142      0.2629
    134  OD1       50.1530  -19.8320   -7.3090 O.2   142  ASN142     -0.2716
    135  ND2       48.4700  -19.8430   -5.8070 N.am  142  ASN142     -0.0877
    136  N         55.6540  -14.6600   -5.3500 N.3   144  LEU144     -0.1245
    137  CA        56.8310  -14.3090   -6.1300 C.3   144  LEU144      0.1561
    138  C         57.7040  -13.3000   -5.4400 C.2   144  LEU144      0.2260
    139  O         57.2170  -12.5180   -4.6000 O.2   144  LEU144     -0.2867
    140  CB        56.4150  -13.7920   -7.5180 C.3   144  LEU144      0.0270
    141  CG        55.3540  -14.6720   -8.1800 C.3   144  LEU144      0.0019
    142  CD1       55.1140  -14.2630   -9.6000 C.3   144  LEU144      0.0001
    143  CD2       55.7540  -16.1350   -8.0770 C.3   144  LEU144      0.0001
    144  N         50.5370  -13.6550   -6.0340 N.3   154  ALA154     -0.1231
    145  CA        50.2300  -13.8770   -7.4320 C.3   154  ALA154      0.1694
    146  C         49.0970  -14.8690   -7.6330 C.2   154  ALA154      0.2592
    147  O         48.6310  -15.5180   -6.6880 O.2   154  ALA154     -0.2718
    148  CB        51.4750  -14.3520   -8.1660 C.3   154  ALA154      0.0304
    149  N         48.6340  -14.9780   -8.8850 N.am  155  ASP155     -0.1974
    150  CA        47.6480  -15.9850   -9.2520 C.3   155  ASP155      0.1709
    151  C         46.3230  -15.7950   -8.5370 C.2   155  ASP155      0.2293
    152  O         46.0610  -16.4410   -7.5190 O.2   155  ASP155     -0.2864
    153  CB        48.1640  -17.3890   -8.9450 C.3   155  ASP155      0.1436
    154  CG        47.4190  -18.4580   -9.7230 C.2   155  ASP155      0.3671
    155  OD1       46.2220  -18.2610  -10.0070 O.co2 155  ASP155     -0.2456
    156  OD2       48.0360  -19.5080  -10.0190 O.co2 155  ASP155     -0.2456
@<TRIPOS>BOND
     1    43    42    2
     2    42    41    1
     3    30    31    2
     4    30    29    1
     5    27    26    2
     6    40    41    1
     7    41    44    1
     8    28    29    1
     9    29    32    1
    10    26    25    1
    11    37    38    2
    12    37    36    1
    13     1     2    1
    14    44    45    1
    15    36    35    1
    16    36    39    1
    17    45    46    1
    18    12    11    2
    19    32    33    1
    20    32    34    1
    21    25    24    1
    22    56    57    1
    23     2     3    1
    24     2     5    1
    25    24    15   am
    26    59    58    2
    27     9     3   am
    28     9    10    1
    29     6     8    1
    30     6     5    1
    31    13    14    1
    32     7     5    1
    33    11    10    1
    34     3     4    2
    35    46    47    1
    36    15    14    1
    37    15    16    2
    38    57    58    1
    39    57    60    1
    40    58    67   am
    41    81    83   ar
    42    81    80   ar
    43    79    80    1
    44    79    76    1
    45    14    17    1
    46    47    48    1
    47    83    85   ar
    48    80    82   ar
    49    63    65   ar
    50    63    61   ar
    51    85    84   ar
    52    65    66   ar
    53    82    84   ar
    54    60    61    1
    55    67    68    1
    56    75    76    1
    57    75    69   am
    58    73    72   ar
    59    61    62   ar
    60    76    77    1
    61    68    69    1
    62    68    71    1
    63    69    70    2
    64    66    64   ar
    65    17    18    1
    66    62    64   ar
    67    72    71    1
    68    72    74   ar
    69    18    19   ar
    70    18    20   ar
    71    19    21   ar
    72    77    78    2
    73    77    86   am
    74    99    98   ar
    75    20    22   ar
    76    21    23   ar
    77   100    98   ar
    78    86    87    1
    79    98    97    1
    80    22    23   ar
    81    89    88    2
    82    88    87    1
    83    88    92   am
    84    87    90    1
    85    95    94    2
    86    93    92    1
    87    93    96    1
    88    93    94    1
    89    97    96    1
    90    94   101   am
    91    55    53    1
    92    90    91    1
    93   156   154   ar
    94   155   154   ar
    95   154   153    1
    96    54    53    1
    97   142   141    1
    98    51    52    2
    99    51    50    1
   100   150   153    1
   101   150   149    1
   102   150   151    1
   103    53    50    1
   104   101   102    1
   105   149   146   am
   106    50    49    1
   107   102   103    1
   108   102   105    1
   109   151   152    2
   110   108   110   ar
   111   108   106   ar
   112   110   109   ar
   113   141   143    1
   114   141   140    1
   115   148   145    1
   116   103   104    2
   117   103   111   am
   118   117   116   ar
   119   115   116    1
   120   115   112    1
   121   116   118   ar
   122   111   112    1
   123   146   145    1
   124   146   147    2
   125   106   105    1
   126   106   107   ar
   127   109   107   ar
   128   140   137    1
   129   145   144    1
   130   134   133    2
   131   112   113    1
   132   126   125    2
   133   120   119    1
   134   120   121    1
   135   127   124    1
   136   133   135   am
   137   133   132    1
   138   137   138    1
   139   137   136    1
   140   125   124    1
   141   125   128   am
   142   114   113    2
   143   129   132    1
   144   129   128    1
   145   129   130    1
   146   122   121    2
   147   124   123    1
   148   138   139    2
   149   131   130    2
