@<TRIPOS>MOLECULE
tmp/4bckC00.pdb
 166 158 0 0 0
SMALL
GASTEIGER

@<TRIPOS>ATOM
      1  N         28.9940  -20.0350   36.5100 N.3    12  ILE12      -0.1231
      2  CA        30.3610  -20.3580   36.1530 C.3    12  ILE12       0.1692
      3  C         31.3300  -20.1040   37.3000 C.2    12  ILE12       0.2593
      4  O         32.3590  -20.7680   37.4060 O.2    12  ILE12      -0.2718
      5  CB        30.8360  -19.5100   34.9650 C.3    12  ILE12       0.0266
      6  CG1       30.3250  -20.0620   33.6490 C.3    12  ILE12       0.0019
      7  CG2       32.3510  -19.4830   34.8980 C.3    12  ILE12       0.0020
      8  CD1       30.6930  -19.1530   32.5010 C.3    12  ILE12       0.0001
      9  N         31.0250  -19.1380   38.1560 N.am   13  GLY13      -0.1942
     10  CA        31.9820  -18.7850   39.1840 C.3    13  GLY13       0.2014
     11  C         31.6170  -17.5730   40.0030 C.2    13  GLY13       0.2638
     12  O         30.5260  -17.0180   39.8530 O.2    13  GLY13      -0.2714
     13  N         32.5410  -17.1730   40.8760 N.am   14  GLU14      -0.1977
     14  CA        32.3390  -16.0280   41.7610 C.3    14  GLU14       0.1602
     15  C         33.5070  -15.0480   41.6960 C.2    14  GLU14       0.2287
     16  O         34.6100  -15.3460   42.1520 O.2    14  GLU14      -0.2864
     17  CB        32.1080  -16.4940   43.2020 C.3    14  GLU14       0.0415
     18  CG        30.7140  -17.0590   43.4470 C.3    14  GLU14       0.1163
     19  CD        30.7010  -18.2150   44.4350 C.2    14  GLU14       0.3649
     20  OE1       31.7700  -18.8260   44.6620 O.co2  14  GLU14      -0.2457
     21  OE2       29.6140  -18.5130   44.9820 O.co2  14  GLU14      -0.2457
     22  N         31.9930  -10.0160   42.2950 N.3    16  GLY16      -0.1225
     23  CA        30.8990  -10.2740   41.3740 C.3    16  GLY16       0.1811
     24  C         30.6810  -11.7470   41.0950 C.2    16  GLY16       0.2280
     25  O         31.6330  -12.5310   41.1580 O.2    16  GLY16      -0.2866
     26  N         29.3470  -14.8150   38.3560 N.3    18  VAL18      -0.1245
     27  CA        29.4620  -15.0320   36.8960 C.3    18  VAL18       0.1561
     28  C         28.6240  -16.2100   36.3060 C.2    18  VAL18       0.2260
     29  O         28.7670  -17.3500   36.7610 O.2    18  VAL18      -0.2867
     30  CB        30.9640  -15.2470   36.4910 C.3    18  VAL18       0.0252
     31  CG1       31.1420  -15.3320   34.9510 C.3    18  VAL18       0.0019
     32  CG2       31.8550  -14.1510   37.0750 C.3    18  VAL18       0.0019
     33  N         29.5270  -14.4190   28.4340 N.3    31  ALA31      -0.1245
     34  CA        29.7270  -14.5020   29.9160 C.3    31  ALA31       0.1562
     35  C         29.2350  -13.2490   30.7100 C.2    31  ALA31       0.2260
     36  O         29.7140  -12.1310   30.4590 O.2    31  ALA31      -0.2867
     37  CB        31.2200  -14.7450   30.2370 C.3    31  ALA31       0.0290
     38  N         28.9950  -10.8540   34.1030 N.3    33  LYS33      -0.1245
     39  CA        29.4770  -10.5460   35.4790 C.3    33  LYS33       0.1561
     40  C         28.6220   -9.4920   36.1960 C.2    33  LYS33       0.2260
     41  O         28.5540   -8.3280   35.7610 O.2    33  LYS33      -0.2867
     42  CB        30.9550  -10.1010   35.4740 C.3    33  LYS33       0.0271
     43  CG        31.5390   -9.9090   36.8770 C.3    33  LYS33       0.0035
     44  CD        32.7680   -8.9730   36.9010 C.3    33  LYS33       0.0206
     45  CE        34.0100   -9.6060   36.3070 C.3    33  LYS33       0.1093
     46  NZ        35.2640   -9.0400   36.8940 N.3    33  LYS33      -0.1314
     47  N         40.9610  -10.5240   25.8700 N.3    64  VAL64      -0.1245
     48  CA        39.5220  -10.8710   25.8380 C.3    64  VAL64       0.1561
     49  C         38.6700   -9.6120   25.5660 C.2    64  VAL64       0.2260
     50  O         39.0070   -8.5420   26.0610 O.2    64  VAL64      -0.2867
     51  CB        39.0750  -11.5000   27.2200 C.3    64  VAL64       0.0252
     52  CG1       39.1820  -10.4570   28.3190 C.3    64  VAL64       0.0019
     53  CG2       37.6260  -12.0470   27.1620 C.3    64  VAL64       0.0019
     54  N         30.7320   -9.9280   28.3480 N.3    80  PHE80      -0.1227
     55  CA        31.9870  -10.4060   27.7300 C.3    80  PHE80       0.1736
     56  C         31.7130  -11.5230   26.6870 C.2    80  PHE80       0.2595
     57  O         30.7480  -12.2810   26.8290 O.2    80  PHE80      -0.2718
     58  CB        32.9450  -11.0630   28.7690 C.3    80  PHE80       0.0547
     59  CG        33.5460  -10.1270   29.8070 C.ar   80  PHE80      -0.0202
     60  CD1       34.7450   -9.4610   29.5550 C.ar   80  PHE80      -0.0042
     61  CD2       32.9670  -10.0050   31.0820 C.ar   80  PHE80      -0.0042
     62  CE1       35.3320   -8.6480   30.5330 C.ar   80  PHE80      -0.0003
     63  CE2       33.5570   -9.1730   32.0800 C.ar   80  PHE80      -0.0003
     64  CZ        34.7560   -8.5000   31.8030 C.ar   80  PHE80      -0.0000
     65  N         32.5930  -11.6560   25.6870 N.am   81  GLU81      -0.1965
     66  CA        32.6210  -12.8660   24.8460 C.3    81  GLU81       0.1733
     67  C         32.8890  -14.1640   25.6780 C.2    81  GLU81       0.2616
     68  O         33.6620  -14.1480   26.6880 O.2    81  GLU81      -0.2715
     69  CB        33.6350  -12.7100   23.6700 C.3    81  GLU81       0.0429
     70  CG        35.1010  -12.6930   24.1250 C.3    81  GLU81       0.1163
     71  CD        36.1220  -12.7540   22.9820 C.2    81  GLU81       0.3649
     72  OE1       35.7610  -13.1930   21.8720 O.co2  81  GLU81      -0.2457
     73  OE2       37.2870  -12.3580   23.1880 O.co2  81  GLU81      -0.2457
     74  N         32.2250  -15.2710   25.2970 N.am   82  PHE82      -0.1960
     75  CA        32.3870  -16.5870   25.9640 C.3    82  PHE82       0.1771
     76  C         33.5420  -17.4080   25.3390 C.2    82  PHE82       0.2619
     77  O         33.7280  -17.4180   24.1060 O.2    82  PHE82      -0.2715
     78  CB        31.0790  -17.4090   25.9410 C.3    82  PHE82       0.0574
     79  CG        31.1760  -18.7580   26.6640 C.ar   82  PHE82      -0.0200
     80  CD1       31.0830  -18.8410   28.0580 C.ar   82  PHE82      -0.0042
     81  CD2       31.3670  -19.9490   25.9430 C.ar   82  PHE82      -0.0042
     82  CE1       31.1870  -20.0930   28.7450 C.ar   82  PHE82      -0.0003
     83  CE2       31.4530  -21.1800   26.5910 C.ar   82  PHE82      -0.0003
     84  CZ        31.3590  -21.2600   28.0060 C.ar   82  PHE82      -0.0000
     85  N         34.3310  -18.0570   26.1870 N.am   83  LEU83      -0.1963
     86  CA        35.3310  -19.0360   25.7400 C.3    83  LEU83       0.1728
     87  C         35.2270  -20.3640   26.4940 C.2    83  LEU83       0.2616
     88  O         34.8000  -20.4210   27.6580 O.2    83  LEU83      -0.2715
     89  CB        36.7650  -18.5070   25.8510 C.3    83  LEU83       0.0311
     90  CG        37.2600  -17.5950   24.7220 C.3    83  LEU83       0.0022
     91  CD1       36.6770  -16.2150   24.8820 C.3    83  LEU83       0.0001
     92  CD2       38.7740  -17.5240   24.7340 C.3    83  LEU83       0.0001
     93  N         35.6900  -21.4130   25.8200 N.am   84  HIS84      -0.1959
     94  CA        35.4370  -22.7920   26.2110 C.3    84  HIS84       0.1787
     95  C         36.0780  -23.2430   27.5330 C.2    84  HIS84       0.2620
     96  O         35.4260  -23.9500   28.2850 O.2    84  HIS84      -0.2715
     97  CB        35.7410  -23.7220   25.0370 C.3    84  HIS84       0.0785
     98  CG        35.2510  -23.1840   23.7190 C.ar   84  HIS84       0.0821
     99  ND1       35.8270  -22.0930   23.0950 N.ar   84  HIS84      -0.2267
    100  CD2       34.2210  -23.5670   22.9260 C.ar   84  HIS84       0.1154
    101  CE1       35.1840  -21.8390   21.9680 C.ar   84  HIS84       0.1986
    102  NE2       34.2060  -22.7180   21.8420 N.ar   84  HIS84      -0.2212
    103  N         37.3070  -22.8150   27.8460 N.am   85  GLN85      -0.1963
    104  CA        37.8250  -23.0620   29.1990 C.3    85  GLN85       0.1733
    105  C         39.1110  -22.3630   29.6210 C.2    85  GLN85       0.2616
    106  O         39.6860  -21.6040   28.8490 O.2    85  GLN85      -0.2715
    107  CB        37.9020  -24.5530   29.4900 C.3    85  GLN85       0.0408
    108  CG        39.0810  -25.2770   28.9190 C.3    85  GLN85       0.0908
    109  CD        39.3070  -26.5810   29.6620 C.2    85  GLN85       0.2608
    110  OE1       38.5200  -26.9530   30.5440 O.2    85  GLN85      -0.2717
    111  NE2       40.3860  -27.2800   29.3200 N.am   85  GLN85      -0.0878
    112  N         39.5320  -22.5790   30.8730 N.am   86  ASP86      -0.1971
    113  CA        40.7780  -21.9780   31.3620 C.3    86  ASP86       0.1709
    114  C         41.9570  -22.9590   31.3360 C.2    86  ASP86       0.2293
    115  O         41.7630  -24.1650   31.1660 O.2    86  ASP86      -0.2864
    116  CB        40.6120  -21.2530   32.7290 C.3    86  ASP86       0.1436
    117  CG        40.4910  -22.2020   33.9530 C.2    86  ASP86       0.3671
    118  OD1       41.5370  -22.7480   34.3870 O.co2  86  ASP86      -0.2456
    119  OD2       39.3720  -22.3590   34.5230 O.co2  86  ASP86      -0.2456
    120  N         42.5910  -25.8750   34.1330 N.3    89  LYS89      -0.1245
    121  CA        41.7950  -27.0720   34.0120 C.3    89  LYS89       0.1561
    122  C         42.3350  -27.9050   32.8820 C.2    89  LYS89       0.2260
    123  O         42.3010  -29.1300   32.9540 O.2    89  LYS89      -0.2867
    124  CB        40.3030  -26.7430   33.8120 C.3    89  LYS89       0.0271
    125  CG        39.6120  -26.3010   35.1110 C.3    89  LYS89       0.0035
    126  CD        38.4070  -25.3890   34.7880 C.3    89  LYS89       0.0206
    127  CE        37.9330  -24.5510   35.9910 C.3    89  LYS89       0.1093
    128  NZ        37.0110  -25.2830   36.9090 N.3    89  LYS89      -0.1314
    129  N         44.7780  -19.6770   36.1540 N.3   131  GLN131     -0.1231
    130  CA        43.3320  -19.5440   36.2750 C.3   131  GLN131      0.1698
    131  C         42.7510  -18.3890   35.4150 C.2   131  GLN131      0.2592
    132  O         41.6050  -18.4680   34.9320 O.2   131  GLN131     -0.2718
    133  CB        42.9510  -19.3650   37.7530 C.3   131  GLN131      0.0381
    134  CG        43.2090  -20.5870   38.6340 C.3   131  GLN131      0.0905
    135  CD        44.7110  -20.9140   38.9230 C.2   131  GLN131      0.2608
    136  OE1       45.6320  -20.1000   38.7140 O.2   131  GLN131     -0.2717
    137  NE2       44.9330  -22.1220   39.4390 N.am  131  GLN131     -0.0878
    138  N         43.5450  -17.3320   35.2290 N.am  132  ASN132     -0.1974
    139  CA        43.1030  -16.1190   34.5130 C.3   132  ASN132      0.1688
    140  C         43.4620  -16.0890   33.0150 C.2   132  ASN132      0.2292
    141  O         43.4670  -15.0020   32.3970 O.2   132  ASN132     -0.2864
    142  CB        43.6640  -14.8520   35.2090 C.3   132  ASN132      0.1181
    143  CG        43.0990  -14.6310   36.6440 C.2   132  ASN132      0.2629
    144  OD1       42.0460  -15.1630   37.0030 O.2   132  ASN132     -0.2716
    145  ND2       43.7880  -13.7990   37.4350 N.am  132  ASN132     -0.0877
    146  N         42.5350  -17.8720   29.1570 N.3   134  LEU134     -0.1245
    147  CA        41.4100  -18.5910   28.5300 C.3   134  LEU134      0.1561
    148  C         41.7330  -19.1270   27.1280 C.2   134  LEU134      0.2260
    149  O         42.3900  -18.4350   26.3430 O.2   134  LEU134     -0.2867
    150  CB        40.1550  -17.6580   28.4800 C.3   134  LEU134      0.0270
    151  CG        39.7020  -17.1260   29.8650 C.3   134  LEU134      0.0019
    152  CD1       38.6640  -15.9660   29.8340 C.3   134  LEU134      0.0001
    153  CD2       39.2010  -18.2790   30.7850 C.3   134  LEU134      0.0001
    154  N         42.9740  -12.3140   30.5330 N.3   144  ALA144     -0.1231
    155  CA        41.6830  -11.9240   31.1670 C.3   144  ALA144      0.1694
    156  C         41.7790  -11.5330   32.6640 C.2   144  ALA144      0.2592
    157  O         42.8570  -11.6320   33.2490 O.2   144  ALA144     -0.2718
    158  CB        40.6240  -13.0330   30.9770 C.3   144  ALA144      0.0304
    159  N         40.6480  -11.1120   33.2550 N.am  145  ASP145     -0.1974
    160  CA        40.5320  -10.6220   34.6760 C.3   145  ASP145      0.1709
    161  C         41.5000   -9.4700   35.0490 C.2   145  ASP145      0.2293
    162  O         42.5850   -9.6940   35.6420 O.2   145  ASP145     -0.2864
    163  CB        40.6300  -11.7740   35.6970 C.3   145  ASP145      0.1436
    164  CG        40.0870  -11.3920   37.0770 C.2   145  ASP145      0.3671
    165  OD1       39.5980  -10.2580   37.2520 O.co2 145  ASP145     -0.2456
    166  OD2       40.1350  -12.2230   37.9930 O.co2 145  ASP145     -0.2456
@<TRIPOS>BOND
     1   102   101   ar
     2   102   100   ar
     3    72    71   ar
     4   101    99   ar
     5   100    98   ar
     6    71    73   ar
     7    71    70    1
     8    99    98   ar
     9    69    70    1
    10    69    66    1
    11    98    97    1
    12    77    76    2
    13    90    92    1
    14    90    91    1
    15    90    89    1
    16    66    67    1
    17    66    65    1
    18    97    94    1
    19    74    67   am
    20    74    75    1
    21    76    75    1
    22    76    85   am
    23    49    48    1
    24    49    50    2
    25    67    68    2
    26    65    56   am
    27    86    89    1
    28    86    85    1
    29    86    87    1
    30    93    94    1
    31    93    87   am
    32    48    47    1
    33    48    51    1
    34    78    75    1
    35    78    79    1
    36    81    83   ar
    37    81    79   ar
    38    94    95    1
    39   149   148    2
    40    87    88    2
    41    83    84   ar
    42    79    80   ar
    43    56    57    2
    44    56    55    1
    45   148   147    1
    46    53    51    1
    47    51    52    1
    48    95   103   am
    49    95    96    2
    50    55    54    1
    51    55    58    1
    52   103   104    1
    53    84    82   ar
    54    80    82   ar
    55    33    34    1
    56   150   147    1
    57   150   151    1
    58   147   146    1
    59    58    59    1
    60   106   105    2
    61   108   107    1
    62   108   109    1
    63   104   107    1
    64   104   105    1
    65   111   109   am
    66    60    59   ar
    67    60    62   ar
    68   105   112   am
    69   109   110    2
    70    59    61   ar
    71   152   151    1
    72   151   153    1
    73    34    37    1
    74    34    35    1
    75    36    35    2
    76    62    64   ar
    77   154   155    1
    78   112   113    1
    79   158   155    1
    80    61    63   ar
    81   115   114    2
    82   155   156    1
    83   114   113    1
    84   113   116    1
    85    64    63   ar
    86   141   140    2
    87     8     6    1
    88   156   157    2
    89   156   159   am
    90   116   117    1
    91   122   123    2
    92   122   121    1
    93   140   139    1
    94   159   160    1
    95     6     5    1
    96   124   121    1
    97   124   125    1
    98   117   118   ar
    99   117   119   ar
   100   121   120    1
   101    38    39    1
   102   139   142    1
   103   139   138    1
   104   160   161    1
   105   160   163    1
   106   126   125    1
   107   126   127    1
   108     7     5    1
   109   132   131    2
   110    31    30    1
   111     5     2    1
   112   161   162    2
   113   142   143    1
   114   138   131   am
   115   131   130    1
   116    42    39    1
   117    42    43    1
   118    39    40    1
   119   163   164    1
   120    41    40    2
   121   127   128    1
   122     2     1    1
   123     2     3    1
   124   129   130    1
   125   130   133    1
   126    28    29    2
   127    28    27    1
   128    45    46    1
   129    45    44    1
   130    30    27    1
   131    30    32    1
   132   143   144    2
   133   143   145   am
   134    43    44    1
   135    27    26    1
   136   164   165   ar
   137   164   166   ar
   138     3     4    2
   139     3     9   am
   140   133   134    1
   141     9    10    1
   142   134   135    1
   143   136   135    2
   144   135   137   am
   145    10    11    1
   146    12    11    2
   147    11    13   am
   148    13    14    1
   149    24    25    2
   150    24    23    1
   151    23    22    1
   152    15    14    1
   153    15    16    2
   154    14    17    1
   155    17    18    1
   156    18    19    1
   157    19    20   ar
   158    19    21   ar
