@<TRIPOS>MOLECULE
tmp/4bcmC00.pdb
 167 159 0 0 0
SMALL
GASTEIGER

@<TRIPOS>ATOM
      1  N         22.4420  -20.7880   31.4920 N.3     9  GLU9       -0.1245
      2  CA        22.9450  -21.3650   32.7300 C.3     9  GLU9        0.1567
      3  C         23.8770  -20.3800   33.4220 C.2     9  GLU9        0.2260
      4  O         24.1200  -19.2770   32.9250 O.2     9  GLU9       -0.2867
      5  CB        23.6700  -22.6830   32.4630 C.3     9  GLU9        0.0388
      6  CG        24.9690  -22.5370   31.6950 C.3     9  GLU9        0.1160
      7  CD        25.3190  -23.7860   30.9090 C.2     9  GLU9        0.3649
      8  OE1       24.4380  -24.2950   30.1810 O.co2   9  GLU9       -0.2457
      9  OE2       26.4750  -24.2520   31.0150 O.co2   9  GLU9       -0.2457
     10  N         27.5290  -19.3270   34.7850 N.3    11  ILE11      -0.1231
     11  CA        28.9370  -19.5800   34.5530 C.3    11  ILE11       0.1692
     12  C         29.7440  -19.4430   35.8400 C.2    11  ILE11       0.2593
     13  O         30.8050  -20.0510   35.9900 O.2    11  ILE11      -0.2718
     14  CB        29.4830  -18.6580   33.4700 C.3    11  ILE11       0.0266
     15  CG1       28.8070  -18.9920   32.1410 C.3    11  ILE11       0.0019
     16  CG2       30.9910  -18.8130   33.3430 C.3    11  ILE11       0.0020
     17  CD1       29.3050  -18.1700   30.9750 C.3    11  ILE11       0.0001
     18  N         29.2350  -18.6540   36.7780 N.am   12  GLY12      -0.1942
     19  CA        29.8990  -18.5210   38.0580 C.3    12  GLY12       0.2014
     20  C         29.7590  -17.1510   38.6750 C.2    12  GLY12       0.2639
     21  O         29.2010  -16.2370   38.0720 O.2    12  GLY12      -0.2714
     22  N         30.2710  -17.0150   39.8920 N.am   13  GLU13      -0.1963
     23  CA        30.1940  -15.7620   40.6230 C.3    13  GLU13       0.1733
     24  C         31.5700  -15.1280   40.7300 C.2    13  GLU13       0.2616
     25  O         32.5720  -15.7090   40.3140 O.2    13  GLU13      -0.2715
     26  CB        29.6170  -15.9950   42.0190 C.3    13  GLU13       0.0429
     27  CG        28.4480  -16.9670   42.0430 C.3    13  GLU13       0.1163
     28  CD        27.4780  -16.6930   43.1780 C.2    13  GLU13       0.3649
     29  OE1       27.1260  -15.5120   43.3890 O.co2  13  GLU13      -0.2457
     30  OE2       27.0680  -17.6580   43.8600 O.co2  13  GLU13      -0.2457
     31  N         31.6090  -13.9270   41.2910 N.am   14  GLY14      -0.1955
     32  CA        32.8570  -13.2170   41.4750 C.3    14  GLY14       0.1869
     33  C         32.7690  -12.2770   42.6570 C.2    14  GLY14       0.2309
     34  O         31.7670  -12.2510   43.3760 O.2    14  GLY14      -0.2863
     35  N         28.1230  -14.2300   36.8020 N.3    19  VAL19      -0.1245
     36  CA        28.1620  -14.4430   35.3540 C.3    19  VAL19       0.1561
     37  C         27.2180  -15.5360   34.8450 C.2    19  VAL19       0.2260
     38  O         27.1910  -16.6510   35.3680 O.2    19  VAL19      -0.2867
     39  CB        29.5960  -14.7550   34.8800 C.3    19  VAL19       0.0252
     40  CG1       29.6820  -14.7010   33.3600 C.3    19  VAL19       0.0019
     41  CG2       30.5730  -13.7780   35.5090 C.3    19  VAL19       0.0019
     42  N         28.2730  -13.9610   27.3410 N.3    32  ALA32      -0.1245
     43  CA        28.4280  -14.0310   28.7860 C.3    32  ALA32       0.1562
     44  C         27.9170  -12.7250   29.3810 C.2    32  ALA32       0.2260
     45  O         28.2710  -11.6360   28.9180 O.2    32  ALA32      -0.2867
     46  CB        29.8810  -14.2730   29.1760 C.3    32  ALA32       0.0290
     47  N         27.7440  -10.4460   32.7510 N.3    34  LYS34      -0.1245
     48  CA        28.2150  -10.2090   34.1080 C.3    34  LYS34       0.1561
     49  C         27.3390   -9.1720   34.8030 C.2    34  LYS34       0.2260
     50  O         27.3410   -7.9970   34.4400 O.2    34  LYS34      -0.2867
     51  CB        29.6820   -9.7810   34.1270 C.3    34  LYS34       0.0271
     52  CG        30.3050   -9.8410   35.5120 C.3    34  LYS34       0.0035
     53  CD        31.4920   -8.8860   35.6710 C.3    34  LYS34       0.0206
     54  CE        32.7170   -9.3440   34.9080 C.3    34  LYS34       0.1093
     55  NZ        33.9640   -8.7530   35.4860 N.3    34  LYS34      -0.1314
     56  N         39.3190  -10.3200   25.0370 N.3    65  VAL65      -0.1245
     57  CA        37.8890  -10.5980   25.0320 C.3    65  VAL65       0.1561
     58  C         37.1120   -9.3320   24.6710 C.2    65  VAL65       0.2260
     59  O         37.5460   -8.2130   24.9620 O.2    65  VAL65      -0.2867
     60  CB        37.4090  -11.1810   26.3800 C.3    65  VAL65       0.0252
     61  CG1       37.6490  -10.1970   27.5210 C.3    65  VAL65       0.0019
     62  CG2       35.9480  -11.5720   26.2970 C.3    65  VAL65       0.0019
     63  N         29.5040   -9.6880   27.3740 N.3    81  PHE81      -0.1227
     64  CA        30.7310  -10.1880   26.7780 C.3    81  PHE81       0.1736
     65  C         30.4280  -11.2090   25.6900 C.2    81  PHE81       0.2595
     66  O         29.4030  -11.8800   25.7300 O.2    81  PHE81      -0.2718
     67  CB        31.6140  -10.8420   27.8470 C.3    81  PHE81       0.0547
     68  CG        32.2410   -9.8680   28.8010 C.ar   81  PHE81      -0.0202
     69  CD1       33.4240   -9.2280   28.4790 C.ar   81  PHE81      -0.0042
     70  CD2       31.6560   -9.6000   30.0260 C.ar   81  PHE81      -0.0042
     71  CE1       34.0140   -8.3380   29.3610 C.ar   81  PHE81      -0.0003
     72  CE2       32.2450   -8.7090   30.9070 C.ar   81  PHE81      -0.0003
     73  CZ        33.4270   -8.0800   30.5700 C.ar   81  PHE81      -0.0000
     74  N         31.3270  -11.3220   24.7190 N.am   82  GLU82      -0.1965
     75  CA        31.2660  -12.4180   23.7680 C.3    82  GLU82       0.1733
     76  C         31.4430  -13.7000   24.5660 C.2    82  GLU82       0.2616
     77  O         32.2100  -13.7400   25.5260 O.2    82  GLU82      -0.2715
     78  CB        32.3850  -12.3020   22.7290 C.3    82  GLU82       0.0429
     79  CG        33.7870  -12.2230   23.3390 C.3    82  GLU82       0.1163
     80  CD        34.9080  -12.4790   22.3340 C.2    82  GLU82       0.3649
     81  OE1       34.7630  -13.3600   21.4620 O.co2  82  GLU82      -0.2457
     82  OE2       35.9490  -11.7990   22.4210 O.co2  82  GLU82      -0.2457
     83  N         30.7320  -14.7470   24.1800 N.am   83  PHE83      -0.1960
     84  CA        30.8690  -16.0210   24.8650 C.3    83  PHE83       0.1771
     85  C         32.0490  -16.8110   24.3070 C.2    83  PHE83       0.2619
     86  O         32.3410  -16.7610   23.1140 O.2    83  PHE83      -0.2715
     87  CB        29.5760  -16.8350   24.7620 C.3    83  PHE83       0.0574
     88  CG        29.6450  -18.1690   25.4440 C.ar   83  PHE83      -0.0200
     89  CD1       29.4730  -18.2700   26.8150 C.ar   83  PHE83      -0.0042
     90  CD2       29.8890  -19.3250   24.7150 C.ar   83  PHE83      -0.0042
     91  CE1       29.5360  -19.5050   27.4530 C.ar   83  PHE83      -0.0003
     92  CE2       29.9580  -20.5580   25.3430 C.ar   83  PHE83      -0.0003
     93  CZ        29.7780  -20.6460   26.7190 C.ar   83  PHE83      -0.0000
     94  N         32.7330  -17.5250   25.1850 N.am   84  LEU84      -0.1963
     95  CA        33.7870  -18.4390   24.7760 C.3    84  LEU84       0.1728
     96  C         33.6030  -19.7530   25.5260 C.2    84  LEU84       0.2616
     97  O         32.9630  -19.7860   26.5790 O.2    84  LEU84      -0.2715
     98  CB        35.1650  -17.8260   25.0330 C.3    84  LEU84       0.0311
     99  CG        35.4720  -16.6170   24.1450 C.3    84  LEU84       0.0022
    100  CD1       36.2140  -15.5170   24.9060 C.3    84  LEU84       0.0001
    101  CD2       36.2300  -17.0370   22.8880 C.3    84  LEU84       0.0001
    102  N         34.1530  -20.8320   24.9830 N.am   85  HIS85      -0.1959
    103  CA        33.8600  -22.1660   25.4890 C.3    85  HIS85       0.1787
    104  C         34.4310  -22.4320   26.8880 C.2    85  HIS85       0.2620
    105  O         33.6930  -22.7980   27.8080 O.2    85  HIS85      -0.2715
    106  CB        34.3460  -23.2180   24.4950 C.3    85  HIS85       0.0785
    107  CG        33.8180  -24.5910   24.7630 C.ar   85  HIS85       0.0821
    108  ND1       34.6370  -25.6550   25.0770 N.ar   85  HIS85      -0.2267
    109  CD2       32.5530  -25.0730   24.7710 C.ar   85  HIS85       0.1154
    110  CE1       33.8990  -26.7350   25.2620 C.ar   85  HIS85       0.1986
    111  NE2       32.6310  -26.4090   25.0830 N.ar   85  HIS85      -0.2212
    112  N         35.7380  -22.2480   27.0490 N.am   86  GLN86      -0.1963
    113  CA        36.3920  -22.5440   28.3180 C.3    86  GLN86       0.1733
    114  C         37.4470  -21.5180   28.6730 C.2    86  GLN86       0.2616
    115  O         37.8450  -20.7140   27.8280 O.2    86  GLN86      -0.2715
    116  CB        37.0760  -23.9050   28.2550 C.3    86  GLN86       0.0408
    117  CG        36.1540  -25.0930   28.3130 C.3    86  GLN86       0.0908
    118  CD        36.9320  -26.3800   28.4640 C.2    86  GLN86       0.2608
    119  OE1       38.0320  -26.5190   27.9230 O.2    86  GLN86      -0.2717
    120  NE2       36.3800  -27.3200   29.2210 N.am   86  GLN86      -0.0878
    121  N         37.8990  -21.5550   29.9260 N.am   87  ASP87      -0.1971
    122  CA        39.1340  -20.8710   30.3040 C.3    87  ASP87       0.1709
    123  C         40.2900  -21.8700   30.2800 C.2    87  ASP87       0.2293
    124  O         40.0680  -23.0840   30.2490 O.2    87  ASP87      -0.2864
    125  CB        39.0230  -20.1520   31.6620 C.3    87  ASP87       0.1436
    126  CG        38.9520  -21.1080   32.8450 C.2    87  ASP87       0.3671
    127  OD1       38.7480  -22.3200   32.6320 O.co2  87  ASP87      -0.2456
    128  OD2       39.0900  -20.6370   33.9960 O.co2  87  ASP87      -0.2456
    129  N         40.4820  -24.9150   32.9670 N.3    90  LYS90      -0.1245
    130  CA        39.6410  -26.0940   32.8110 C.3    90  LYS90       0.1561
    131  C         40.2120  -26.9890   31.7340 C.2    90  LYS90       0.2260
    132  O         40.1560  -28.2150   31.8320 O.2    90  LYS90      -0.2867
    133  CB        38.2110  -25.7040   32.4350 C.3    90  LYS90       0.0271
    134  CG        37.5140  -24.8300   33.4570 C.3    90  LYS90       0.0035
    135  CD        37.6020  -25.4250   34.8470 C.3    90  LYS90       0.0206
    136  CE        36.8740  -24.5540   35.8510 C.3    90  LYS90       0.1093
    137  NZ        36.9490  -25.1060   37.2330 N.3    90  LYS90      -0.1314
    138  N         42.8440  -18.7970   34.8420 N.3   132  GLN132     -0.1245
    139  CA        41.4050  -18.7180   35.0930 C.3   132  GLN132      0.1566
    140  C         40.8450  -17.4540   34.4590 C.2   132  GLN132      0.2260
    141  O         39.6390  -17.2090   34.4800 O.2   132  GLN132     -0.2867
    142  CB        41.0960  -18.7380   36.5940 C.3   132  GLN132      0.0367
    143  CG        41.7420  -19.8960   37.3620 C.3   132  GLN132      0.0905
    144  CD        43.2310  -19.6820   37.6300 C.2   132  GLN132      0.2608
    145  OE1       43.7490  -18.5690   37.4940 O.2   132  GLN132     -0.2717
    146  NE2       43.9210  -20.7520   38.0130 N.am  132  GLN132     -0.0878
    147  N         40.6100  -17.1960   28.1370 N.3   135  LEU135     -0.1245
    148  CA        39.5180  -17.9140   27.5120 C.3   135  LEU135      0.1561
    149  C         39.9010  -18.4040   26.1300 C.2   135  LEU135      0.2260
    150  O         40.5660  -17.7010   25.3630 O.2   135  LEU135     -0.2867
    151  CB        38.2640  -17.0330   27.4710 C.3   135  LEU135      0.0270
    152  CG        37.7690  -16.5890   28.8510 C.3   135  LEU135      0.0019
    153  CD1       36.5830  -15.6470   28.7380 C.3   135  LEU135      0.0001
    154  CD2       37.4150  -17.7940   29.7200 C.3   135  LEU135      0.0001
    155  N         41.1360  -12.0710   29.5580 N.3   145  ALA145     -0.1231
    156  CA        39.8340  -11.7060   30.1080 C.3   145  ALA145      0.1694
    157  C         39.9570  -11.2440   31.5550 C.2   145  ALA145      0.2592
    158  O         41.0360  -11.3090   32.1540 O.2   145  ALA145     -0.2718
    159  CB        38.8540  -12.8750   30.0030 C.3   145  ALA145      0.0304
    160  N         38.8370  -10.7850   32.1040 N.am  146  ASP146     -0.1974
    161  CA        38.7540  -10.2960   33.4770 C.3   146  ASP146      0.1709
    162  C         39.6990   -9.1330   33.7780 C.2   146  ASP146      0.2293
    163  O         40.7650   -9.3130   34.3750 O.2   146  ASP146     -0.2864
    164  CB        38.9510  -11.4290   34.4790 C.3   146  ASP146      0.1436
    165  CG        38.1620  -11.2080   35.7470 C.2   146  ASP146      0.3671
    166  OD1       37.8820  -10.0290   36.0680 O.co2 146  ASP146     -0.2456
    167  OD2       37.8100  -12.2070   36.4100 O.co2 146  ASP146     -0.2456
@<TRIPOS>BOND
     1    81    80   ar
     2    80    82   ar
     3    80    79    1
     4    78    79    1
     5    78    75    1
     6   101    99    1
     7    86    85    2
     8    75    76    1
     9    75    74    1
    10    99   100    1
    11    99    98    1
    12    83    76   am
    13    83    84    1
    14    85    84    1
    15    85    94   am
    16   106   107    1
    17   106   103    1
    18    76    77    2
    19    58    59    2
    20    58    57    1
    21    90    92   ar
    22    90    88   ar
    23    74    65   am
    24    87    84    1
    25    87    88    1
    26   107   109   ar
    27   107   108   ar
    28   109   111   ar
    29    95    98    1
    30    95    94    1
    31    95    96    1
    32   102   103    1
    33   102    96   am
    34    57    56    1
    35    57    60    1
    36   108   110   ar
    37   111   110   ar
    38    92    93   ar
    39   150   149    2
    40    88    89   ar
    41   103   104    1
    42    96    97    2
    43    65    66    2
    44    65    64    1
    45   149   148    1
    46    62    60    1
    47    60    61    1
    48    93    91   ar
    49    64    63    1
    50    64    67    1
    51    89    91   ar
    52   104   112   am
    53   104   105    2
    54   112   113    1
    55    42    43    1
    56   151   148    1
    57   151   152    1
    58   148   147    1
    59   115   114    2
    60    67    68    1
    61   119   118    2
    62   116   117    1
    63   116   113    1
    64   117   118    1
    65   113   114    1
    66   118   120   am
    67    69    68   ar
    68    69    71   ar
    69   114   121   am
    70   153   152    1
    71    43    46    1
    72    43    44    1
    73    68    70   ar
    74   152   154    1
    75    45    44    2
    76    71    73   ar
    77   155   156    1
    78   121   122    1
    79   159   156    1
    80    70    72   ar
    81   156   157    1
    82     8     7   ar
    83   124   123    2
    84   123   122    1
    85   122   125    1
    86    73    72   ar
    87     7     9   ar
    88     7     6    1
    89    17    15    1
    90     1     2    1
    91   157   160   am
    92   157   158    2
    93   125   126    1
    94     6     5    1
    95   131   132    2
    96   131   130    1
    97   160   161    1
    98    15    14    1
    99   133   130    1
   100   133   134    1
   101     5     2    1
   102   127   126   ar
   103     2     3    1
   104    47    48    1
   105   130   129    1
   106   126   128   ar
   107     4     3    2
   108    16    14    1
   109    40    39    1
   110   134   135    1
   111    14    11    1
   112   161   162    1
   113   161   164    1
   114   162   163    2
   115    48    51    1
   116    48    49    1
   117    51    52    1
   118    50    49    2
   119   140   141    2
   120   140   139    1
   121   164   165    1
   122    11    10    1
   123    11    12    1
   124   138   139    1
   125    37    36    1
   126    37    38    2
   127   135   136    1
   128    39    36    1
   129    39    41    1
   130    54    55    1
   131    54    53    1
   132   139   142    1
   133    36    35    1
   134    52    53    1
   135   165   166   ar
   136   165   167   ar
   137    12    13    2
   138    12    18   am
   139   136   137    1
   140   142   143    1
   141    18    19    1
   142   143   144    1
   143   145   144    2
   144   144   146   am
   145    19    20    1
   146    21    20    2
   147    20    22   am
   148    22    23    1
   149    25    24    2
   150    23    24    1
   151    23    26    1
   152    24    31   am
   153    31    32    1
   154    32    33    1
   155    26    27    1
   156    27    28    1
   157    33    34    2
   158    28    29   ar
   159    28    30   ar
