@<TRIPOS>MOLECULE
tmp/4bcnA00.pdb
 162 155 0 0 0
SMALL
GASTEIGER

@<TRIPOS>ATOM
      1  N          2.2620   20.9310   28.9930 N.3    11  ILE11      -0.1231
      2  CA         2.4780   22.0340   28.0650 C.3    11  ILE11       0.1692
      3  C          1.3660   22.1000   27.0290 C.2    11  ILE11       0.2593
      4  O          0.7990   23.1620   26.7760 O.2    11  ILE11      -0.2718
      5  CB         3.8220   21.8960   27.3290 C.3    11  ILE11       0.0266
      6  CG1        4.9820   22.1550   28.2890 C.3    11  ILE11       0.0019
      7  CG2        3.8830   22.8590   26.1540 C.3    11  ILE11       0.0020
      8  CD1        6.3410   21.9740   27.6600 C.3    11  ILE11       0.0001
      9  N          1.0650   20.9520   26.4340 N.am   12  GLY12      -0.1942
     10  CA         0.0440   20.8570   25.4100 C.3    12  GLY12       0.2014
     11  C         -0.2170   19.4150   25.0260 C.2    12  GLY12       0.2638
     12  O          0.3010   18.4910   25.6520 O.2    12  GLY12      -0.2714
     13  N         -1.0200   19.2240   23.9860 N.am   13  GLU13      -0.1977
     14  CA        -1.4230   17.8890   23.5580 C.3    13  GLU13       0.1602
     15  C         -0.9250   17.5800   22.1490 C.2    13  GLU13       0.2287
     16  O         -0.6400   18.4890   21.3710 O.2    13  GLU13      -0.2864
     17  CB        -2.9460   17.7610   23.6170 C.3    13  GLU13       0.0415
     18  CG        -3.6650   19.1000   23.5260 C.3    13  GLU13       0.1163
     19  CD        -5.1290   18.9640   23.1590 C.2    13  GLU13       0.3649
     20  OE1       -5.6810   17.8500   23.2940 O.co2  13  GLU13      -0.2457
     21  OE2       -5.7270   19.9750   22.7300 O.co2  13  GLU13      -0.2457
     22  N          2.7960   16.4090   25.6310 N.3    19  VAL19      -0.1245
     23  CA         4.0110   17.1160   26.0150 C.3    19  VAL19       0.1561
     24  C          3.9420   17.7010   27.4260 C.2    19  VAL19       0.2260
     25  O          3.0070   18.4300   27.7660 O.2    19  VAL19      -0.2867
     26  CB         4.3240   18.2440   25.0170 C.3    19  VAL19       0.0252
     27  CG1        5.7180   18.7910   25.2540 C.3    19  VAL19       0.0019
     28  CG2        4.1850   17.7370   23.5880 C.3    19  VAL19       0.0019
     29  N         11.2000   19.7930   27.7920 N.3    32  ALA32      -0.1245
     30  CA         9.8600   19.4050   27.3910 C.3    32  ALA32       0.1562
     31  C          9.8940   17.9290   27.0430 C.2    32  ALA32       0.2260
     32  O         10.7430   17.4880   26.2670 O.2    32  ALA32      -0.2867
     33  CB         9.4100   20.2190   26.1950 C.3    32  ALA32       0.0290
     34  N          8.0740   14.6260   25.4400 N.3    34  LYS34      -0.1245
     35  CA         7.0630   14.1380   24.5240 C.3    34  LYS34       0.1561
     36  C          6.9720   12.6280   24.7010 C.2    34  LYS34       0.2260
     37  O          7.9130   11.8970   24.3880 O.2    34  LYS34      -0.2867
     38  CB         7.4580   14.5020   23.0920 C.3    34  LYS34       0.0271
     39  CG         6.3650   14.3580   22.0550 C.3    34  LYS34       0.0035
     40  CD         6.8010   15.0190   20.7570 C.3    34  LYS34       0.0206
     41  CE         5.8510   14.7160   19.6200 C.3    34  LYS34       0.1093
     42  NZ         6.3360   15.3260   18.3570 N.3    34  LYS34      -0.1314
     43  N         14.7150   23.8210   17.5930 N.3    63  VAL63      -0.1245
     44  CA        14.6340   23.2820   18.9430 C.3    63  VAL63       0.1561
     45  C         15.4410   21.9950   19.0450 C.2    63  VAL63       0.2260
     46  O         15.3890   21.1380   18.1620 O.2    63  VAL63      -0.2867
     47  CB        13.1900   23.0340   19.3950 C.3    63  VAL63       0.0252
     48  CG1       13.1820   22.5230   20.8260 C.3    63  VAL63       0.0019
     49  CG2       12.3870   24.3180   19.3010 C.3    63  VAL63       0.0019
     50  N         13.2010   17.3150   24.8860 N.3    79  PHE79      -0.1227
     51  CA        13.5090   18.5190   24.1260 C.3    79  PHE79       0.1736
     52  C         14.0010   19.6470   25.0160 C.2    79  PHE79       0.2595
     53  O         13.6300   19.7480   26.1850 O.2    79  PHE79      -0.2718
     54  CB        12.2700   19.0280   23.3710 C.3    79  PHE79       0.0547
     55  CG        11.8400   18.1510   22.2280 C.ar   79  PHE79      -0.0202
     56  CD1       12.3920   18.3100   20.9720 C.ar   79  PHE79      -0.0042
     57  CD2       10.8700   17.1840   22.4080 C.ar   79  PHE79      -0.0042
     58  CE1       11.9870   17.5100   19.9150 C.ar   79  PHE79      -0.0003
     59  CE2       10.4660   16.3830   21.3600 C.ar   79  PHE79      -0.0003
     60  CZ        11.0270   16.5470   20.1110 C.ar   79  PHE79      -0.0000
     61  N         14.8350   20.4980   24.4360 N.am   80  GLU80      -0.1965
     62  CA        15.1060   21.8160   24.9800 C.3    80  GLU80       0.1733
     63  C         13.7680   22.4960   25.2910 C.2    80  GLU80       0.2616
     64  O         12.8240   22.4050   24.5000 O.2    80  GLU80      -0.2715
     65  CB        15.8830   22.6090   23.9340 C.3    80  GLU80       0.0429
     66  CG        15.9550   24.1010   24.1490 C.3    80  GLU80       0.1163
     67  CD        16.5880   24.8090   22.9690 C.2    80  GLU80       0.3649
     68  OE1       16.6220   24.2200   21.8660 O.co2  80  GLU80      -0.2457
     69  OE2       17.0560   25.9530   23.1390 O.co2  80  GLU80      -0.2457
     70  N         13.6730   23.1580   26.4410 N.am   81  PHE81      -0.1960
     71  CA        12.4320   23.8450   26.8090 C.3    81  PHE81       0.1771
     72  C         12.4060   25.3180   26.4130 C.2    81  PHE81       0.2619
     73  O         13.2950   26.0900   26.7770 O.2    81  PHE81      -0.2715
     74  CB        12.1510   23.7300   28.3070 C.3    81  PHE81       0.0574
     75  CG        10.9560   24.5220   28.7520 C.ar   81  PHE81      -0.0200
     76  CD1        9.6770   23.9990   28.6350 C.ar   81  PHE81      -0.0042
     77  CD2       11.1050   25.7980   29.2690 C.ar   81  PHE81      -0.0042
     78  CE1        8.5740   24.7300   29.0340 C.ar   81  PHE81      -0.0003
     79  CE2       10.0030   26.5330   29.6700 C.ar   81  PHE81      -0.0003
     80  CZ         8.7360   25.9970   29.5520 C.ar   81  PHE81      -0.0000
     81  N         11.3790   25.7110   25.6710 N.am   82  LEU82      -0.1963
     82  CA        11.1560   27.1280   25.4180 C.3    82  LEU82       0.1728
     83  C          9.8720   27.5730   26.1000 C.2    82  LEU82       0.2616
     84  O          8.9950   26.7590   26.3780 O.2    82  LEU82      -0.2715
     85  CB        11.1480   27.4440   23.9240 C.3    82  LEU82       0.0311
     86  CG        12.5590   27.4420   23.3190 C.3    82  LEU82       0.0022
     87  CD1       12.9440   26.0360   22.8920 C.3    82  LEU82       0.0001
     88  CD2       12.6550   28.4100   22.1510 C.3    82  LEU82       0.0001
     89  N          9.7710   28.8680   26.3660 N.am   83  HIS83      -0.1959
     90  CA         8.7550   29.3810   27.2710 C.3    83  HIS83       0.1787
     91  C          7.3580   29.5250   26.6760 C.2    83  HIS83       0.2620
     92  O          6.3710   29.4710   27.4050 O.2    83  HIS83      -0.2715
     93  CB         9.2340   30.6950   27.8870 C.3    83  HIS83       0.0785
     94  CG        10.5630   30.5750   28.5650 C.ar   83  HIS83       0.0821
     95  ND1       11.7440   30.4390   27.8660 N.ar   83  HIS83      -0.2267
     96  CD2       10.8950   30.5360   29.8770 C.ar   83  HIS83       0.1154
     97  CE1       12.7480   30.3390   28.7190 C.ar   83  HIS83       0.1986
     98  NE2       12.2590   30.3940   29.9460 N.ar   83  HIS83      -0.2212
     99  N          7.2670   29.6830   25.3590 N.am   84  GLN84      -0.1963
    100  CA         5.9700   29.9300   24.7360 C.3    84  GLN84       0.1733
    101  C          6.0080   29.7470   23.2200 C.2    84  GLN84       0.2616
    102  O          7.0840   29.7670   22.6170 O.2    84  GLN84      -0.2715
    103  CB         5.4990   31.3430   25.0820 C.3    84  GLN84       0.0408
    104  CG         4.0170   31.5980   24.8380 C.3    84  GLN84       0.0908
    105  CD         3.6190   33.0030   25.2250 C.2    84  GLN84       0.2608
    106  OE1        4.1490   33.9780   24.6930 O.2    84  GLN84      -0.2717
    107  NE2        2.6960   33.1170   26.1700 N.am   84  GLN84      -0.0878
    108  N          4.8390   29.5550   22.6080 N.am   85  ASP85      -0.1971
    109  CA         4.7550   29.4780   21.1520 C.3    85  ASP85       0.1709
    110  C          4.3190   30.8220   20.5620 C.2    85  ASP85       0.2293
    111  O          3.6960   31.6380   21.2450 O.2    85  ASP85      -0.2864
    112  CB         3.8360   28.3400   20.6890 C.3    85  ASP85       0.1436
    113  CG         2.4040   28.5130   21.1540 C.2    85  ASP85       0.3671
    114  OD1        1.6750   29.3050   20.5340 O.co2  85  ASP85      -0.2456
    115  OD2        2.0110   27.8480   22.1340 O.co2  85  ASP85      -0.2456
    116  N          0.4450   31.8230   20.8290 N.3    88  LYS88      -0.1245
    117  CA         0.0530   32.3570   22.1320 C.3    88  LYS88       0.1561
    118  C          0.5940   33.7730   22.3160 C.2    88  LYS88       0.2260
    119  O         -0.1040   34.6640   22.8060 O.2    88  LYS88      -0.2867
    120  CB         0.5530   31.4560   23.2620 C.3    88  LYS88       0.0271
    121  CG        -0.0750   30.0710   23.2850 C.3    88  LYS88       0.0035
    122  CD         0.5110   29.2300   24.4130 C.3    88  LYS88       0.0206
    123  CE        -0.2160   27.9010   24.5630 C.3    88  LYS88       0.1093
    124  NZ        -0.0480   27.0130   23.3770 N.3    88  LYS88      -0.1314
    125  N          2.0080   28.1110   15.9470 N.3   130  GLN130     -0.1231
    126  CA         1.9440   27.1470   17.0430 C.3   130  GLN130      0.1698
    127  C          3.2190   26.3050   17.1470 C.2   130  GLN130      0.2592
    128  O          3.5680   25.8190   18.2260 O.2   130  GLN130     -0.2718
    129  CB         0.7250   26.2280   16.8850 C.3   130  GLN130      0.0381
    130  CG        -0.6310   26.9260   17.0250 C.3   130  GLN130      0.0905
    131  CD        -1.0950   27.6460   15.7550 C.2   130  GLN130      0.2608
    132  OE1       -0.3550   27.7710   14.7760 O.2   130  GLN130     -0.2717
    133  NE2       -2.3360   28.1180   15.7740 N.am  130  GLN130     -0.0878
    134  N          3.9110   26.1330   16.0240 N.am  131  ASN131     -0.1974
    135  CA         5.1210   25.3080   15.9840 C.3   131  ASN131      0.1688
    136  C          6.4210   26.1100   16.0480 C.2   131  ASN131      0.2292
    137  O          7.5100   25.5640   15.8640 O.2   131  ASN131     -0.2864
    138  CB         5.1230   24.4140   14.7440 C.3   131  ASN131      0.1181
    139  CG         4.1220   23.2920   14.8430 C.2   131  ASN131      0.2629
    140  OD1        3.7150   22.9180   15.9390 O.2   131  ASN131     -0.2716
    141  ND2        3.7240   22.7400   13.7010 N.am  131  ASN131     -0.0877
    142  N          8.6410   28.3900   18.5690 N.3   133  LEU133     -0.1245
    143  CA         8.7480   28.6340   20.0050 C.3   133  LEU133      0.1561
    144  C          9.7350   29.7460   20.3260 C.2   133  LEU133      0.2260
    145  O         10.7770   29.8690   19.6820 O.2   133  LEU133     -0.2867
    146  CB         9.1490   27.3520   20.7310 C.3   133  LEU133      0.0270
    147  CG         8.3780   26.1030   20.3100 C.3   133  LEU133      0.0019
    148  CD1        8.8300   24.9020   21.1190 C.3   133  LEU133      0.0001
    149  CD2        6.8720   26.3240   20.4490 C.3   133  LEU133      0.0001
    150  N          9.9620   24.0800   15.7260 N.3   143  ALA143     -0.1231
    151  CA         9.6810   22.8800   16.5000 C.3   143  ALA143      0.1694
    152  C          8.7020   21.9710   15.7610 C.2   143  ALA143      0.2592
    153  O          8.1620   22.3420   14.7140 O.2   143  ALA143     -0.2718
    154  CB         9.1350   23.2500   17.8760 C.3   143  ALA143      0.0304
    155  N          8.4950   20.7830   16.3230 N.am  144  ASP144     -0.1974
    156  CA         7.5930   19.7620   15.7860 C.3   144  ASP144      0.1709
    157  C          7.9580   19.3060   14.3800 C.2   144  ASP144      0.2293
    158  O          7.3830   19.7680   13.3950 O.2   144  ASP144     -0.2864
    159  CB         6.1380   20.2240   15.8190 C.3   144  ASP144      0.1436
    160  CG         5.1580   19.0580   15.7280 C.2   144  ASP144      0.3671
    161  OD1        5.5610   17.9630   15.2680 O.co2 144  ASP144     -0.2456
    162  OD2        3.9880   19.2360   16.1250 O.co2 144  ASP144     -0.2456
@<TRIPOS>BOND
     1   158   157    2
     2   141   139   am
     3   157   156    1
     4   153   152    2
     5   138   139    1
     6   138   135    1
     7   132   131    2
     8   139   140    2
     9   161   160   ar
    10   150   151    1
    11   160   159    1
    12   160   162   ar
    13   131   133   am
    14   131   130    1
    15   152   155   am
    16   152   151    1
    17   156   159    1
    18   156   155    1
    19   137   136    2
    20   125   126    1
    21   135   134    1
    22   135   136    1
    23   134   127   am
    24   151   154    1
    25   129   130    1
    26   129   126    1
    27   126   127    1
    28   127   128    2
    29    43    44    1
    30    46    45    2
    31    42    41    1
    32   142   143    1
    33    44    45    1
    34    44    47    1
    35    49    47    1
    36    47    48    1
    37    41    40    1
    38   145   144    2
    39    58    60   ar
    40    58    56   ar
    41   143   144    1
    42   143   146    1
    43    60    59   ar
    44   147   149    1
    45   147   146    1
    46   147   148    1
    47   114   113   ar
    48   110   109    1
    49   110   111    2
    50   112   109    1
    51   112   113    1
    52    40    39    1
    53   116   117    1
    54    56    55   ar
    55   109   108    1
    56   113   115   ar
    57    59    57   ar
    58    16    15    2
    59    68    67   ar
    60    39    38    1
    61   117   118    1
    62   117   120    1
    63    15    14    1
    64    88    86    1
    65    55    57   ar
    66    55    54    1
    67   118   119    2
    68   108   101   am
    69   102   101    2
    70    21    19   ar
    71    87    86    1
    72    67    69   ar
    73    67    66    1
    74    38    35    1
    75    19    20   ar
    76    19    18    1
    77   101   100    1
    78   120   121    1
    79   121   122    1
    80    86    85    1
    81    54    51    1
    82   124   123    1
    83    18    17    1
    84    14    17    1
    85    14    13    1
    86    28    26    1
    87    85    82    1
    88    65    66    1
    89    65    62    1
    90    13    11   am
    91    51    50    1
    92    51    52    1
    93    37    36    2
    94   122   123    1
    95    61    62    1
    96    61    52   am
    97    64    63    2
    98    35    36    1
    99    35    34    1
   100   106   105    2
   101   100   103    1
   102   100    99    1
   103   104   103    1
   104   104   105    1
   105    62    63    1
   106    52    53    2
   107    26    27    1
   108    26    23    1
   109    11    10    1
   110    11    12    2
   111   105   107   am
   112    63    70   am
   113    99    91   am
   114    10     9    1
   115    82    81    1
   116    82    83    1
   117    22    23    1
   118    81    72   am
   119    23    24    1
   120    83    89   am
   121    83    84    2
   122     7     5    1
   123    33    30    1
   124    32    31    2
   125    89    90    1
   126    72    73    2
   127    72    71    1
   128     9     3   am
   129    70    71    1
   130    91    90    1
   131    91    92    2
   132     4     3    2
   133    71    74    1
   134     3     2    1
   135    31    30    1
   136    90    93    1
   137     5     2    1
   138     5     6    1
   139    30    29    1
   140    24    25    2
   141     8     6    1
   142    95    94   ar
   143    95    97   ar
   144    93    94    1
   145     2     1    1
   146    74    75    1
   147    94    96   ar
   148    76    75   ar
   149    76    78   ar
   150    97    98   ar
   151    75    77   ar
   152    78    80   ar
   153    77    79   ar
   154    80    79   ar
   155    96    98   ar
