@<TRIPOS>MOLECULE
tmp/4bcoA00.pdb
 206 195 0 0 0
SMALL
GASTEIGER

@<TRIPOS>ATOM
      1  N         -4.4710   18.9620  -34.2890 N.3     9  GLU9       -0.1231
      2  CA        -3.1010   19.0900  -33.8050 C.3     9  GLU9        0.1699
      3  C         -2.9550   18.6880  -32.3380 C.2     9  GLU9        0.2592
      4  O         -3.9420   18.5900  -31.6100 O.2     9  GLU9       -0.2718
      5  CB        -2.5940   20.5200  -34.0080 C.3     9  GLU9        0.0402
      6  CG        -3.4850   21.5950  -33.4100 C.3     9  GLU9        0.1161
      7  CD        -2.9820   22.9930  -33.7200 C.2     9  GLU9        0.3649
      8  OE1       -2.1360   23.5050  -32.9550 O.co2   9  GLU9       -0.2457
      9  OE2       -3.4270   23.5790  -34.7310 O.co2   9  GLU9       -0.2457
     10  N         -1.7160   18.4580  -31.9120 N.am   10  LYS10      -0.1966
     11  CA        -1.4380   18.1400  -30.5170 C.3    10  LYS10       0.1728
     12  C         -1.3130   19.4210  -29.7000 C.2    10  LYS10       0.2616
     13  O         -0.4930   20.2810  -30.0060 O.2    10  LYS10      -0.2715
     14  CB        -0.1670   17.2970  -30.3890 C.3    10  LYS10       0.0311
     15  CG         0.2500   17.0230  -28.9490 C.3    10  LYS10       0.0038
     16  CD         1.5400   16.2140  -28.8750 C.3    10  LYS10       0.0206
     17  CE         2.0830   16.1650  -27.4510 C.3    10  LYS10       0.1093
     18  NZ         3.3590   15.3970  -27.3500 N.3    10  LYS10      -0.1314
     19  N         -2.1460   19.5440  -28.6710 N.am   11  ILE11      -0.1977
     20  CA        -2.1620   20.7240  -27.8130 C.3    11  ILE11       0.1596
     21  C         -1.0640   20.6660  -26.7460 C.2    11  ILE11       0.2287
     22  O         -0.3880   21.6590  -26.4950 O.2    11  ILE11      -0.2864
     23  CB        -3.5320   20.8870  -27.1150 C.3    11  ILE11       0.0276
     24  CG1       -4.6420   21.0910  -28.1450 C.3    11  ILE11       0.0022
     25  CG2       -3.5050   22.0500  -26.1330 C.3    11  ILE11       0.0022
     26  CD1       -6.0150   21.2810  -27.5260 C.3    11  ILE11       0.0001
     27  N          0.3190   18.1220  -22.9760 N.3    13  GLU13      -0.1231
     28  CA        -0.0140   17.0950  -21.9860 C.3    13  GLU13       0.1699
     29  C         -0.8830   17.6730  -20.8700 C.2    13  GLU13       0.2592
     30  O         -0.6730   18.8050  -20.4380 O.2    13  GLU13      -0.2718
     31  CB         1.2510   16.4910  -21.3620 C.3    13  GLU13       0.0402
     32  CG         2.0830   15.6190  -22.2950 C.3    13  GLU13       0.1161
     33  CD         3.1890   14.8700  -21.5610 C.2    13  GLU13       0.3649
     34  OE1        3.1540   14.8350  -20.3100 O.co2  13  GLU13      -0.2457
     35  OE2        4.0950   14.3200  -22.2330 O.co2  13  GLU13      -0.2457
     36  N         -1.8570   16.8950  -20.4070 N.am   14  GLY14      -0.1957
     37  CA        -2.6270   17.2720  -19.2360 C.3    14  GLY14       0.1869
     38  C         -1.8680   16.8700  -17.9840 C.2    14  GLY14       0.2309
     39  O         -0.6680   16.5930  -18.0430 O.2    14  GLY14      -0.2863
     40  N         -3.1590   15.6120  -24.8830 N.3    19  VAL19      -0.1245
     41  CA        -4.3240   16.3580  -25.3590 C.3    19  VAL19       0.1561
     42  C         -4.2060   16.7830  -26.8160 C.2    19  VAL19       0.2260
     43  O         -3.1940   17.3460  -27.2270 O.2    19  VAL19      -0.2867
     44  CB        -4.6010   17.6080  -24.4890 C.3    19  VAL19       0.0252
     45  CG1       -5.8990   18.3070  -24.9310 C.3    19  VAL19       0.0019
     46  CG2       -4.6700   17.2220  -23.0170 C.3    19  VAL19       0.0019
     47  N         -6.3880   18.7630  -30.1560 N.3    21  LYS21      -0.1245
     48  CA        -7.5360   19.4830  -30.6900 C.3    21  LYS21       0.1561
     49  C         -8.0910   18.6750  -31.8610 C.2    21  LYS21       0.2260
     50  O         -7.3320   18.2050  -32.7060 O.2    21  LYS21      -0.2867
     51  CB        -7.1180   20.8680  -31.1740 C.3    21  LYS21       0.0271
     52  CG        -8.2400   21.6540  -31.8520 C.3    21  LYS21       0.0035
     53  CD        -7.7500   23.0170  -32.3310 C.3    21  LYS21       0.0206
     54  CE        -8.8570   23.7880  -33.0470 C.3    21  LYS21       0.1093
     55  NZ        -8.3640   25.0740  -33.6230 N.3    21  LYS21      -0.1314
     56  N        -11.5560   18.9370  -27.5320 N.3    32  ALA32      -0.1245
     57  CA       -10.2310   18.5180  -27.0900 C.3    32  ALA32       0.1562
     58  C        -10.3190   17.0510  -26.7030 C.2    32  ALA32       0.2260
     59  O        -11.2310   16.6500  -25.9780 O.2    32  ALA32      -0.2867
     60  CB        -9.7640   19.3560  -25.8980 C.3    32  ALA32       0.0290
     61  N         -8.4620   13.9650  -24.8110 N.3    34  LYS34      -0.1245
     62  CA        -7.4260   13.5600  -23.8830 C.3    34  LYS34       0.1561
     63  C         -7.2450   12.0530  -24.0200 C.2    34  LYS34       0.2260
     64  O         -8.1330   11.2760  -23.6630 O.2    34  LYS34      -0.2867
     65  CB        -7.8190   13.9610  -22.4640 C.3    34  LYS34       0.0271
     66  CG        -6.7320   13.8230  -21.4130 C.3    34  LYS34       0.0035
     67  CD        -7.2750   14.3510  -20.0960 C.3    34  LYS34       0.0206
     68  CE        -6.2620   14.2850  -18.9860 C.3    34  LYS34       0.1093
     69  NZ        -6.7540   14.9850  -17.7730 N.3    34  LYS34      -0.1314
     70  N        -11.3490   11.6370  -12.5430 N.3    52  GLU52      -0.1245
     71  CA       -11.6540   12.7440  -13.4420 C.3    52  GLU52       0.1567
     72  C        -12.9860   12.5280  -14.1380 C.2    52  GLU52       0.2260
     73  O        -13.8270   13.4280  -14.2090 O.2    52  GLU52      -0.2867
     74  CB       -10.5550   12.9760  -14.4850 C.3    52  GLU52       0.0388
     75  CG       -10.9550   14.0620  -15.4770 C.3    52  GLU52       0.1160
     76  CD        -9.7920   14.6690  -16.2320 C.2    52  GLU52       0.3649
     77  OE1       -8.8700   13.9190  -16.6020 O.co2  52  GLU52      -0.2457
     78  OE2       -9.8150   15.9080  -16.4530 O.co2  52  GLU52      -0.2457
     79  N        -15.1760   23.0050  -17.3920 N.3    65  VAL65      -0.1245
     80  CA       -15.0970   22.4700  -18.7500 C.3    65  VAL65       0.1561
     81  C        -15.9790   21.2310  -18.8580 C.2    65  VAL65       0.2260
     82  O        -15.9940   20.3850  -17.9670 O.2    65  VAL65      -0.2867
     83  CB       -13.6640   22.0950  -19.1410 C.3    65  VAL65       0.0252
     84  CG1      -13.1820   20.9060  -18.3050 C.3    65  VAL65       0.0019
     85  CG2      -13.5940   21.7750  -20.6340 C.3    65  VAL65       0.0019
     86  N        -13.6050   16.4710  -24.5950 N.3    81  PHE81      -0.1227
     87  CA       -13.9660   17.6930  -23.8740 C.3    81  PHE81       0.1736
     88  C        -14.3760   18.7910  -24.8470 C.2    81  PHE81       0.2595
     89  O        -13.8770   18.8470  -25.9670 O.2    81  PHE81      -0.2718
     90  CB       -12.7530   18.2330  -23.1100 C.3    81  PHE81       0.0547
     91  CG       -12.3150   17.3860  -21.9570 C.ar   81  PHE81      -0.0202
     92  CD1      -12.9070   17.5340  -20.7100 C.ar   81  PHE81      -0.0042
     93  CD2      -11.2840   16.4730  -22.1000 C.ar   81  PHE81      -0.0042
     94  CE1      -12.4960   16.7700  -19.6360 C.ar   81  PHE81      -0.0003
     95  CE2      -10.8640   15.7040  -21.0220 C.ar   81  PHE81      -0.0003
     96  CZ       -11.4760   15.8520  -19.7930 C.ar   81  PHE81      -0.0000
     97  N        -15.2520   19.6910  -24.4140 N.am   82  GLU82      -0.1965
     98  CA       -15.4690   20.9200  -25.1700 C.3    82  GLU82       0.1733
     99  C        -14.1240   21.6300  -25.3320 C.2    82  GLU82       0.2616
    100  O        -13.2930   21.6170  -24.4190 O.2    82  GLU82      -0.2715
    101  CB       -16.4530   21.8410  -24.4490 C.3    82  GLU82       0.0429
    102  CG       -15.9550   22.3220  -23.1000 C.3    82  GLU82       0.1163
    103  CD       -16.8090   23.4320  -22.5060 C.2    82  GLU82       0.3649
    104  OE1      -17.2340   24.3320  -23.2560 O.co2  82  GLU82      -0.2457
    105  OE2      -17.0490   23.4040  -21.2850 O.co2  82  GLU82      -0.2457
    106  N        -13.9030   22.2380  -26.4950 N.am   83  PHE83      -0.1960
    107  CA       -12.6430   22.9230  -26.7650 C.3    83  PHE83       0.1771
    108  C        -12.6750   24.3670  -26.2980 C.2    83  PHE83       0.2619
    109  O        -13.6320   25.0910  -26.5570 O.2    83  PHE83      -0.2715
    110  CB       -12.3020   22.8760  -28.2580 C.3    83  PHE83       0.0574
    111  CG       -11.0250   23.6050  -28.6230 C.ar   83  PHE83      -0.0200
    112  CD1       -9.7870   23.0530  -28.3350 C.ar   83  PHE83      -0.0042
    113  CD2      -11.0670   24.8290  -29.2740 C.ar   83  PHE83      -0.0042
    114  CE1       -8.6070   23.7140  -28.6760 C.ar   83  PHE83      -0.0003
    115  CE2       -9.8920   25.4970  -29.6190 C.ar   83  PHE83      -0.0003
    116  CZ        -8.6580   24.9360  -29.3180 C.ar   83  PHE83      -0.0000
    117  N        -11.6230   24.7780  -25.6040 N.am   84  LEU84      -0.1963
    118  CA       -11.4340   26.1850  -25.2910 C.3    84  LEU84       0.1728
    119  C        -10.1680   26.6590  -25.9750 C.2    84  LEU84       0.2616
    120  O         -9.3130   25.8480  -26.3380 O.2    84  LEU84      -0.2715
    121  CB       -11.4090   26.4230  -23.7790 C.3    84  LEU84       0.0311
    122  CG       -12.8380   26.4310  -23.2200 C.3    84  LEU84       0.0022
    123  CD1      -13.2090   25.0770  -22.6360 C.3    84  LEU84       0.0001
    124  CD2      -13.0400   27.5410  -22.1920 C.3    84  LEU84       0.0001
    125  N        -10.0540   27.9670  -26.1630 N.am   85  HIS85      -0.1959
    126  CA        -9.0510   28.5250  -27.0710 C.3    85  HIS85       0.1787
    127  C         -7.6530   28.7240  -26.4990 C.2    85  HIS85       0.2620
    128  O         -6.6850   28.8190  -27.2470 O.2    85  HIS85      -0.2715
    129  CB        -9.5810   29.8320  -27.6590 C.3    85  HIS85       0.0785
    130  CG       -10.8970   29.6680  -28.3510 C.ar   85  HIS85       0.0821
    131  ND1      -12.1000   29.6860  -27.6780 N.ar   85  HIS85      -0.2267
    132  CD2      -11.1960   29.4220  -29.6490 C.ar   85  HIS85       0.1154
    133  CE1      -13.0840   29.4830  -28.5330 C.ar   85  HIS85       0.1986
    134  NE2      -12.5630   29.3190  -29.7380 N.ar   85  HIS85      -0.2212
    135  N         -7.5360   28.7770  -25.1770 N.am   86  GLN86      -0.1963
    136  CA        -6.2870   29.1870  -24.5720 C.3    86  GLN86       0.1733
    137  C         -6.3850   28.9750  -23.0680 C.2    86  GLN86       0.2616
    138  O         -7.4860   28.8890  -22.5280 O.2    86  GLN86      -0.2715
    139  CB        -6.0550   30.6670  -24.8850 C.3    86  GLN86       0.0408
    140  CG        -4.7230   31.2230  -24.4470 C.3    86  GLN86       0.0908
    141  CD        -3.5570   30.4460  -25.0160 C.2    86  GLN86       0.2608
    142  OE1       -3.2530   29.3470  -24.5540 O.2    86  GLN86      -0.2717
    143  NE2       -2.8960   31.0130  -26.0240 N.am   86  GLN86      -0.0878
    144  N         -5.2390   28.8540  -22.4020 N.am   87  ASP87      -0.1971
    145  CA        -5.2150   28.8210  -20.9480 C.3    87  ASP87       0.1709
    146  C         -4.8190   30.1880  -20.4150 C.2    87  ASP87       0.2293
    147  O         -4.2510   31.0110  -21.1440 O.2    87  ASP87      -0.2864
    148  CB        -4.2880   27.7180  -20.4100 C.3    87  ASP87       0.1436
    149  CG        -2.8120   27.9730  -20.6990 C.2    87  ASP87       0.3671
    150  OD1       -2.3200   29.0870  -20.4520 O.co2  87  ASP87      -0.2456
    151  OD2       -2.1300   27.0380  -21.1590 O.co2  87  ASP87      -0.2456
    152  N         -0.9490   31.4500  -20.6410 N.3    90  LYS90      -0.1245
    153  CA        -0.5320   32.0250  -21.9130 C.3    90  LYS90       0.1561
    154  C         -1.1890   33.3840  -22.1330 C.2    90  LYS90       0.2260
    155  O         -0.5720   34.3000  -22.6750 O.2    90  LYS90      -0.2867
    156  CB        -0.8350   31.0750  -23.0740 C.3    90  LYS90       0.0271
    157  CG         0.3720   30.2620  -23.5190 C.3    90  LYS90       0.0035
    158  CD         0.2610   28.8060  -23.1050 C.3    90  LYS90       0.0206
    159  CE        -0.6800   28.0440  -24.0280 C.3    90  LYS90       0.1093
    160  NZ        -0.8880   26.6370  -23.5800 N.3    90  LYS90      -0.1314
    161  N         -2.5190   27.4470  -15.6900 N.3   132  GLN132     -0.1231
    162  CA        -2.4470   26.4500  -16.7600 C.3   132  GLN132      0.1698
    163  C         -3.7200   25.5870  -16.8630 C.2   132  GLN132      0.2592
    164  O         -4.0390   25.0760  -17.9310 O.2   132  GLN132     -0.2718
    165  CB        -1.2150   25.5470  -16.5830 C.3   132  GLN132      0.0381
    166  CG         0.1380   26.2250  -16.7990 C.3   132  GLN132      0.0905
    167  CD         0.6410   27.0010  -15.5790 C.2   132  GLN132      0.2608
    168  OE1       -0.0020   27.0330  -14.5260 O.2   132  GLN132     -0.2717
    169  NE2        1.7940   27.6430  -15.7290 N.am  132  GLN132     -0.0878
    170  N         -4.4360   25.4180  -15.7520 N.am  133  ASN133     -0.1974
    171  CA        -5.6410   24.5800  -15.7340 C.3   133  ASN133      0.1688
    172  C         -6.9220   25.3980  -15.8280 C.2   133  ASN133      0.2292
    173  O         -8.0270   24.8820  -15.6100 O.2   133  ASN133     -0.2864
    174  CB        -5.6900   23.7170  -14.4670 C.3   133  ASN133      0.1181
    175  CG        -4.6540   22.6140  -14.4730 C.2   133  ASN133      0.2629
    176  OD1       -4.1170   22.2640  -15.5230 O.2   133  ASN133     -0.2716
    177  ND2       -4.3750   22.0540  -13.3040 N.am  133  ASN133     -0.0877
    178  N         -9.1220   27.6490  -18.3520 N.3   135  LEU135     -0.1245
    179  CA        -9.2020   27.8400  -19.7960 C.3   135  LEU135      0.1561
    180  C        -10.2000   28.9250  -20.1830 C.2   135  LEU135      0.2260
    181  O        -11.2730   29.0230  -19.5990 O.2   135  LEU135     -0.2867
    182  CB        -9.5800   26.5260  -20.4750 C.3   135  LEU135      0.0270
    183  CG        -8.7440   25.2950  -20.1000 C.3   135  LEU135      0.0019
    184  CD1       -9.2140   24.0770  -20.8990 C.3   135  LEU135      0.0001
    185  CD2       -7.2600   25.5420  -20.3020 C.3   135  LEU135      0.0001
    186  N        -10.5220   23.3890  -15.4510 N.3   145  ALA145     -0.1231
    187  CA       -10.2160   22.2020  -16.2350 C.3   145  ALA145      0.1694
    188  C         -9.1890   21.3280  -15.5200 C.2   145  ALA145      0.2592
    189  O         -8.6100   21.7170  -14.4980 O.2   145  ALA145     -0.2718
    190  CB        -9.7040   22.5900  -17.6280 C.3   145  ALA145      0.0304
    191  N         -8.9800   20.1490  -16.0850 N.am  146  ASP146     -0.1974
    192  CA        -8.0430   19.1590  -15.5700 C.3   146  ASP146      0.1709
    193  C         -8.3180   18.7490  -14.1280 C.2   146  ASP146      0.2293
    194  O         -7.6920   19.2500  -13.1880 O.2   146  ASP146     -0.2864
    195  CB        -6.5880   19.5910  -15.7460 C.3   146  ASP146      0.1436
    196  CG        -5.6620   18.3940  -15.8700 C.2   146  ASP146      0.3671
    197  OD1       -5.9870   17.3540  -15.2510 O.co2 146  ASP146     -0.2456
    198  OD2       -4.6500   18.4730  -16.6020 O.co2 146  ASP146     -0.2456
    199  N         -7.4590   35.4620  -29.4540 N.3   298  LEU298     -0.1245
    200  CA        -6.9230   34.2180  -28.9040 C.3   298  LEU298      0.1561
    201  C         -6.4490   33.2610  -30.0000 C.2   298  LEU298      0.2260
    202  O         -7.2340   32.8210  -30.8420 O.2   298  LEU298     -0.2867
    203  CB        -7.9540   33.5300  -28.0040 C.3   298  LEU298      0.0270
    204  CG        -8.5130   34.3620  -26.8470 C.3   298  LEU298      0.0019
    205  CD1       -9.4460   33.5210  -25.9900 C.3   298  LEU298      0.0001
    206  CD2       -7.3910   34.9410  -26.0070 C.3   298  LEU298      0.0001
@<TRIPOS>BOND
     1     9     7   ar
     2     1     2    1
     3     5     2    1
     4     5     6    1
     5     2     3    1
     6     7     6    1
     7     7     8   ar
     8    55    54    1
     9    54    53    1
    10    50    49    2
    11     3    10   am
    12     3     4    2
    13    53    52    1
    14    10    11    1
    15    49    48    1
    16    52    51    1
    17    51    48    1
    18   202   201    2
    19    48    47    1
    20    11    14    1
    21    11    12    1
    22    14    15    1
    23    13    12    2
    24   201   200    1
    25   134   132   ar
    26   134   133   ar
    27    12    19   am
    28   132   130   ar
    29   115   116   ar
    30   115   113   ar
    31   199   200    1
    32   116   114   ar
    33   113   111   ar
    34    15    16    1
    35   200   203    1
    36    16    17    1
    37   114   112   ar
    38    19    20    1
    39   111   112   ar
    40   111   110    1
    41   133   131   ar
    42   130   131   ar
    43   130   129    1
    44   110   107    1
    45    24    26    1
    46    24    23    1
    47   203   204    1
    48    20    23    1
    49    20    21    1
    50   129   126    1
    51    56    57    1
    52    17    18    1
    53   128   127    2
    54    43    42    2
    55    23    25    1
    56    57    58    1
    57    57    60    1
    58   126   127    1
    59   126   125    1
    60   204   206    1
    61   204   205    1
    62    42    41    1
    63   107   106    1
    64   107   108    1
    65    21    22    2
    66    58    59    2
    67   109   108    2
    68   127   135   am
    69   106    99   am
    70   120   119    2
    71   108   117   am
    72   125   119   am
    73   143   141   am
    74   119   118    1
    75    89    88    2
    76   117   118    1
    77    41    40    1
    78    41    44    1
    79    99    98    1
    80    99   100    2
    81   118   121    1
    82   135   136    1
    83    98   101    1
    84    98    97    1
    85   141   142    2
    86   141   140    1
    87    45    44    1
    88   139   136    1
    89   139   140    1
    90    88    97   am
    91    88    87    1
    92    61    62    1
    93    86    87    1
    94   136   137    1
    95    44    46    1
    96   101   102    1
    97   159   160    1
    98   159   158    1
    99    63    62    1
   100    63    64    2
   101    62    65    1
   102    87    90    1
   103   121   122    1
   104   157   158    1
   105   157   156    1
   106   104   103   ar
   107   122   123    1
   108   122   124    1
   109    90    91    1
   110   102   103    1
   111   156   153    1
   112   137   138    2
   113   137   144   am
   114    27    28    1
   115   155   154    2
   116   103   105   ar
   117    65    66    1
   118   144   145    1
   119    32    33    1
   120    32    31    1
   121    35    33   ar
   122   154   153    1
   123    93    91   ar
   124    93    95   ar
   125    28    31    1
   126    28    29    1
   127    91    92   ar
   128   153   152    1
   129    33    34   ar
   130    66    67    1
   131   151   149   ar
   132   147   146    2
   133    95    96   ar
   134   145   146    1
   135   145   148    1
   136   184   183    1
   137    29    30    2
   138    29    36   am
   139    92    94   ar
   140   149   150   ar
   141   149   148    1
   142    85    83    1
   143   182   183    1
   144   182   179    1
   145    36    37    1
   146   185   183    1
   147   180   179    1
   148   180   181    2
   149    67    68    1
   150   179   178    1
   151    96    94   ar
   152    37    38    1
   153    83    80    1
   154    83    84    1
   155    68    69    1
   156    81    80    1
   157    81    82    2
   158    80    79    1
   159    39    38    2
   160   164   163    2
   161   190   187    1
   162   163   162    1
   163   163   170   am
   164   166   165    1
   165   166   167    1
   166   162   165    1
   167   162   161    1
   168   198   196   ar
   169    77    76   ar
   170    78    76   ar
   171   187   188    1
   172   187   186    1
   173    76    75    1
   174   191   192    1
   175   191   188   am
   176   196   195    1
   177   196   197   ar
   178   172   171    1
   179   172   173    2
   180   170   171    1
   181   195   192    1
   182   171   174    1
   183   169   167   am
   184   167   168    2
   185   192   193    1
   186   176   175    2
   187   188   189    2
   188    75    74    1
   189    74    71    1
   190   175   174    1
   191   175   177   am
   192    73    72    2
   193    72    71    1
   194   193   194    2
   195    71    70    1
