@<TRIPOS>MOLECULE
tmp/4bcqC00.pdb
 188 178 0 0 0
SMALL
GASTEIGER

@<TRIPOS>ATOM
      1  N         23.8950  -21.2000   33.5860 N.3     9  GLU9       -0.1245
      2  CA        24.5320  -21.7720   34.7690 C.3     9  GLU9        0.1567
      3  C         25.5030  -20.7820   35.4090 C.2     9  GLU9        0.2260
      4  O         25.9330  -19.8230   34.7680 O.2     9  GLU9       -0.2867
      5  CB        25.2630  -23.0670   34.4070 C.3     9  GLU9        0.0388
      6  CG        26.3000  -22.9010   33.3060 C.3     9  GLU9        0.1160
      7  CD        26.7640  -24.2270   32.7310 C.2     9  GLU9        0.3649
      8  OE1       26.1770  -25.2710   33.0880 O.co2   9  GLU9       -0.2457
      9  OE2       27.7140  -24.2230   31.9190 O.co2   9  GLU9       -0.2457
     10  N         29.1150  -19.6990   36.9280 N.3    11  ILE11      -0.1245
     11  CA        30.5050  -20.0410   36.6470 C.3    11  ILE11       0.1561
     12  C         31.4150  -19.9460   37.8750 C.2    11  ILE11       0.2260
     13  O         32.1940  -20.8600   38.1430 O.2    11  ILE11      -0.2867
     14  CB        31.0730  -19.1920   35.4870 C.3    11  ILE11       0.0252
     15  CG1       30.3500  -19.5380   34.1850 C.3    11  ILE11       0.0019
     16  CG2       32.5690  -19.4210   35.3360 C.3    11  ILE11       0.0019
     17  CD1       30.9250  -18.8570   32.9590 C.3    11  ILE11       0.0001
     18  N         33.0430  -17.0790   41.3610 N.3    13  GLU13      -0.1245
     19  CA        33.1120  -15.8370   42.1240 C.3    13  GLU13       0.1567
     20  C         34.5540  -15.3540   42.2510 C.2    13  GLU13       0.2260
     21  O         35.0320  -14.5640   41.4370 O.2    13  GLU13      -0.2867
     22  CB        32.5170  -16.0380   43.5190 C.3    13  GLU13       0.0388
     23  CG        31.0130  -16.2570   43.5400 C.3    13  GLU13       0.1160
     24  CD        30.5510  -16.9680   44.7970 C.2    13  GLU13       0.3649
     25  OE1       31.1380  -18.0190   45.1350 O.co2  13  GLU13      -0.2457
     26  OE2       29.6050  -16.4770   45.4500 O.co2  13  GLU13      -0.2457
     27  N         35.5750   -9.6270   43.8550 N.3    14  TYR14      -0.1241
     28  CA        34.8860   -9.0530   42.7050 C.3    14  TYR14       0.1605
     29  C         33.3760   -9.1970   42.8600 C.2    14  TYR14       0.2264
     30  O         32.7780   -8.6290   43.7750 O.2    14  TYR14      -0.2867
     31  CB        35.3400   -9.7350   41.4110 C.3    14  TYR14       0.0534
     32  CG        36.8390   -9.8890   41.2800 C.ar   14  TYR14      -0.0201
     33  CD1       37.6180   -8.8740   40.7380 C.ar   14  TYR14      -0.0009
     34  CD2       37.4740  -11.0550   41.6910 C.ar   14  TYR14      -0.0009
     35  CE1       38.9890   -9.0150   40.6140 C.ar   14  TYR14       0.0417
     36  CE2       38.8430  -11.2040   41.5710 C.ar   14  TYR14       0.0417
     37  CZ        39.5950  -10.1820   41.0320 C.ar   14  TYR14       0.1957
     38  OH        40.9570  -10.3290   40.9110 O.3    14  TYR14      -0.2866
     39  N         29.7090  -14.4690   38.6140 N.3    17  VAL17      -0.1245
     40  CA        29.8130  -14.6760   37.1690 C.3    17  VAL17       0.1561
     41  C         28.8470  -15.7450   36.6480 C.2    17  VAL17       0.2260
     42  O         28.7270  -16.8220   37.2320 O.2    17  VAL17      -0.2867
     43  CB        31.2550  -15.0530   36.7580 C.3    17  VAL17       0.0252
     44  CG1       31.3740  -15.1510   35.2430 C.3    17  VAL17       0.0019
     45  CG2       32.2460  -14.0380   37.3050 C.3    17  VAL17       0.0019
     46  N         26.9420  -17.6760   32.9220 N.3    19  LYS19      -0.1245
     47  CA        26.9430  -17.9410   31.4890 C.3    19  LYS19       0.1561
     48  C         25.5240  -17.7140   30.9730 C.2    19  LYS19       0.2260
     49  O         24.5690  -18.2580   31.5260 O.2    19  LYS19      -0.2867
     50  CB        27.3890  -19.3810   31.2220 C.3    19  LYS19       0.0271
     51  CG        27.4180  -19.7860   29.7570 C.3    19  LYS19       0.0035
     52  CD        27.7050  -21.2770   29.6150 C.3    19  LYS19       0.0206
     53  CE        27.5410  -21.7470   28.1770 C.3    19  LYS19       0.1093
     54  NZ        27.5700  -23.2340   28.0680 N.3    19  LYS19      -0.1314
     55  N         29.3450  -13.8500   28.8990 N.3    30  ALA30      -0.1245
     56  CA        29.6350  -14.0080   30.3240 C.3    30  ALA30       0.1562
     57  C         29.2840  -12.7310   31.0950 C.2    30  ALA30       0.2260
     58  O         29.7780  -11.6500   30.7730 O.2    30  ALA30      -0.2867
     59  CB        31.0970  -14.3810   30.5340 C.3    30  ALA30       0.0290
     60  N         29.1380  -10.4340   34.5960 N.3    32  LYS32      -0.1245
     61  CA        29.7770  -10.1930   35.8900 C.3    32  LYS32       0.1561
     62  C         29.0210   -9.1220   36.6760 C.2    32  LYS32       0.2260
     63  O         29.0260   -7.9500   36.3040 O.2    32  LYS32      -0.2867
     64  CB        31.2350   -9.7760   35.6810 C.3    32  LYS32       0.0271
     65  CG        32.0040   -9.4380   36.9500 C.3    32  LYS32       0.0035
     66  CD        33.4750   -9.2060   36.6270 C.3    32  LYS32       0.0206
     67  CE        34.2460   -8.6700   37.8180 C.3    32  LYS32       0.1093
     68  NZ        35.6800   -8.4470   37.4820 N.3    32  LYS32      -0.1314
     69  N         41.0930  -10.1240   26.2660 N.3    63  VAL63      -0.1245
     70  CA        39.6490  -10.3560   26.3260 C.3    63  VAL63       0.1561
     71  C         38.8560   -9.0800   25.9960 C.2    63  VAL63       0.2260
     72  O         39.2820   -7.9670   26.3170 O.2    63  VAL63      -0.2867
     73  CB        39.2210  -10.9490   27.6990 C.3    63  VAL63       0.0252
     74  CG1       39.3120   -9.8970   28.8040 C.3    63  VAL63       0.0019
     75  CG2       37.8170  -11.5380   27.6240 C.3    63  VAL63       0.0019
     76  N         30.9550   -9.6610   28.8040 N.3    79  PHE79      -0.1227
     77  CA        32.1780  -10.1270   28.1440 C.3    79  PHE79       0.1736
     78  C         31.8950  -11.1790   27.0600 C.2    79  PHE79       0.2595
     79  O         30.8310  -11.7990   27.0450 O.2    79  PHE79      -0.2718
     80  CB        33.1400  -10.7490   29.1700 C.3    79  PHE79       0.0547
     81  CG        33.7140   -9.7720   30.1630 C.ar   79  PHE79      -0.0202
     82  CD1       34.8850   -9.0840   29.8840 C.ar   79  PHE79      -0.0042
     83  CD2       33.1030   -9.5680   31.3910 C.ar   79  PHE79      -0.0042
     84  CE1       35.4240   -8.1920   30.8020 C.ar   79  PHE79      -0.0003
     85  CE2       33.6370   -8.6800   32.3130 C.ar   79  PHE79      -0.0003
     86  CZ        34.7980   -7.9900   32.0160 C.ar   79  PHE79      -0.0000
     87  N         32.8600  -11.3850   26.1650 N.am   80  GLU80      -0.1965
     88  CA        32.8350  -12.5330   25.2600 C.3    80  GLU80       0.1733
     89  C         33.0590  -13.8200   26.0610 C.2    80  GLU80       0.2616
     90  O         33.7450  -13.8040   27.0850 O.2    80  GLU80      -0.2715
     91  CB        33.9080  -12.3960   24.1710 C.3    80  GLU80       0.0429
     92  CG        35.3360  -12.2890   24.7030 C.3    80  GLU80       0.1163
     93  CD        36.3950  -12.4430   23.6200 C.2    80  GLU80       0.3649
     94  OE1       36.1840  -13.2360   22.6780 O.co2  80  GLU80      -0.2457
     95  OE2       37.4420  -11.7690   23.7120 O.co2  80  GLU80      -0.2457
     96  N         32.4820  -14.9290   25.6020 N.am   81  PHE81      -0.1960
     97  CA        32.5990  -16.2040   26.3150 C.3    81  PHE81       0.1771
     98  C         33.7310  -17.0760   25.7790 C.2    81  PHE81       0.2619
     99  O         33.8520  -17.2770   24.5710 O.2    81  PHE81      -0.2715
    100  CB        31.2780  -16.9820   26.2700 C.3    81  PHE81       0.0574
    101  CG        31.3300  -18.3210   26.9710 C.ar   81  PHE81      -0.0200
    102  CD1       31.1800  -18.4060   28.3470 C.ar   81  PHE81      -0.0042
    103  CD2       31.5150  -19.4930   26.2510 C.ar   81  PHE81      -0.0042
    104  CE1       31.2220  -19.6340   28.9960 C.ar   81  PHE81      -0.0003
    105  CE2       31.5580  -20.7240   26.8920 C.ar   81  PHE81      -0.0003
    106  CZ        31.4110  -20.7950   28.2680 C.ar   81  PHE81      -0.0000
    107  N         34.5550  -17.5900   26.6880 N.am   82  LEU82      -0.1963
    108  CA        35.6290  -18.5110   26.3270 C.3    82  LEU82       0.1728
    109  C         35.4500  -19.8820   26.9910 C.2    82  LEU82       0.2616
    110  O         34.7400  -20.0190   27.9900 O.2    82  LEU82      -0.2715
    111  CB        37.0010  -17.9010   26.6300 C.3    82  LEU82       0.0311
    112  CG        37.4210  -16.8190   25.6300 C.3    82  LEU82       0.0022
    113  CD1       38.5530  -15.9620   26.1690 C.3    82  LEU82       0.0001
    114  CD2       37.8170  -17.4470   24.2980 C.3    82  LEU82       0.0001
    115  N         36.1230  -20.8840   26.4380 N.am   83  HIS83      -0.1959
    116  CA        35.8520  -22.2700   26.8020 C.3    83  HIS83       0.1787
    117  C         36.4550  -22.7350   28.1350 C.2    83  HIS83       0.2620
    118  O         35.7890  -23.4380   28.8950 O.2    83  HIS83      -0.2715
    119  CB        36.2450  -23.2020   25.6530 C.3    83  HIS83       0.0785
    120  CG        35.6290  -22.8230   24.3400 C.ar   83  HIS83       0.0821
    121  ND1       36.1210  -21.8040   23.5530 N.ar   83  HIS83      -0.2267
    122  CD2       34.5490  -23.3150   23.6860 C.ar   83  HIS83       0.1154
    123  CE1       35.3780  -21.6910   22.4660 C.ar   83  HIS83       0.1986
    124  NE2       34.4180  -22.5940   22.5230 N.ar   83  HIS83      -0.2212
    125  N         37.6920  -22.3390   28.4340 N.am   84  GLN84      -0.1963
    126  CA        38.3490  -22.8240   29.6520 C.3    84  GLN84       0.1733
    127  C         39.5230  -21.9490   30.1070 C.2    84  GLN84       0.2616
    128  O         40.0890  -21.2020   29.3120 O.2    84  GLN84      -0.2715
    129  CB        38.8340  -24.2610   29.4230 C.3    84  GLN84       0.0408
    130  CG        39.1400  -25.0540   30.6840 C.3    84  GLN84       0.0908
    131  CD        39.6360  -26.4550   30.3790 C.2    84  GLN84       0.2608
    132  OE1       40.0840  -26.7390   29.2680 O.2    84  GLN84      -0.2717
    133  NE2       39.5550  -27.3400   31.3670 N.am   84  GLN84      -0.0878
    134  N         39.8870  -22.0450   31.3860 N.am   85  ASP85      -0.1971
    135  CA        41.0860  -21.3680   31.8890 C.3    85  ASP85       0.1709
    136  C         42.2930  -22.3140   31.9400 C.2    85  ASP85       0.2293
    137  O         42.1340  -23.5340   31.9900 O.2    85  ASP85      -0.2864
    138  CB        40.8360  -20.7070   33.2540 C.3    85  ASP85       0.1436
    139  CG        40.6420  -21.7140   34.3750 C.2    85  ASP85       0.3671
    140  OD1       41.6510  -22.1390   34.9770 O.co2  85  ASP85      -0.2456
    141  OD2       39.4790  -22.0650   34.6680 O.co2  85  ASP85      -0.2456
    142  N         42.8410  -25.2570   34.7320 N.3    88  LYS88      -0.1245
    143  CA        42.0640  -26.4770   34.5510 C.3    88  LYS88       0.1561
    144  C         42.6310  -27.3440   33.4330 C.2    88  LYS88       0.2260
    145  O         42.5340  -28.5700   33.4800 O.2    88  LYS88      -0.2867
    146  CB        40.5950  -26.1470   34.2800 C.3    88  LYS88       0.0271
    147  CG        39.8870  -25.5050   35.4590 C.3    88  LYS88       0.0035
    148  CD        38.4490  -25.1520   35.1250 C.3    88  LYS88       0.0206
    149  CE        37.7510  -24.5250   36.3220 C.3    88  LYS88       0.1093
    150  NZ        36.3480  -24.1390   36.0150 N.3    88  LYS88      -0.1314
    151  N         45.0650  -18.9730   36.5430 N.3   130  GLN130     -0.1231
    152  CA        43.6170  -18.8970   36.7190 C.3   130  GLN130      0.1698
    153  C         43.0020  -17.7020   35.9920 C.2   130  GLN130      0.2592
    154  O         41.7970  -17.6740   35.7340 O.2   130  GLN130     -0.2718
    155  CB        43.2530  -18.8500   38.2060 C.3   130  GLN130      0.0381
    156  CG        43.7170  -20.0600   39.0140 C.3   130  GLN130      0.0905
    157  CD        45.1300  -19.9090   39.5600 C.2   130  GLN130      0.2608
    158  OE1       45.9910  -19.2880   38.9370 O.2   130  GLN130     -0.2717
    159  NE2       45.3680  -20.4750   40.7380 N.am  130  GLN130     -0.0878
    160  N         43.8310  -16.7170   35.6660 N.am  131  ASN131     -0.1974
    161  CA        43.3570  -15.5230   34.9760 C.3   131  ASN131      0.1688
    162  C         43.6810  -15.5190   33.4750 C.2   131  ASN131      0.2292
    163  O         43.6810  -14.4640   32.8380 O.2   131  ASN131     -0.2864
    164  CB        43.9010  -14.2540   35.6500 C.3   131  ASN131      0.1181
    165  CG        43.3820  -14.0720   37.0740 C.2   131  ASN131      0.2629
    166  OD1       42.3380  -14.6090   37.4430 O.2   131  ASN131     -0.2716
    167  ND2       44.1080  -13.2960   37.8750 N.am  131  ASN131     -0.0877
    168  N         42.7280  -17.3940   29.6960 N.3   133  LEU133     -0.1245
    169  CA        41.6710  -18.1700   29.0400 C.3   133  LEU133      0.1561
    170  C         42.0460  -18.6810   27.6440 C.2   133  LEU133      0.2260
    171  O         42.7880  -18.0230   26.9120 O.2   133  LEU133     -0.2867
    172  CB        40.3990  -17.3240   28.9410 C.3   133  LEU133      0.0270
    173  CG        39.8980  -16.6870   30.2380 C.3   133  LEU133      0.0019
    174  CD1       38.8030  -15.6740   29.9520 C.3   133  LEU133      0.0001
    175  CD2       39.4040  -17.7580   31.1980 C.3   133  LEU133      0.0001
    176  N         43.1450  -11.7860   31.0670 N.3   143  ALA143     -0.1231
    177  CA        41.8560  -11.4580   31.6780 C.3   143  ALA143      0.1694
    178  C         41.9680  -10.9300   33.1110 C.2   143  ALA143      0.2592
    179  O         43.0370  -10.9740   33.7200 O.2   143  ALA143     -0.2718
    180  CB        40.9250  -12.6660   31.6290 C.3   143  ALA143      0.0304
    181  N         40.8430  -10.4320   33.6250 N.am  144  ASP144     -0.1974
    182  CA        40.7240   -9.9030   34.9890 C.3   144  ASP144      0.1709
    183  C         41.6690   -8.7360   35.2770 C.2   144  ASP144      0.2293
    184  O         42.7650   -8.9280   35.8060 O.2   144  ASP144     -0.2864
    185  CB        40.9080  -11.0120   36.0320 C.3   144  ASP144      0.1436
    186  CG        40.2100  -10.7000   37.3460 C.2   144  ASP144      0.3671
    187  OD1       39.9370   -9.5100   37.6160 O.co2 144  ASP144     -0.2456
    188  OD2       39.9300  -11.6460   38.1090 O.co2 144  ASP144     -0.2456
@<TRIPOS>BOND
     1   123   124   ar
     2   123   121   ar
     3   124   122   ar
     4    94    93   ar
     5   121   120   ar
     6    93    95   ar
     7    93    92    1
     8   122   120   ar
     9    91    92    1
    10    91    88    1
    11   114   112    1
    12   120   119    1
    13    99    98    2
    14    88    89    1
    15    88    87    1
    16    96    89   am
    17    96    97    1
    18   112   113    1
    19   112   111    1
    20   119   116    1
    21    98    97    1
    22    98   107   am
    23    71    72    2
    24    71    70    1
    25    89    90    2
    26    87    78   am
    27   103   105   ar
    28   103   101   ar
    29    69    70    1
    30   100    97    1
    31   100   101    1
    32    70    73    1
    33   108   111    1
    34   108   107    1
    35   108   109    1
    36   115   116    1
    37   115   109   am
    38   116   117    1
    39   105   106   ar
    40   171   170    2
    41   101   102   ar
    42   109   110    2
    43    79    78    2
    44    78    77    1
    45    75    73    1
    46   170   169    1
    47    73    74    1
    48    54    53    1
    49   117   125   am
    50   117   118    2
    51    77    76    1
    52    77    80    1
    53    53    52    1
    54   106   104   ar
    55   102   104   ar
    56   125   126    1
    57    55    56    1
    58   172   169    1
    59   172   173    1
    60   169   168    1
    61    80    81    1
    62   132   131    2
    63   128   127    2
    64   129   126    1
    65   129   130    1
    66    52    51    1
    67   126   127    1
    68    51    50    1
    69    82    81   ar
    70    82    84   ar
    71   174   173    1
    72   127   134   am
    73    81    83   ar
    74   173   175    1
    75    56    59    1
    76    56    57    1
    77   131   130    1
    78   131   133   am
    79    58    57    2
    80    84    86   ar
    81    48    47    1
    82    48    49    2
    83   176   177    1
    84    50    47    1
    85   134   135    1
    86    83    85   ar
    87    47    46    1
    88   180   177    1
    89   177   178    1
    90   135   136    1
    91   135   138    1
    92     9     7   ar
    93   136   137    2
    94    86    85   ar
    95     7     8   ar
    96     7     6    1
    97   163   162    2
    98    17    15    1
    99   178   181   am
   100   178   179    2
   101   138   139    1
   102     6     5    1
   103   144   145    2
   104   144   143    1
   105   162   161    1
   106     1     2    1
   107   181   182    1
   108    15    14    1
   109   146   143    1
   110   146   147    1
   111   139   141   ar
   112   139   140   ar
   113     5     2    1
   114   143   142    1
   115    60    61    1
   116     4     3    2
   117     2     3    1
   118   161   164    1
   119   161   160    1
   120   182   183    1
   121   182   185    1
   122   148   147    1
   123   148   149    1
   124    44    43    1
   125   183   184    2
   126    16    14    1
   127    14    11    1
   128   164   165    1
   129   160   153   am
   130    64    61    1
   131    64    65    1
   132   154   153    2
   133    61    62    1
   134   153   152    1
   135   150   149    1
   136   185   186    1
   137    63    62    2
   138   151   152    1
   139    66    65    1
   140    66    67    1
   141    11    10    1
   142    11    12    1
   143    41    40    1
   144    41    42    2
   145   152   155    1
   146    43    40    1
   147    43    45    1
   148   165   166    2
   149   165   167   am
   150    40    39    1
   151   186   187   ar
   152   186   188   ar
   153    68    67    1
   154    12    13    2
   155   155   156    1
   156   158   157    2
   157   156   157    1
   158   157   159   am
   159    35    33   ar
   160    35    37   ar
   161    33    32   ar
   162    38    37    1
   163    37    36   ar
   164    32    31    1
   165    32    34   ar
   166    18    19    1
   167    31    28    1
   168    21    20    2
   169    36    34   ar
   170    19    20    1
   171    19    22    1
   172    28    29    1
   173    28    27    1
   174    29    30    2
   175    22    23    1
   176    23    24    1
   177    24    25   ar
   178    24    26   ar
