@<TRIPOS>MOLECULE
tmp/4bcrB01.pdb
 139 127 0 0 0
SMALL
GASTEIGER

@<TRIPOS>ATOM
      1  N        -19.9680   -9.6120   61.6050 N.3    39  ILE39      -0.1245
      2  CA       -18.5710   -9.2150   61.5480 C.3    39  ILE39       0.1561
      3  C        -18.4610   -7.7770   61.9620 C.2    39  ILE39       0.2260
      4  O        -18.7170   -6.8870   61.1720 O.2    39  ILE39      -0.2867
      5  CB       -18.0180   -9.3420   60.1500 C.3    39  ILE39       0.0252
      6  CG1      -18.1090  -10.7880   59.7030 C.3    39  ILE39       0.0019
      7  CG2      -16.5880   -8.8760   60.0960 C.3    39  ILE39       0.0019
      8  CD1      -17.8530  -10.9550   58.2530 C.3    39  ILE39       0.0001
      9  N        -14.2560  -11.1070   62.3310 N.3    45  LEU45      -0.1245
     10  CA       -13.7770  -11.1560   60.9640 C.3    45  LEU45       0.1561
     11  C        -12.9930  -12.4380   60.7340 C.2    45  LEU45       0.2260
     12  O        -13.2790  -13.1600   59.7980 O.2    45  LEU45      -0.2867
     13  CB       -12.8670   -9.9740   60.6650 C.3    45  LEU45       0.0270
     14  CG       -12.3120  -10.0590   59.2450 C.3    45  LEU45       0.0019
     15  CD1      -13.4600   -9.9370   58.2800 C.3    45  LEU45       0.0001
     16  CD2      -11.2540   -9.0150   58.9460 C.3    45  LEU45       0.0001
     17  N        -15.1000  -15.7430   60.8520 N.3    48  ALA48      -0.1231
     18  CA       -15.9090  -15.8870   59.6560 C.3    48  ALA48       0.1694
     19  C        -15.0930  -16.4050   58.4760 C.2    48  ALA48       0.2591
     20  O        -15.5860  -17.1630   57.6620 O.2    48  ALA48      -0.2718
     21  CB       -16.5500  -14.5670   59.3250 C.3    48  ALA48       0.0304
     22  N        -13.8510  -15.9660   58.3620 N.am   49  GLU49      -0.1979
     23  CA       -12.9830  -16.5250   57.3500 C.3    49  GLU49       0.1602
     24  C        -12.6470  -17.9850   57.6460 C.2    49  GLU49       0.2287
     25  O        -12.5390  -18.7950   56.7320 O.2    49  GLU49      -0.2864
     26  CB       -11.6830  -15.7420   57.2760 C.3    49  GLU49       0.0415
     27  CG       -11.8090  -14.2840   56.9440 C.3    49  GLU49       0.1163
     28  CD       -10.5020  -13.5630   57.1780 C.2    49  GLU49       0.3649
     29  OE1       -9.7240  -14.0380   58.0270 O.co2  49  GLU49      -0.2457
     30  OE2      -10.2320  -12.5490   56.5070 O.co2  49  GLU49      -0.2457
     31  N        -16.2890  -19.7810   56.8830 N.3    52  LEU52      -0.1231
     32  CA       -16.8360  -19.7110   55.5400 C.3    52  LEU52       0.1693
     33  C        -15.7660  -20.1100   54.5170 C.2    52  LEU52       0.2591
     34  O        -15.9540  -21.0680   53.7630 O.2    52  LEU52      -0.2718
     35  CB       -17.4780  -18.3450   55.2730 C.3    52  LEU52       0.0284
     36  CG       -18.4530  -17.8930   56.3770 C.3    52  LEU52       0.0019
     37  CD1      -19.0090  -16.4880   56.1650 C.3    52  LEU52       0.0001
     38  CD2      -19.5940  -18.8810   56.5570 C.3    52  LEU52       0.0001
     39  N        -14.6230  -19.4340   54.5270 N.am   53  VAL53      -0.1980
     40  CA       -13.5860  -19.7220   53.5390 C.3    53  VAL53       0.1595
     41  C        -12.4250  -20.5010   54.1340 C.2    53  VAL53       0.2287
     42  O        -11.2850  -20.0350   54.1370 O.2    53  VAL53      -0.2864
     43  CB       -13.0310  -18.4520   52.9130 C.3    53  VAL53       0.0276
     44  CG1      -13.9840  -17.9490   51.8780 C.3    53  VAL53       0.0022
     45  CG2      -12.7920  -17.3950   53.9790 C.3    53  VAL53       0.0022
     46  N         -8.9880  -20.6590   52.6550 N.3    56  LEU56      -0.1245
     47  CA        -8.1650  -19.4590   52.5770 C.3    56  LEU56       0.1561
     48  C         -7.2660  -19.1630   53.7690 C.2    56  LEU56       0.2260
     49  O         -6.1020  -18.8060   53.5980 O.2    56  LEU56      -0.2867
     50  CB        -9.0670  -18.2610   52.3380 C.3    56  LEU56       0.0270
     51  CG        -9.8360  -18.2880   51.0190 C.3    56  LEU56       0.0019
     52  CD1      -10.3730  -16.9100   50.6990 C.3    56  LEU56       0.0001
     53  CD2       -8.9760  -18.8260   49.8890 C.3    56  LEU56       0.0001
     54  N         -3.8390  -15.4180   54.9740 N.3    61  ILE61      -0.1245
     55  CA        -4.3690  -14.0810   54.6750 C.3    61  ILE61       0.1561
     56  C         -4.5880  -13.1990   55.8900 C.2    61  ILE61       0.2260
     57  O         -4.5910  -11.9770   55.7820 O.2    61  ILE61      -0.2867
     58  CB        -5.6930  -14.1280   53.8960 C.3    61  ILE61       0.0252
     59  CG1       -6.7230  -14.9610   54.6550 C.3    61  ILE61       0.0019
     60  CG2       -5.4770  -14.6890   52.5220 C.3    61  ILE61       0.0019
     61  CD1       -8.1100  -14.8700   54.0900 C.3    61  ILE61       0.0001
     62  N         -2.4190  -10.2420   56.5980 N.3    64  LYS64      -0.1245
     63  CA        -2.6680   -9.0200   55.8220 C.3    64  LYS64       0.1561
     64  C         -3.5900   -8.0680   56.5510 C.2    64  LYS64       0.2260
     65  O         -4.3350   -8.4920   57.4340 O.2    64  LYS64      -0.2867
     66  CB        -3.2680   -9.3510   54.4580 C.3    64  LYS64       0.0271
     67  CG        -2.4000  -10.2510   53.6100 C.3    64  LYS64       0.0035
     68  CD        -3.1010  -10.6630   52.3210 C.3    64  LYS64       0.0206
     69  CE        -2.2750  -11.6760   51.5170 C.3    64  LYS64       0.1093
     70  NZ        -1.1390  -11.0830   50.7420 N.3    64  LYS64      -0.1314
     71  N         -8.3110   -7.4840   53.1530 N.3    69  ARG69      -0.1231
     72  CA        -9.1280   -8.6660   52.9990 C.3    69  ARG69       0.1694
     73  C        -10.5740   -8.2880   52.7560 C.2    69  ARG69       0.2591
     74  O        -11.2800   -8.9610   52.0040 O.2    69  ARG69      -0.2718
     75  CB        -8.9980   -9.5760   54.2160 C.3    69  ARG69       0.0321
     76  CG        -7.6060   -9.5820   54.8030 C.3    69  ARG69       0.0489
     77  CD        -7.3300  -10.8130   55.6380 C.3    69  ARG69       0.2205
     78  NE        -8.0830  -10.9300   56.8870 N.pl3  69  ARG69      -0.0865
     79  CZ        -7.6780  -10.4540   58.0620 C.cat  69  ARG69       0.5346
     80  NH1       -6.5340   -9.7880   58.1580 N.pl3  69  ARG69       0.1354
     81  NH2       -8.4200  -10.6460   59.1440 N.pl3  69  ARG69       0.1354
     82  N        -11.0220   -7.2030   53.3810 N.am   70  ILE70      -0.1980
     83  CA       -12.3670   -6.6990   53.1110 C.3    70  ILE70       0.1595
     84  C        -12.5000   -6.1560   51.6780 C.2    70  ILE70       0.2287
     85  O        -13.5310   -6.3260   51.0470 O.2    70  ILE70      -0.2864
     86  CB       -12.7890   -5.6300   54.1310 C.3    70  ILE70       0.0276
     87  CG1      -12.8060   -6.2180   55.5310 C.3    70  ILE70       0.0022
     88  CG2      -14.1620   -5.0900   53.8130 C.3    70  ILE70       0.0022
     89  CD1      -13.3690   -5.2850   56.5460 C.3    70  ILE70       0.0001
     90  N        -10.7550   -7.2260   49.0070 N.3    72  HIS72      -0.1226
     91  CA       -10.8050   -8.3570   48.1050 C.3    72  HIS72       0.1752
     92  C        -12.1470   -9.1170   48.1200 C.2    72  HIS72       0.2596
     93  O        -12.5210   -9.6960   47.1140 O.2    72  HIS72      -0.2718
     94  CB        -9.5940   -9.2710   48.3290 C.3    72  HIS72       0.0759
     95  CG        -8.3440   -8.7750   47.6590 C.ar   72  HIS72       0.0818
     96  ND1       -8.3590   -8.1180   46.4460 N.ar   72  HIS72      -0.2268
     97  CD2       -7.0460   -8.8340   48.0340 C.ar   72  HIS72       0.1154
     98  CE1       -7.1260   -7.7970   46.1010 C.ar   72  HIS72       0.1986
     99  NE2       -6.3090   -8.2170   47.0500 N.ar   72  HIS72      -0.2212
    100  N        -12.8920   -9.0930   49.2180 N.am   73  CYS73      -0.1970
    101  CA       -14.2230   -9.7030   49.2190 C.3    73  CYS73       0.1712
    102  C        -15.2050   -9.0000   48.2760 C.2    73  CYS73       0.2296
    103  O        -16.0750   -9.6360   47.6870 O.2    73  CYS73      -0.2864
    104  CB       -14.8050   -9.7110   50.6460 C.3    73  CYS73       0.0983
    105  SG       -16.6230   -9.9900   50.7830 S.3    73  CYS73      -0.0798
    106  N        -14.7810   -9.7300   44.3930 N.3    76  CYS76      -0.1235
    107  CA       -15.2840  -11.0590   44.0930 C.3    76  CYS76       0.1677
    108  C        -16.7940  -11.0990   44.0420 C.2    76  CYS76       0.2270
    109  O        -17.3700  -11.9380   43.3660 O.2    76  CYS76      -0.2867
    110  CB       -14.7990  -12.0560   45.1420 C.3    76  CYS76       0.0956
    111  SG       -13.0220  -12.2720   45.1340 S.3    76  CYS76      -0.0801
    112  N        -23.4190  -10.3690   53.1980 N.3   130  VAL130     -0.1231
    113  CA       -22.3610  -10.8270   52.3100 C.3   130  VAL130      0.1692
    114  C        -22.3300  -12.3380   52.3530 C.2   130  VAL130      0.2591
    115  O        -23.0280  -12.9540   53.1480 O.2   130  VAL130     -0.2718
    116  CB       -20.9670  -10.3160   52.7290 C.3   130  VAL130      0.0266
    117  CG1      -20.7730   -8.8370   52.4010 C.3   130  VAL130      0.0020
    118  CG2      -20.7230  -10.5990   54.1900 C.3   130  VAL130      0.0020
    119  N        -21.5230  -12.9390   51.4940 N.am  131  ALA131     -0.1980
    120  CA       -21.3690  -14.3880   51.4910 C.3   131  ALA131      0.1597
    121  C        -22.6810  -15.1320   51.2860 C.2   131  ALA131      0.2287
    122  O        -22.9800  -16.0780   52.0050 O.2   131  ALA131     -0.2864
    123  CB       -20.6830  -14.8620   52.7770 C.3   131  ALA131      0.0319
    124  N        -21.7680   -7.8330   57.8270 N.3   137  ILE137     -0.1245
    125  CA       -20.6270   -7.0000   58.1580 C.3   137  ILE137      0.1561
    126  C        -21.0900   -5.5780   58.5040 C.2   137  ILE137      0.2260
    127  O        -21.7510   -4.9350   57.7050 O.2   137  ILE137     -0.2867
    128  CB       -19.5960   -7.0830   57.0060 C.3   137  ILE137      0.0252
    129  CG1      -18.3360   -6.2800   57.2760 C.3   137  ILE137      0.0019
    130  CG2      -20.2250   -6.7480   55.6560 C.3   137  ILE137      0.0019
    131  CD1      -17.1800   -6.7900   56.4520 C.3   137  ILE137      0.0001
    132  N         -1.0120   -3.4060   47.7980 N.3   251  ASP251     -0.1239
    133  CA        -1.6530   -4.6580   47.4160 C.3   251  ASP251      0.1674
    134  C         -3.1300   -4.4570   47.0840 C.2   251  ASP251      0.2266
    135  O         -4.0180   -5.0260   47.7160 O.2   251  ASP251     -0.2867
    136  CB        -1.4980   -5.7060   48.5080 C.3   251  ASP251      0.1410
    137  CG        -1.9340   -7.0860   48.0560 C.2   251  ASP251      0.3668
    138  OD1       -2.4700   -7.2310   46.9300 O.co2 251  ASP251     -0.2456
    139  OD2       -1.7410   -8.0360   48.8380 O.co2 251  ASP251     -0.2456
@<TRIPOS>BOND
     1   109   108    2
     2   108   107    1
     3   107   106    1
     4   107   110    1
     5   111   110    1
     6    98    96   ar
     7    98    99   ar
     8    96    95   ar
     9   138   137   ar
    10    99    97   ar
    11   134   133    1
    12   134   135    2
    13    93    92    2
    14   133   132    1
    15   133   136    1
    16    95    97   ar
    17    95    94    1
    18   103   102    2
    19   137   136    1
    20   137   139   ar
    21    91    92    1
    22    91    94    1
    23    91    90    1
    24    92   100   am
    25   102   101    1
    26   100   101    1
    27   101   104    1
    28    53    51    1
    29   104   105    1
    30    52    51    1
    31    70    69    1
    32    51    50    1
    33    85    84    2
    34   121   120    1
    35   121   122    2
    36   120   119    1
    37   120   123    1
    38   119   114   am
    39    69    68    1
    40    84    83    1
    41    44    43    1
    42    74    73    2
    43   113   114    1
    44   113   116    1
    45   113   112    1
    46    68    67    1
    47    50    47    1
    48   114   115    2
    49   117   116    1
    50    60    58    1
    51    47    46    1
    52    47    48    1
    53   116   118    1
    54    73    72    1
    55    73    82   am
    56    43    40    1
    57    43    45    1
    58    72    71    1
    59    72    75    1
    60    83    82    1
    61    83    86    1
    62    40    41    1
    63    40    39    1
    64    49    48    2
    65    67    66    1
    66    34    33    2
    67    88    86    1
    68    58    59    1
    69    58    55    1
    70    61    59    1
    71    86    87    1
    72    41    42    2
    73    75    76    1
    74    66    63    1
    75    33    39   am
    76    33    32    1
    77    55    54    1
    78    55    56    1
    79    76    77    1
    80    35    32    1
    81    35    36    1
    82    87    89    1
    83    32    31    1
    84    77    78    1
    85   130   128    1
    86    57    56    2
    87    63    64    1
    88    63    62    1
    89    37    36    1
    90    36    38    1
    91   131   129    1
    92    30    28   ar
    93    64    65    2
    94    25    24    2
    95    78    79    2
    96    27    28    1
    97    27    26    1
    98   128   129    1
    99   128   125    1
   100    28    29   ar
   101    26    23    1
   102    23    24    1
   103    23    22    1
   104    20    19    2
   105   127   126    2
   106   124   125    1
   107    79    80    1
   108    79    81    1
   109   125   126    1
   110     8     6    1
   111    15    14    1
   112    22    19   am
   113    19    18    1
   114    16    14    1
   115    14    13    1
   116    21    18    1
   117    18    17    1
   118     6     5    1
   119    12    11    2
   120     7     5    1
   121     5     2    1
   122    13    10    1
   123    11    10    1
   124    10     9    1
   125     4     3    2
   126     2     1    1
   127     2     3    1
