@<TRIPOS>MOLECULE
tmp/4bcrB00.pdb
 183 173 0 0 0
SMALL
GASTEIGER

@<TRIPOS>ATOM
      1  N        -11.4380   -5.5490   51.1510 N.3    71  PHE71      -0.1241
      2  CA       -11.4430   -5.0460   49.7760 C.3    71  PHE71       0.1605
      3  C        -11.5170   -6.1750   48.7730 C.2    71  PHE71       0.2264
      4  O        -12.2550   -6.1080   47.8030 O.2    71  PHE71      -0.2867
      5  CB       -10.1910   -4.2050   49.4990 C.3    71  PHE71       0.0534
      6  CG       -10.0080   -3.7990   48.0340 C.ar   71  PHE71      -0.0203
      7  CD1      -10.8180   -2.8370   47.4390 C.ar   71  PHE71      -0.0042
      8  CD2       -8.9870   -4.3610   47.2660 C.ar   71  PHE71      -0.0042
      9  CE1      -10.6210   -2.4610   46.1010 C.ar   71  PHE71      -0.0003
     10  CE2       -8.7880   -3.9900   45.9400 C.ar   71  PHE71      -0.0003
     11  CZ        -9.6050   -3.0410   45.3570 C.ar   71  PHE71      -0.0000
     12  N        -12.8920   -9.0930   49.2180 N.3    73  CYS73      -0.1221
     13  CA       -14.2230   -9.7030   49.2190 C.3    73  CYS73       0.1808
     14  C        -15.2050   -9.0000   48.2760 C.2    73  CYS73       0.2601
     15  O        -16.0750   -9.6360   47.6870 O.2    73  CYS73      -0.2717
     16  CB       -14.8050   -9.7110   50.6460 C.3    73  CYS73       0.0970
     17  SG       -16.6230   -9.9900   50.7830 S.3    73  CYS73      -0.0800
     18  N        -15.0680   -7.6870   48.1370 N.am   74  CYS74      -0.1956
     19  CA       -16.0070   -6.8950   47.3570 C.3    74  CYS74       0.1843
     20  C        -15.8390   -7.1280   45.8580 C.2    74  CYS74       0.2625
     21  O        -16.8170   -7.1990   45.1130 O.2    74  CYS74      -0.2714
     22  CB       -15.8440   -5.4140   47.7070 C.3    74  CYS74       0.0997
     23  SG       -16.5080   -4.9570   49.3430 S.3    74  CYS74      -0.0797
     24  N        -14.5890   -7.2480   45.4180 N.am   75  GLN75      -0.1977
     25  CA       -14.3080   -7.4210   44.0050 C.3    75  GLN75       0.1601
     26  C        -14.9210   -8.7110   43.5580 C.2    75  GLN75       0.2287
     27  O        -15.5480   -8.7710   42.5180 O.2    75  GLN75      -0.2864
     28  CB       -12.8080   -7.5070   43.7600 C.3    75  GLN75       0.0394
     29  CG       -12.0300   -6.2780   44.1460 C.3    75  GLN75       0.0908
     30  CD       -10.5930   -6.3820   43.7180 C.2    75  GLN75       0.2608
     31  OE1      -10.0450   -5.4630   43.1210 O.2    75  GLN75      -0.2717
     32  NE2       -9.9930   -7.5390   43.9540 N.am   75  GLN75      -0.0878
     33  N        -17.4350  -10.2270   44.8040 N.3    77  THR77      -0.1203
     34  CA       -18.8800  -10.2000   44.8240 C.3    77  THR77       0.1994
     35  C        -19.3390   -9.4360   43.6150 C.2    77  THR77       0.2618
     36  O        -20.3820   -9.7160   43.0440 O.2    77  THR77      -0.2717
     37  CB       -19.3950   -9.4980   46.0560 C.3    77  THR77       0.1784
     38  OG1      -18.6530   -9.9340   47.1970 O.3    77  THR77      -0.2211
     39  CG2      -20.8520   -9.8140   46.2490 C.3    77  THR77       0.0376
     40  N        -18.5480   -8.4360   43.2520 N.am   78  SER78      -0.1951
     41  CA       -18.8220   -7.6360   42.0810 C.3    78  SER78       0.1924
     42  C        -18.7160   -8.4870   40.8350 C.2    78  SER78       0.2314
     43  O        -19.5220   -8.3770   39.9290 O.2    78  SER78      -0.2863
     44  CB       -17.7810   -6.5400   41.9790 C.3    78  SER78       0.2116
     45  OG       -17.7690   -5.7430   43.1410 O.3    78  SER78      -0.2180
     46  N        -21.7780  -10.6570   40.5690 N.3    81  THR81      -0.1218
     47  CA       -22.9960   -9.9470   40.2030 C.3    81  THR81       0.1862
     48  C        -22.9150   -9.5280   38.7370 C.2    81  THR81       0.2287
     49  O        -23.9190   -9.4850   38.0540 O.2    81  THR81      -0.2866
     50  CB       -23.2650   -8.7050   41.1050 C.3    81  THR81       0.1770
     51  OG1      -22.9090   -8.9820   42.4630 O.3    81  THR81      -0.2211
     52  CG2      -24.7300   -8.3070   41.0560 C.3    81  THR81       0.0375
     53  N        -22.3080   -1.4470   37.1840 N.3   112  TYR112     -0.1241
     54  CA       -22.1240   -0.8660   38.5090 C.3   112  TYR112      0.1605
     55  C        -23.2940   -0.0430   39.0380 C.2   112  TYR112      0.2264
     56  O        -23.5030    0.0090   40.2310 O.2   112  TYR112     -0.2867
     57  CB       -20.8090   -0.0890   38.6000 C.3   112  TYR112      0.0534
     58  CG       -19.6370   -0.9740   38.9760 C.ar  112  TYR112     -0.0201
     59  CD1      -19.4590   -1.4020   40.2880 C.ar  112  TYR112     -0.0009
     60  CD2      -18.7160   -1.3850   38.0220 C.ar  112  TYR112     -0.0009
     61  CE1      -18.3950   -2.2130   40.6340 C.ar  112  TYR112      0.0417
     62  CE2      -17.6520   -2.1960   38.3580 C.ar  112  TYR112      0.0417
     63  CZ       -17.4940   -2.6080   39.6630 C.ar  112  TYR112      0.1957
     64  OH       -16.4270   -3.4150   39.9920 O.3   112  TYR112     -0.2866
     65  N        -25.6340   -2.7100   40.2030 N.3   115  ILE115     -0.1231
     66  CA       -25.1030   -3.3160   41.3910 C.3   115  ILE115      0.1692
     67  C        -25.4300   -2.4610   42.6020 C.2   115  ILE115      0.2592
     68  O        -25.8610   -2.9620   43.6220 O.2   115  ILE115     -0.2718
     69  CB       -23.5970   -3.4650   41.2270 C.3   115  ILE115      0.0266
     70  CG1      -23.3090   -4.6470   40.2940 C.3   115  ILE115      0.0019
     71  CG2      -22.9130   -3.5650   42.5650 C.3   115  ILE115      0.0020
     72  CD1      -21.8670   -4.8920   40.0220 C.3   115  ILE115      0.0001
     73  N        -25.2310   -1.1590   42.5030 N.am  116  PHE116     -0.1976
     74  CA       -25.5030   -0.3000   43.6520 C.3   116  PHE116      0.1639
     75  C        -26.9960   -0.1820   43.9570 C.2   116  PHE116      0.2290
     76  O        -27.3800   -0.0020   45.0920 O.2   116  PHE116     -0.2864
     77  CB       -24.8390    1.0700   43.4840 C.3   116  PHE116      0.0560
     78  CG       -23.3370    1.0120   43.4550 C.ar  116  PHE116     -0.0200
     79  CD1      -22.6590   -0.0560   44.0130 C.ar  116  PHE116     -0.0042
     80  CD2      -22.6050    2.0150   42.8720 C.ar  116  PHE116     -0.0042
     81  CE1      -21.2690   -0.1260   43.9790 C.ar  116  PHE116     -0.0003
     82  CE2      -21.2130    1.9470   42.8460 C.ar  116  PHE116     -0.0003
     83  CZ       -20.5530    0.8760   43.3990 C.ar  116  PHE116     -0.0000
     84  N        -27.8700   -3.5060   45.5410 N.3   119  LEU119     -0.1245
     85  CA       -27.1360   -3.5960   46.7930 C.3   119  LEU119      0.1561
     86  C        -27.9940   -3.1160   47.9470 C.2   119  LEU119      0.2260
     87  O        -27.8870   -3.6080   49.0430 O.2   119  LEU119     -0.2867
     88  CB       -25.8460   -2.7770   46.6840 C.3   119  LEU119      0.0270
     89  CG       -24.9270   -2.5810   47.8950 C.3   119  LEU119      0.0019
     90  CD1      -24.6150   -3.8930   48.6330 C.3   119  LEU119      0.0001
     91  CD2      -23.6430   -1.8870   47.4370 C.3   119  LEU119      0.0001
     92  N        -29.9240   -5.5230   50.1320 N.3   122  VAL122     -0.1245
     93  CA       -29.2110   -6.2680   51.1640 C.3   122  VAL122      0.1561
     94  C        -28.6130   -5.3750   52.2620 C.2   122  VAL122      0.2260
     95  O        -27.7290   -5.8060   53.0060 O.2   122  VAL122     -0.2867
     96  CB       -28.1290   -7.2210   50.5470 C.3   122  VAL122      0.0252
     97  CG1      -28.7550   -8.1400   49.5540 C.3   122  VAL122      0.0019
     98  CG2      -27.0170   -6.4510   49.8760 C.3   122  VAL122      0.0019
     99  N        -24.4640   -4.6630   56.2030 N.3   128  MET128     -0.1230
    100  CA       -24.8110   -5.2510   54.9350 C.3   128  MET128      0.1702
    101  C        -24.4720   -6.7300   54.8650 C.2   128  MET128      0.2592
    102  O        -23.4530   -7.1720   55.3880 O.2   128  MET128     -0.2718
    103  CB       -24.1320   -4.4620   53.8220 C.3   128  MET128      0.0401
    104  CG       -22.6490   -4.7310   53.7330 C.3   128  MET128      0.0596
    105  SD       -21.8740   -3.9170   52.3360 S.3   128  MET128     -0.1393
    106  CE       -20.3070   -4.7690   52.2820 C.3   128  MET128      0.0692
    107  N        -25.3530   -7.4880   54.2170 N.am  129  LEU129     -0.1966
    108  CA       -25.1680   -8.9230   54.0080 C.3   129  LEU129      0.1728
    109  C        -24.0950   -9.2460   52.9940 C.2   129  LEU129      0.2616
    110  O        -23.8870   -8.4950   52.0420 O.2   129  LEU129     -0.2715
    111  CB       -26.4540   -9.5690   53.5260 C.3   129  LEU129      0.0311
    112  CG       -27.6790   -9.6130   54.4130 C.3   129  LEU129      0.0022
    113  CD1      -28.8120  -10.2240   53.6320 C.3   129  LEU129      0.0001
    114  CD2      -27.3780  -10.4330   55.6320 C.3   129  LEU129      0.0001
    115  N        -23.4190  -10.3690   53.1980 N.am  130  VAL130     -0.1977
    116  CA       -22.3610  -10.8270   52.3100 C.3   130  VAL130      0.1596
    117  C        -22.3300  -12.3380   52.3530 C.2   130  VAL130      0.2287
    118  O        -23.0280  -12.9540   53.1480 O.2   130  VAL130     -0.2864
    119  CB       -20.9670  -10.3160   52.7290 C.3   130  VAL130      0.0276
    120  CG1      -20.7730   -8.8370   52.4010 C.3   130  VAL130      0.0022
    121  CG2      -20.7230  -10.5990   54.1900 C.3   130  VAL130      0.0022
    122  N        -15.2050    3.9480   51.3350 N.3   152  ILE152     -0.1231
    123  CA       -15.8660    3.2520   50.2480 C.3   152  ILE152      0.1692
    124  C        -17.3470    3.0150   50.4140 C.2   152  ILE152      0.2591
    125  O        -18.1330    3.4680   49.5940 O.2   152  ILE152     -0.2718
    126  CB       -15.2350    1.8730   50.0160 C.3   152  ILE152      0.0266
    127  CG1      -13.7180    2.0080   49.8890 C.3   152  ILE152      0.0019
    128  CG2      -15.8250    1.2280   48.7760 C.3   152  ILE152      0.0020
    129  CD1      -12.9920    0.7180   49.5810 C.3   152  ILE152      0.0001
    130  N        -17.7290    2.3320   51.4870 N.am  153  MET153     -0.1979
    131  CA       -19.0760    1.7680   51.5660 C.3   153  MET153      0.1605
    132  C        -20.1370    2.7000   52.0780 C.2   153  MET153      0.2287
    133  O        -21.3210    2.4860   51.8290 O.2   153  MET153     -0.2864
    134  CB       -19.0920    0.4920   52.4010 C.3   153  MET153      0.0413
    135  CG       -20.1890   -0.4940   52.0210 C.3   153  MET153      0.0598
    136  SD       -19.8600   -1.3090   50.4450 S.3   153  MET153     -0.1393
    137  CE       -18.1710   -1.8580   50.6610 C.3   153  MET153      0.0692
    138  N        -22.7140    4.3350   49.6550 N.3   156  LYS156     -0.1245
    139  CA       -23.6780    3.3640   49.1900 C.3   156  LYS156      0.1561
    140  C        -24.7320    3.1150   50.2500 C.2   156  LYS156      0.2260
    141  O        -25.8850    2.8710   49.9200 O.2   156  LYS156     -0.2867
    142  CB       -22.9840    2.0620   48.7660 C.3   156  LYS156      0.0271
    143  CG       -22.0930    2.2350   47.5420 C.3   156  LYS156      0.0035
    144  CD       -20.7840    2.9760   47.8110 C.3   156  LYS156      0.0206
    145  CE       -20.0350    3.2780   46.5330 C.3   156  LYS156      0.1093
    146  NZ       -18.8170    4.0960   46.7680 N.3   156  LYS156     -0.1314
    147  N        -17.2930    6.7910   42.6060 N.3   238  HIS238     -0.1241
    148  CA       -16.7620    5.5180   43.0620 C.3   238  HIS238      0.1621
    149  C        -15.5440    5.1140   42.2480 C.2   238  HIS238      0.2264
    150  O        -14.5660    4.6110   42.7900 O.2   238  HIS238     -0.2867
    151  CB       -17.8480    4.4520   42.9300 C.3   238  HIS238      0.0745
    152  CG       -17.3920    3.0600   43.2470 C.ar  238  HIS238      0.0817
    153  ND1      -17.4320    2.5340   44.5190 N.ar  238  HIS238     -0.2268
    154  CD2      -16.8690    2.0930   42.4590 C.ar  238  HIS238      0.1154
    155  CE1      -16.9700    1.2980   44.4980 C.ar  238  HIS238      0.1986
    156  NE2      -16.6190    1.0060   43.2600 N.ar  238  HIS238     -0.2212
    157  N        -11.4170    4.0750   43.3680 N.3   242  VAL242     -0.1245
    158  CA       -10.6600    2.8760   43.0110 C.3   242  VAL242      0.1561
    159  C         -9.3170    3.1990   42.3530 C.2   242  VAL242      0.2260
    160  O         -8.3790    2.4170   42.4540 O.2   242  VAL242     -0.2867
    161  CB       -11.4970    1.9260   42.1200 C.3   242  VAL242      0.0252
    162  CG1      -10.7380    0.6670   41.8140 C.3   242  VAL242      0.0019
    163  CG2      -12.7920    1.5700   42.8050 C.3   242  VAL242      0.0019
    164  N        -12.9180   -6.6000   36.2630 N.3   258  LEU258     -0.1245
    165  CA       -13.2710   -5.3030   36.7930 C.3   258  LEU258      0.1561
    166  C        -12.2960   -4.3030   36.2390 C.2   258  LEU258      0.2260
    167  O        -12.6560   -3.1840   35.8990 O.2   258  LEU258     -0.2867
    168  CB       -13.1730   -5.2920   38.3110 C.3   258  LEU258      0.0270
    169  CG       -13.9670   -6.3330   39.0830 C.3   258  LEU258      0.0019
    170  CD1      -13.9950   -5.9720   40.5530 C.3   258  LEU258      0.0001
    171  CD2      -15.3620   -6.4100   38.5370 C.3   258  LEU258      0.0001
    172  N        -13.1750   -0.7170   34.0840 N.3   262  TYR262     -0.1241
    173  CA       -12.7120    0.6150   34.4040 C.3   262  TYR262      0.1605
    174  C        -11.7710    1.1610   33.3610 C.2   262  TYR262      0.2264
    175  O        -11.2790    2.2700   33.4990 O.2   262  TYR262     -0.2867
    176  CB       -12.0050    0.6330   35.7360 C.3   262  TYR262      0.0534
    177  CG       -12.8800    0.3240   36.9070 C.ar  262  TYR262     -0.0201
    178  CD1      -13.9230    1.1520   37.2450 C.ar  262  TYR262     -0.0009
    179  CD2      -12.6230   -0.7710   37.7100 C.ar  262  TYR262     -0.0009
    180  CE1      -14.7110    0.8850   38.3330 C.ar  262  TYR262      0.0417
    181  CE2      -13.4030   -1.0530   38.7990 C.ar  262  TYR262      0.0417
    182  CZ       -14.4490   -0.2150   39.1180 C.ar  262  TYR262      0.1957
    183  OH       -15.2410   -0.4740   40.2270 O.3   262  TYR262     -0.2866
@<TRIPOS>BOND
     1   174   175    2
     2   174   173    1
     3   172   173    1
     4   173   176    1
     5   176   177    1
     6   167   166    2
     7   166   165    1
     8   164   165    1
     9   165   168    1
    10   177   178   ar
    11   177   179   ar
    12    53    54    1
    13   178   180   ar
    14   179   181   ar
    15    60    62   ar
    16    60    58   ar
    17    49    48    2
    18   168   169    1
    19   180   182   ar
    20    62    63   ar
    21    54    57    1
    22    54    55    1
    23   171   169    1
    24    57    58    1
    25    48    47    1
    26   181   182   ar
    27    58    59   ar
    28    55    56    2
    29   169   170    1
    30   182   183    1
    31    63    64    1
    32    63    61   ar
    33    43    42    2
    34    72    70    1
    35    47    46    1
    36    47    50    1
    37    65    66    1
    38    59    61   ar
    39    70    69    1
    40    42    41    1
    41    52    50    1
    42    50    51    1
    43    69    66    1
    44    69    71    1
    45    66    67    1
    46   162   161    1
    47    44    41    1
    48    44    45    1
    49    41    40    1
    50   161   163    1
    51   161   158    1
    52   149   150    2
    53   149   148    1
    54   159   160    2
    55   159   158    1
    56   154   152   ar
    57   154   156   ar
    58    73    67   am
    59    73    74    1
    60    27    26    2
    61    67    68    2
    62   147   148    1
    63    82    80   ar
    64    82    83   ar
    65    80    78   ar
    66   151   148    1
    67   151   152    1
    68   158   157    1
    69    36    35    2
    70    31    30    2
    71   152   153   ar
    72    40    35   am
    73   156   155   ar
    74    83    81   ar
    75    78    77    1
    76    78    79   ar
    77    77    74    1
    78    26    25    1
    79    35    34    1
    80    74    75    1
    81    30    32   am
    82    30    29    1
    83    28    25    1
    84    28    29    1
    85    75    76    2
    86    81    79   ar
    87    25    24    1
    88   155   153   ar
    89    33    34    1
    90    34    37    1
    91    21    20    2
    92    11    10   ar
    93    11     9   ar
    94    24    20   am
    95    84    85    1
    96    20    19    1
    97    10     8   ar
    98    37    39    1
    99    37    38    1
   100     9     7   ar
   101   145   146    1
   102   145   144    1
   103    88    85    1
   104    88    89    1
   105    85    86    1
   106     8     6   ar
   107    19    22    1
   108    19    18    1
   109    91    89    1
   110     7     6   ar
   111   143   144    1
   112   143   142    1
   113    15    14    2
   114    22    23    1
   115     4     3    2
   116    89    90    1
   117    86    87    2
   118     6     5    1
   119    18    14   am
   120    14    13    1
   121   142   139    1
   122     3     2    1
   123   128   126    1
   124   139   138    1
   125   139   140    1
   126    12    13    1
   127    13    16    1
   128     5     2    1
   129    97    96    1
   130   129   127    1
   131   125   124    2
   132     2     1    1
   133    98    96    1
   134   127   126    1
   135   141   140    2
   136   126   123    1
   137    92    93    1
   138   123   124    1
   139   123   122    1
   140   124   130   am
   141   136   137    1
   142   136   135    1
   143    96    93    1
   144    16    17    1
   145    93    94    1
   146   130   131    1
   147   131   132    1
   148   131   134    1
   149   133   132    2
   150   135   134    1
   151   110   109    2
   152    94    95    2
   153   106   105    1
   154   116   117    1
   155   116   119    1
   156   116   115    1
   157   105   104    1
   158   117   118    2
   159   120   119    1
   160   119   121    1
   161   109   115   am
   162   109   108    1
   163   111   108    1
   164   111   112    1
   165   113   112    1
   166   104   103    1
   167   103   100    1
   168   108   107    1
   169   107   101   am
   170   112   114    1
   171   101   100    1
   172   101   102    2
   173   100    99    1
