@<TRIPOS>MOLECULE
tmp/4bcsB00.pdb
 154 147 0 0 0
SMALL
GASTEIGER

@<TRIPOS>ATOM
      1  N         71.0430   14.0880   12.7080 N.3    10  ASP10      -0.1239
      2  CA        71.0640   13.4620   14.0430 C.3    10  ASP10       0.1674
      3  C         70.9060   14.4490   15.1960 C.2    10  ASP10       0.2266
      4  O         70.7240   15.6880   15.0040 O.2    10  ASP10      -0.2867
      5  CB        72.2540   12.4750   14.2200 C.3    10  ASP10       0.1410
      6  CG        73.6060   13.1480   14.4380 C.2    10  ASP10       0.3668
      7  OD1       73.6920   14.3540   14.8220 O.co2  10  ASP10      -0.2456
      8  OD2       74.6130   12.4190   14.2370 O.co2  10  ASP10      -0.2456
      9  N         72.8080   15.5690   17.3340 N.3    12  LEU12      -0.1245
     10  CA        73.9360   16.4780   17.5810 C.3    12  LEU12       0.1561
     11  C         73.9440   17.6340   16.5810 C.2    12  LEU12       0.2260
     12  O         74.7680   18.5930   16.6890 O.2    12  LEU12      -0.2867
     13  CB        75.2410   15.6970   17.4770 C.3    12  LEU12       0.0270
     14  CG        75.4770   14.6950   18.6330 C.3    12  LEU12       0.0019
     15  CD1       76.8100   14.0050   18.4340 C.3    12  LEU12       0.0001
     16  CD2       75.3810   15.2890   20.0170 C.3    12  LEU12       0.0001
     17  N         74.3150   16.9660   13.2100 N.3    14  SER14      -0.1217
     18  CA        75.0180   16.5050   12.0220 C.3    14  SER14       0.1889
     19  C         74.0180   16.1900   10.9390 C.2    14  SER14       0.2288
     20  O         72.8650   15.8860   11.2270 O.2    14  SER14      -0.2866
     21  CB        75.8320   15.2700   12.3640 C.3    14  SER14       0.2089
     22  OG        76.7840   15.6420   13.3330 O.3    14  SER14      -0.2183
     23  N         78.6430   12.9530    4.7390 N.3    31  TYR31      -0.1241
     24  CA        78.3840   13.2620    6.1450 C.3    31  TYR31       0.1605
     25  C         78.9980   14.6120    6.5000 C.2    31  TYR31       0.2264
     26  O         80.1900   14.8380    6.2700 O.2    31  TYR31      -0.2867
     27  CB        79.0020   12.1400    7.0210 C.3    31  TYR31       0.0534
     28  CG        78.3640   11.9610    8.4210 C.ar   31  TYR31      -0.0201
     29  CD1       78.6190   12.8700    9.4640 C.ar   31  TYR31      -0.0009
     30  CD2       77.5300   10.8750    8.6880 C.ar   31  TYR31      -0.0009
     31  CE1       78.0340   12.7200   10.7180 C.ar   31  TYR31       0.0417
     32  CE2       76.9660   10.6990    9.9530 C.ar   31  TYR31       0.0417
     33  CZ        77.2060   11.6210   10.9510 C.ar   31  TYR31       0.1957
     34  OH        76.6420   11.4470   12.1950 O.3    31  TYR31      -0.2866
     35  N         79.5410   16.5790    9.8880 N.3    33  THR33      -0.1218
     36  CA        79.3710   16.5300   11.3450 C.3    33  THR33       0.1862
     37  C         79.2480   17.9350   11.9170 C.2    33  THR33       0.2287
     38  O         79.9580   18.8510   11.4700 O.2    33  THR33      -0.2866
     39  CB        80.4870   15.6990   12.0360 C.3    33  THR33       0.1770
     40  OG1       80.2370   15.6890   13.4560 O.3    33  THR33      -0.2211
     41  CG2       81.9270   16.2790   11.7370 C.3    33  THR33       0.0375
     42  N         79.8890   18.4300   15.1890 N.3    35  VAL35      -0.1231
     43  CA        80.8120   18.4110   16.3160 C.3    35  VAL35       0.1692
     44  C         82.0790   17.7170   15.8690 C.2    35  VAL35       0.2592
     45  O         82.0350   16.9190   14.9540 O.2    35  VAL35      -0.2718
     46  CB        80.1750   17.7190   17.5310 C.3    35  VAL35       0.0266
     47  CG1       79.0790   18.6090   18.1240 C.3    35  VAL35       0.0020
     48  CG2       79.6340   16.3140   17.1760 C.3    35  VAL35       0.0020
     49  N         83.2250   18.0270   16.4920 N.am   36  ALA36      -0.1966
     50  CA        84.4820   17.3340   16.1370 C.3    36  ALA36       0.1728
     51  C         85.5750   17.6090   17.1460 C.2    36  ALA36       0.2616
     52  O         85.4310   18.5010   17.9840 O.2    36  ALA36      -0.2715
     53  CB        84.9620   17.7460   14.7370 C.3    36  ALA36       0.0334
     54  N         86.6410   16.8230   17.0930 N.am   37  ASP37      -0.1957
     55  CA        87.8230   17.0510   17.9250 C.3    37  ASP37       0.1840
     56  C         88.3630   18.4610   17.6560 C.2    37  ASP37       0.2622
     57  O         88.6640   19.2170   18.5810 O.2    37  ASP37      -0.2715
     58  CB        88.8940   16.0010   17.6060 C.3    37  ASP37       0.1450
     59  CG        88.5580   14.6370   18.2170 C.2    37  ASP37       0.3671
     60  OD1       87.9940   14.6360   19.3300 O.co2  37  ASP37      -0.2456
     61  OD2       88.8470   13.5970   17.6030 O.co2  37  ASP37      -0.2456
     62  N         88.4340   18.7990   16.3770 N.am   38  ASN38      -0.1972
     63  CA        88.7880   20.1530   15.9300 C.3    38  ASN38       0.1688
     64  C         87.7100   20.7250   14.9950 C.2    38  ASN38       0.2292
     65  O         87.7460   20.4820   13.7890 O.2    38  ASN38      -0.2864
     66  CB        90.1470   20.0980   15.2440 C.3    38  ASN38       0.1181
     67  CG        91.2420   19.6020   16.1700 C.2    38  ASN38       0.2629
     68  OD1       91.7540   18.4820   16.0180 O.2    38  ASN38      -0.2716
     69  ND2       91.5890   20.4220   17.1610 N.am   38  ASN38      -0.0877
     70  N         86.6710   10.1600    7.4230 N.3    66  TRP66      -0.1241
     71  CA        86.7640   11.6060    7.6650 C.3    66  TRP66       0.1605
     72  C         87.9030   12.2210    6.8570 C.2    66  TRP66       0.2264
     73  O         88.9980   11.6600    6.8150 O.2    66  TRP66      -0.2867
     74  CB        86.9560   11.9160    9.1700 C.3    66  TRP66       0.0550
     75  CG        85.8620   11.3620   10.0250 C.ar   66  TRP66       0.0003
     76  CD1       85.9730   10.3110   10.8920 C.ar   66  TRP66       0.0946
     77  CD2       84.5000   11.8080   10.0970 C.ar   66  TRP66       0.0152
     78  NE1       84.7760   10.0900   11.5110 N.ar   66  TRP66      -0.2442
     79  CE2       83.8490   10.9820   11.0500 C.ar   66  TRP66       0.0810
     80  CE3       83.7680   12.8390    9.4680 C.ar   66  TRP66       0.0012
     81  CZ2       82.4990   11.1280   11.3810 C.ar   66  TRP66       0.0191
     82  CZ3       82.4240   13.0230    9.8180 C.ar   66  TRP66       0.0001
     83  CH2       81.7990   12.1570   10.7720 C.ar   66  TRP66       0.0015
     84  N         89.1640   15.2290    7.1550 N.3    68  PHE68      -0.1227
     85  CA        89.9130   16.2510    7.8790 C.3    68  PHE68       0.1736
     86  C         90.6500   15.7110    9.1090 C.2    68  PHE68       0.2596
     87  O         91.0890   16.5010    9.9540 O.2    68  PHE68      -0.2718
     88  CB        88.9650   17.3830    8.2750 C.3    68  PHE68       0.0547
     89  CG        87.7720   16.9180    9.0730 C.ar   68  PHE68      -0.0202
     90  CD1       86.6340   16.4110    8.4360 C.ar   68  PHE68      -0.0042
     91  CD2       87.7940   16.9740   10.4720 C.ar   68  PHE68      -0.0042
     92  CE1       85.5420   15.9770    9.1840 C.ar   68  PHE68      -0.0003
     93  CE2       86.7100   16.5470   11.2220 C.ar   68  PHE68      -0.0003
     94  CZ        85.5820   16.0440   10.5800 C.ar   68  PHE68      -0.0000
     95  N         90.7390   14.3800    9.2090 N.am   69  SER69      -0.1952
     96  CA        91.2670   13.6580   10.3780 C.3    69  SER69       0.1924
     97  C         91.7690   12.2800    9.9170 C.2    69  SER69       0.2314
     98  O         91.2760   11.7720    8.9110 O.2    69  SER69      -0.2863
     99  CB        90.1150   13.4960   11.3920 C.3    69  SER69       0.2116
    100  OG        90.4880   12.6900   12.5080 O.3    69  SER69      -0.2180
    101  N         91.1090    9.7800   11.6530 N.3    71  SER71      -0.1217
    102  CA        90.1060    8.9510   12.3840 C.3    71  SER71       0.1889
    103  C         89.0810    8.3430   11.4430 C.2    71  SER71       0.2288
    104  O         88.8590    8.8590   10.3390 O.2    71  SER71      -0.2866
    105  CB        89.3730    9.7950   13.4030 C.3    71  SER71       0.2089
    106  OG        90.3290   10.3110   14.3070 O.3    71  SER71      -0.2183
    107  N         84.9340    6.7040   11.7850 N.3    73  THR73      -0.1218
    108  CA        83.7700    6.2940   12.6010 C.3    73  THR73       0.1862
    109  C         82.9680    5.1610   11.8890 C.2    73  THR73       0.2287
    110  O         82.7400    5.2190   10.6650 O.2    73  THR73      -0.2866
    111  CB        82.8290    7.4590   12.9150 C.3    73  THR73       0.1770
    112  OG1       83.5530    8.5410   13.5330 O.3    73  THR73      -0.2211
    113  CG2       81.6930    7.0120   13.8530 C.3    73  THR73       0.0375
    114  N         79.1370    3.3270   12.1370 N.3    75  PHE75      -0.1241
    115  CA        77.7830    3.3580   12.6910 C.3    75  PHE75       0.1605
    116  C         77.0760    2.0230   12.3940 C.2    75  PHE75       0.2264
    117  O         77.1960    1.4360   11.2820 O.2    75  PHE75      -0.2867
    118  CB        76.9410    4.5060   12.0860 C.3    75  PHE75       0.0534
    119  CG        77.3530    5.8950   12.4650 C.ar   75  PHE75      -0.0203
    120  CD1       78.3930    6.5550   11.7970 C.ar   75  PHE75      -0.0042
    121  CD2       76.6000    6.6220   13.4000 C.ar   75  PHE75      -0.0042
    122  CE1       78.7010    7.8940   12.1150 C.ar   75  PHE75      -0.0003
    123  CE2       76.9180    7.9360   13.7300 C.ar   75  PHE75      -0.0003
    124  CZ        77.9940    8.5730   13.0830 C.ar   75  PHE75      -0.0000
    125  N         77.8030    3.9560   17.5910 N.3    93  TRP93      -0.1241
    126  CA        78.9850    4.2200   16.7870 C.3    93  TRP93       0.1605
    127  C         80.2700    3.9610   17.5560 C.2    93  TRP93       0.2264
    128  O         80.3090    4.0680   18.7960 O.2    93  TRP93      -0.2867
    129  CB        78.9590    5.6480   16.1810 C.3    93  TRP93       0.0550
    130  CG        78.7420    6.7640   17.1390 C.ar   93  TRP93       0.0003
    131  CD1       77.5860    7.4630   17.3270 C.ar   93  TRP93       0.0946
    132  CD2       79.7170    7.3400   18.0130 C.ar   93  TRP93       0.0152
    133  NE1       77.7590    8.4280   18.2860 N.ar   93  TRP93      -0.2442
    134  CE2       79.0630    8.3840   18.7280 C.ar   93  TRP93       0.0810
    135  CE3       81.0880    7.0610   18.2790 C.ar   93  TRP93       0.0012
    136  CZ2       79.7210    9.1680   19.7080 C.ar   93  TRP93       0.0191
    137  CZ3       81.7720    7.8640   19.2540 C.ar   93  TRP93       0.0001
    138  CH2       81.0740    8.9050   19.9560 C.ar   93  TRP93       0.0015
    139  N         84.1630    5.5110   17.2130 N.3    95  LEU95      -0.1245
    140  CA        85.0790    6.5180   16.6550 C.3    95  LEU95       0.1561
    141  C         86.4910    6.0860   16.9540 C.2    95  LEU95       0.2260
    142  O         86.9420    6.1020   18.0920 O.2    95  LEU95      -0.2867
    143  CB        84.7310    7.9410   17.1570 C.3    95  LEU95       0.0270
    144  CG        85.6880    9.1380   16.9750 C.3    95  LEU95       0.0019
    145  CD1       86.1160    9.3030   15.5150 C.3    95  LEU95       0.0001
    146  CD2       85.0870   10.4090   17.5450 C.3    95  LEU95       0.0001
    147  N         73.5890    7.7560   18.2790 N.3   114  ASN114     -0.1240
    148  CA        72.9310    8.8630   17.5760 C.3   114  ASN114      0.1653
    149  C         71.5500    8.3830   17.1170 C.2   114  ASN114      0.2266
    150  O         71.3990    7.2060   16.7420 O.2   114  ASN114     -0.2867
    151  CB        73.7290    9.3130   16.3610 C.3   114  ASN114      0.1155
    152  CG        74.8470   10.2750   16.7050 C.2   114  ASN114      0.2627
    153  OD1       76.0010   10.0000   16.3920 O.2   114  ASN114     -0.2716
    154  ND2       74.5200   11.4030   17.3600 N.am  114  ASN114     -0.0877
@<TRIPOS>BOND
     1    23    24    1
     2    24    25    1
     3    24    27    1
     4    26    25    2
     5    73    72    2
     6    72    71    1
     7    27    28    1
     8    84    85    1
     9    70    71    1
    10    71    74    1
    11    85    88    1
    12    85    86    1
    13    88    89    1
    14    28    30   ar
    15    28    29   ar
    16    90    89   ar
    17    90    92   ar
    18    30    32   ar
    19    98    97    2
    20    89    91   ar
    21    86    95   am
    22    86    87    2
    23    74    75    1
    24    92    94   ar
    25    95    96    1
    26    29    31   ar
    27    80    82   ar
    28    80    77   ar
    29    82    83   ar
    30    35    36    1
    31    97    96    1
    32    32    33   ar
    33    75    77   ar
    34    75    76   ar
    35    77    79   ar
    36   104   103    2
    37    96    99    1
    38    91    93   ar
    39    94    93   ar
    40   110   109    2
    41    31    33   ar
    42    83    81   ar
    43    76    78   ar
    44    19    20    2
    45    19    18    1
    46    33    34    1
    47    79    81   ar
    48    79    78   ar
    49   117   116    2
    50    36    37    1
    51    36    39    1
    52    99   100    1
    53   103   102    1
    54    38    37    2
    55   101   102    1
    56    41    39    1
    57   107   108    1
    58   120   122   ar
    59   120   119   ar
    60   109   108    1
    61    18    21    1
    62    18    17    1
    63    39    40    1
    64   118   119    1
    65   118   115    1
    66   122   124   ar
    67   114   115    1
    68    21    22    1
    69   102   105    1
    70   116   115    1
    71   119   121   ar
    72   108   111    1
    73     1     2    1
    74   111   112    1
    75   111   113    1
    76   124   123   ar
    77   121   123   ar
    78   105   106    1
    79    65    64    2
    80     2     5    1
    81     2     3    1
    82     5     6    1
    83     8     6   ar
    84     6     7   ar
    85    53    50    1
    86    45    44    2
    87    64    63    1
    88     4     3    2
    89    42    43    1
    90    66    63    1
    91    66    67    1
    92   145   144    1
    93    44    43    1
    94    44    49   am
    95    63    62    1
    96    68    67    2
    97    50    49    1
    98    50    51    1
    99    67    69   am
   100   129   126    1
   101   129   130    1
   102    43    46    1
   103   151   152    1
   104   151   148    1
   105    62    56   am
   106   153   152    2
   107    11    12    2
   108    11    10    1
   109   140   141    1
   110   140   143    1
   111   140   139    1
   112   152   154   am
   113   150   149    2
   114   126   127    1
   115   126   125    1
   116   141   142    2
   117   144   143    1
   118   144   146    1
   119    54    51   am
   120    54    55    1
   121   149   148    1
   122   130   131   ar
   123   130   132   ar
   124    51    52    2
   125    48    46    1
   126   131   133   ar
   127     9    10    1
   128    13    10    1
   129    13    14    1
   130    46    47    1
   131   127   128    2
   132   148   147    1
   133    61    59   ar
   134    58    55    1
   135    58    59    1
   136    56    55    1
   137    56    57    2
   138   132   135   ar
   139   132   134   ar
   140    59    60   ar
   141   135   137   ar
   142   133   134   ar
   143    15    14    1
   144    14    16    1
   145   134   136   ar
   146   137   138   ar
   147   136   138   ar
