@<TRIPOS>MOLECULE
tmp/4bctA00.pdb
 79 72 0 0 0
SMALL
GASTEIGER

@<TRIPOS>ATOM
      1  N         26.8550    9.8060   17.2940 N.3    40  LYS40      -0.1231
      2  CA        26.3020    8.9190   18.2560 C.3    40  LYS40       0.1693
      3  C         24.8610    9.1330   18.4130 C.2    40  LYS40       0.2592
      4  O         24.2870   10.0960   17.9160 O.2    40  LYS40      -0.2718
      5  CB        26.9910    8.9810   19.5590 C.3    40  LYS40       0.0285
      6  CG        26.8740   10.3780   20.1030 C.3    40  LYS40       0.0035
      7  CD        27.4620   10.6150   21.4160 C.3    40  LYS40       0.0206
      8  CE        26.5490    9.9840   22.3700 C.3    40  LYS40       0.1093
      9  NZ        27.3130    9.5950   23.5970 N.3    40  LYS40      -0.1314
     10  N         24.2260    8.1480   19.1010 N.am   41  GLY41      -0.1957
     11  CA        22.7960    8.2720   19.2570 C.3    41  GLY41       0.1869
     12  C         22.0440    8.1450   17.9710 C.2    41  GLY41       0.2309
     13  O         20.9530    8.6620   17.8430 O.2    41  GLY41      -0.2863
     14  N         20.8720    0.8840   15.3070 N.3    83  GLU83      -0.1245
     15  CA        21.4010    1.9200   16.1760 C.3    83  GLU83       0.1567
     16  C         22.9060    1.8830   16.1020 C.2    83  GLU83       0.2260
     17  O         23.5030    0.8050   16.0880 O.2    83  GLU83      -0.2867
     18  CB        21.0180    1.6810   17.6210 C.3    83  GLU83       0.0388
     19  CG        19.5110    1.5840   17.8420 C.3    83  GLU83       0.1160
     20  CD        19.1790    1.4570   19.2770 C.2    83  GLU83       0.3649
     21  OE1       19.7210    0.5240   19.9420 O.co2  83  GLU83      -0.2457
     22  OE2       18.3480    2.2370   19.7790 O.co2  83  GLU83      -0.2457
     23  N         32.7360    4.8580   19.5390 N.3    88  GLN88      -0.1245
     24  CA        32.1220    4.9590   20.8600 C.3    88  GLN88       0.1566
     25  C         33.1080    4.7440   21.9610 C.2    88  GLN88       0.2260
     26  O         33.0650    5.4640   22.9500 O.2    88  GLN88      -0.2867
     27  CB        30.9970    3.9340   20.9760 C.3    88  GLN88       0.0367
     28  CG        30.3770    3.7780   22.3110 C.3    88  GLN88       0.0905
     29  CD        29.6700    5.0720   22.7880 C.2    88  GLN88       0.2608
     30  OE1       29.1710    5.8490   21.9850 O.2    88  GLN88      -0.2717
     31  NE2       29.5830    5.2150   24.1100 N.am   88  GLN88      -0.0878
     32  N         23.9990   -2.0170   16.8100 N.3    96  ASP96      -0.1239
     33  CA        23.0610   -3.0290   17.2230 C.3    96  ASP96       0.1674
     34  C         21.7920   -2.8850   16.4010 C.2    96  ASP96       0.2266
     35  O         21.5240   -1.8510   15.8180 O.2    96  ASP96      -0.2867
     36  CB        22.7340   -2.9100   18.7140 C.3    96  ASP96       0.1410
     37  CG        22.1860   -1.6150   19.1210 C.2    96  ASP96       0.3668
     38  OD1       20.8720   -1.5610   19.0050 O.co2  96  ASP96      -0.2456
     39  OD2       22.8390   -0.6840   19.5050 O.co2  96  ASP96      -0.2456
     40  N         17.8740   -2.9990   17.4050 N.3    98  SER98      -0.1217
     41  CA        17.0290   -2.9200   18.5630 C.3    98  SER98       0.1889
     42  C         15.5880   -3.1210   18.1820 C.2    98  SER98       0.2288
     43  O         15.1070   -2.5220   17.2290 O.2    98  SER98      -0.2866
     44  CB        17.1920   -1.6050   19.2480 C.3    98  SER98       0.2089
     45  OG        16.2700   -1.5160   20.2880 O.3    98  SER98      -0.2183
     46  N         13.6000   -2.6450   20.9240 N.3   100  VAL100     -0.1245
     47  CA        13.0560   -1.9900   22.0900 C.3   100  VAL100      0.1561
     48  C         11.9350   -1.0070   21.7470 C.2   100  VAL100      0.2260
     49  O         11.0670   -0.7760   22.5730 O.2   100  VAL100     -0.2867
     50  CB        14.2000   -1.3230   22.8730 C.3   100  VAL100      0.0252
     51  CG1       13.6700   -0.4800   24.0060 C.3   100  VAL100      0.0019
     52  CG2       15.1100   -2.4080   23.3860 C.3   100  VAL100      0.0019
     53  N         18.5960   -6.3080   20.4940 N.3   176  TYR176     -0.1241
     54  CA        18.0710   -5.9230   21.7980 C.3   176  TYR176      0.1605
     55  C         16.5640   -6.1680   21.8360 C.2   176  TYR176      0.2264
     56  O         15.8290   -5.6200   21.0400 O.2   176  TYR176     -0.2867
     57  CB        18.2640   -4.4570   22.0990 C.3   176  TYR176      0.0534
     58  CG        19.6250   -4.0120   22.5740 C.ar  176  TYR176     -0.0201
     59  CD1       20.6230   -3.7070   21.7170 C.ar  176  TYR176     -0.0009
     60  CD2       19.8560   -3.8700   23.9220 C.ar  176  TYR176     -0.0009
     61  CE1       21.8470   -3.2440   22.1580 C.ar  176  TYR176      0.0417
     62  CE2       21.0590   -3.4060   24.3960 C.ar  176  TYR176      0.0417
     63  CZ        22.0590   -3.0820   23.5310 C.ar  176  TYR176      0.1957
     64  OH        23.2580   -2.5650   23.9080 O.3   176  TYR176     -0.2866
     65  N         15.6770   -2.9510   27.1080 N.3   179  PRO179     -0.2116
     66  CA        16.7470   -1.9260   27.1630 C.3   179  PRO179      0.1372
     67  C         18.0940   -2.4140   27.6160 C.2   179  PRO179      0.2244
     68  O         19.0970   -1.9020   27.1430 O.2   179  PRO179     -0.2868
     69  CB        16.1620   -0.8670   28.0500 C.3   179  PRO179      0.0268
     70  CG        14.6620   -0.9520   27.7780 C.3   179  PRO179      0.0207
     71  CD        14.3880   -2.4160   27.6210 C.3   179  PRO179      0.0892
     72  N         22.1040   -5.9370   26.7420 N.3   182  ASP182     -0.1239
     73  CA        23.3790   -5.6220   26.1760 C.3   182  ASP182      0.1674
     74  C         24.2700   -6.8160   25.8850 C.2   182  ASP182      0.2266
     75  O         25.0080   -6.7870   24.9160 O.2   182  ASP182     -0.2867
     76  CB        24.1400   -4.7020   27.1050 C.3   182  ASP182      0.1410
     77  CG        23.4070   -3.4370   27.3650 C.2   182  ASP182      0.3668
     78  OD1       23.5710   -2.5010   26.5940 O.co2 182  ASP182     -0.2456
     79  OD2       22.6170   -3.4280   28.3400 O.co2 182  ASP182     -0.2456
@<TRIPOS>BOND
     1    14    15    1
     2    35    34    2
     3    17    16    2
     4    16    15    1
     5    15    18    1
     6    34    33    1
     7    32    33    1
     8    33    36    1
     9    43    42    2
    10     1     2    1
    11    40    41    1
    12    18    19    1
    13    19    20    1
    14    13    12    2
    15     4     3    2
    16    12    11    1
    17    42    41    1
    18     2     3    1
    19     2     5    1
    20     3    10   am
    21    41    44    1
    22    36    37    1
    23    38    37   ar
    24    10    11    1
    25    37    39   ar
    26    44    45    1
    27    20    22   ar
    28    20    21   ar
    29    23    24    1
    30     5     6    1
    31     6     7    1
    32    53    54    1
    33    24    27    1
    34    24    25    1
    35    46    47    1
    36    27    28    1
    37    56    55    2
    38     7     8    1
    39    59    61   ar
    40    59    58   ar
    41    48    47    1
    42    48    49    2
    43    54    55    1
    44    54    57    1
    45    25    26    2
    46    30    29    2
    47    47    50    1
    48    57    58    1
    49    61    63   ar
    50    28    29    1
    51     8     9    1
    52    58    60   ar
    53    29    31   am
    54    50    52    1
    55    50    51    1
    56    63    64    1
    57    63    62   ar
    58    60    62   ar
    59    75    74    2
    60    74    73    1
    61    73    72    1
    62    73    76    1
    63    78    77   ar
    64    76    77    1
    65    65    66    1
    66    65    71    1
    67    68    67    2
    68    66    67    1
    69    66    69    1
    70    77    79   ar
    71    71    70    1
    72    70    69    1
