@<TRIPOS>MOLECULE
tmp/4bcwA00.pdb
 138 135 0 0 0
SMALL
GASTEIGER

@<TRIPOS>ATOM
      1  N         -0.6240   -2.1460    6.4340 N.3    61  HIS61      -0.1241
      2  CA        -0.6780   -2.9400    7.6660 C.3    61  HIS61       0.1621
      3  C         -2.0530   -3.4060    8.0180 C.2    61  HIS61       0.2264
      4  O         -2.2050   -4.2840    8.8630 O.2    61  HIS61      -0.2867
      5  CB        -0.0450   -2.2110    8.8500 C.3    61  HIS61       0.0745
      6  CG        -0.5070   -0.7840    9.0110 C.ar   61  HIS61       0.0817
      7  ND1        0.1290    0.2520    8.4280 N.ar   61  HIS61      -0.2268
      8  CD2       -1.5790   -0.2430    9.7190 C.ar   61  HIS61       0.1154
      9  CE1       -0.5050    1.3980    8.7450 C.ar   61  HIS61       0.1986
     10  NE2       -1.5500    1.0930    9.5370 N.ar   61  HIS61      -0.2212
     11  N         -8.4880    0.1220    5.8270 N.3    64  GLN64      -0.1245
     12  CA        -9.2660    1.0540    6.6140 C.3    64  GLN64       0.1566
     13  C        -10.4020    1.6510    5.8010 C.2    64  GLN64       0.2260
     14  O        -10.2170    1.9730    4.6160 O.2    64  GLN64      -0.2867
     15  CB        -8.3840    2.1520    7.1580 C.3    64  GLN64       0.0367
     16  CG        -7.7230    2.9950    6.0780 C.3    64  GLN64       0.0905
     17  CD        -6.7470    3.9870    6.6620 C.2    64  GLN64       0.2608
     18  OE1       -5.9010    3.6050    7.4760 O.2    64  GLN64      -0.2717
     19  NE2       -6.8440    5.2660    6.2380 N.am   64  GLN64      -0.0878
     20  N        -13.9180    8.3530   12.8290 N.3    88  ILE88      -0.1231
     21  CA       -12.9850    8.7960   11.7560 C.3    88  ILE88       0.1692
     22  C        -12.6640    7.6510   10.7960 C.2    88  ILE88       0.2591
     23  O        -12.5800    7.8280    9.5800 O.2    88  ILE88      -0.2718
     24  CB       -11.6890    9.4470   12.3400 C.3    88  ILE88       0.0266
     25  CG1      -10.7350    9.8790   11.2020 C.3    88  ILE88       0.0019
     26  CG2      -11.0190    8.5660   13.4160 C.3    88  ILE88       0.0020
     27  CD1       -9.6410   10.8200   11.6750 C.3    88  ILE88       0.0001
     28  N        -12.5170    6.4450   11.3540 N.am   89  GLN89      -0.1979
     29  CA       -12.1780    5.2910   10.5160 C.3    89  GLN89       0.1601
     30  C        -12.4630    3.9960   11.2380 C.2    89  GLN89       0.2287
     31  O        -12.5950    4.0080   12.4380 O.2    89  GLN89      -0.2864
     32  CB       -10.7190    5.3300   10.0360 C.3    89  GLN89       0.0394
     33  CG        -9.6590    5.2410   11.1090 C.3    89  GLN89       0.0908
     34  CD        -8.9370    3.8960   11.0090 C.2    89  GLN89       0.2608
     35  OE1       -9.4780    2.9040   11.3960 O.2    89  GLN89      -0.2717
     36  NE2       -7.7470    3.8730   10.4370 N.am   89  GLN89      -0.0878
     37  N        -10.9260   -0.2520   10.9810 N.3    91  HIS91      -0.1241
     38  CA        -9.9860   -1.1890   10.3440 C.3    91  HIS91       0.1621
     39  C        -10.0340   -2.4900   11.0930 C.2    91  HIS91       0.2264
     40  O        -10.6970   -2.5740   12.1030 O.2    91  HIS91      -0.2867
     41  CB        -8.5730   -0.6070   10.3670 C.3    91  HIS91       0.0745
     42  CG        -8.0470   -0.3890   11.7540 C.ar   91  HIS91       0.0817
     43  ND1       -8.1800    0.7860   12.4060 N.ar   91  HIS91      -0.2268
     44  CD2       -7.3870   -1.2550   12.6280 C.ar   91  HIS91       0.1154
     45  CE1       -7.6470    0.6730   13.6520 C.ar   91  HIS91       0.1986
     46  NE2       -7.1900   -0.5750   13.7960 N.ar   91  HIS91      -0.2212
     47  N        -11.7270   -2.4860   14.8450 N.3   116  HIS116     -0.1241
     48  CA       -11.4970   -1.2730   15.6220 C.3   116  HIS116      0.1621
     49  C        -12.1870   -0.1360   14.9670 C.2   116  HIS116      0.2264
     50  O        -11.8300    0.2420   13.8410 O.2   116  HIS116     -0.2867
     51  CB        -9.9910   -1.0090   15.6910 C.3   116  HIS116      0.0745
     52  CG        -9.2880   -1.9670   16.6180 C.ar  116  HIS116      0.0817
     53  ND1       -7.9400   -2.1640   16.5800 N.ar  116  HIS116     -0.2268
     54  CD2       -9.7930   -2.8350   17.5680 C.ar  116  HIS116      0.1154
     55  CE1       -7.6150   -3.0800   17.5250 C.ar  116  HIS116      0.1986
     56  NE2       -8.7400   -3.5040   18.1030 N.ar  116  HIS116     -0.2212
     57  N        -12.5670    3.6750   15.2660 N.3   118  VAL118     -0.1245
     58  CA       -11.7850    4.6960   15.9380 C.3   118  VAL118      0.1561
     59  C        -12.5070    6.0370   15.9890 C.2   118  VAL118      0.2260
     60  O        -13.0210    6.5020   14.9610 O.2   118  VAL118     -0.2867
     61  CB       -10.4440    4.8300   15.1970 C.3   118  VAL118      0.0252
     62  CG1       -9.5490    5.8610   15.8890 C.3   118  VAL118      0.0019
     63  CG2       -9.7380    3.4740   15.1080 C.3   118  VAL118      0.0019
     64  N         -8.1380   15.1480   14.7820 N.3   127  PHE127     -0.1241
     65  CA        -7.5800   13.8570   15.1740 C.3   127  PHE127      0.1605
     66  C         -6.1350   13.9830   15.6240 C.2   127  PHE127      0.2264
     67  O         -5.7210   13.3390   16.6010 O.2   127  PHE127     -0.2867
     68  CB        -7.6740   12.8740   13.9860 C.3   127  PHE127      0.0534
     69  CG        -7.0860   11.5260   14.2740 C.ar  127  PHE127     -0.0203
     70  CD1       -7.8050   10.5720   14.9870 C.ar  127  PHE127     -0.0042
     71  CD2       -5.7840   11.2190   13.8540 C.ar  127  PHE127     -0.0042
     72  CE1       -7.2440    9.3340   15.2830 C.ar  127  PHE127     -0.0003
     73  CE2       -5.2300    9.9860   14.1490 C.ar  127  PHE127     -0.0003
     74  CZ        -5.9700    9.0420   14.8420 C.ar  127  PHE127     -0.0000
     75  N        -11.8180    3.8950   21.1830 N.3   139  VAL139     -0.1245
     76  CA       -11.8670    2.8780   20.1370 C.3   139  VAL139      0.1561
     77  C        -12.8020    1.7880   20.6010 C.2   139  VAL139      0.2260
     78  O        -12.6590    1.2630   21.7130 O.2   139  VAL139     -0.2867
     79  CB       -10.4580    2.3540   19.7650 C.3   139  VAL139      0.0252
     80  CG1      -10.5370    1.3220   18.6310 C.3   139  VAL139      0.0019
     81  CG2       -9.5660    3.5200   19.3520 C.3   139  VAL139      0.0019
     82  N         -2.9010    3.2790   21.1790 N.3   194  LEU194     -0.1231
     83  CA        -2.9330    2.7170   19.8200 C.3   194  LEU194      0.1693
     84  C         -2.1680    1.4090   19.8590 C.2   194  LEU194      0.2593
     85  O         -1.1730    1.2400   20.6010 O.2   194  LEU194     -0.2718
     86  CB        -2.2470    3.6580   18.8140 C.3   194  LEU194      0.0284
     87  CG        -2.6380    5.1370   18.8420 C.3   194  LEU194      0.0019
     88  CD1       -1.7660    5.8970   17.8440 C.3   194  LEU194      0.0001
     89  CD2       -4.1180    5.3770   18.5540 C.3   194  LEU194      0.0001
     90  N         -2.6280    0.4530   19.0670 N.am  195  THR195     -0.1939
     91  CA        -1.9110   -0.8340   19.0190 C.3   195  THR195      0.2028
     92  C         -0.9300   -0.9420   17.8430 C.2   195  THR195      0.2643
     93  O         -0.3410   -1.9950   17.6760 O.2   195  THR195     -0.2714
     94  CB        -2.8740   -2.0290   18.9640 C.3   195  THR195      0.1808
     95  OG1       -3.4890   -2.0350   17.6620 O.3   195  THR195     -0.2208
     96  CG2       -3.9580   -1.9580   20.0690 C.3   195  THR195      0.0379
     97  N         -0.8240    0.1100   17.0260 N.am  196  THR196     -0.1937
     98  CA         0.2510    0.2600   16.0300 C.3   196  THR196      0.2013
     99  C          1.1110    1.4850   16.3560 C.2   196  THR196      0.2484
    100  O          0.6230    2.4740   16.9500 O.2   196  THR196     -0.2729
    101  CB        -0.3090    0.4710   14.5990 C.3   196  THR196      0.1807
    102  OG1       -1.2850    1.5300   14.5930 O.3   196  THR196     -0.2208
    103  CG2       -0.9760   -0.7980   14.0830 C.3   196  THR196      0.0379
    104  N          2.3860    1.4520   15.9220 N.am  197  PRO197     -0.2715
    105  CA         3.1640    2.6970   15.9680 C.3   197  PRO197      0.1521
    106  C          2.3140    3.8890   15.4410 C.2   197  PRO197      0.2440
    107  O          1.6170    3.7700   14.3990 O.2   197  PRO197     -0.2731
    108  CB         4.3620    2.3600   15.0730 C.3   197  PRO197      0.0310
    109  CG         4.5650    0.8890   15.3120 C.3   197  PRO197      0.0237
    110  CD         3.1490    0.3250   15.3230 C.3   197  PRO197      0.0939
    111  N          2.3560    5.0330   16.1340 N.am  198  PRO198     -0.2727
    112  CA         3.2380    5.4290   17.2350 C.3   198  PRO198      0.1402
    113  C          2.9140    4.9820   18.6960 C.2   198  PRO198      0.2269
    114  O          3.5680    5.4450   19.6480 O.2   198  PRO198     -0.2865
    115  CB         3.2550    6.9570   17.1090 C.3   198  PRO198      0.0296
    116  CG         1.9080    7.2840   16.5950 C.3   198  PRO198      0.0237
    117  CD         1.6070    6.1940   15.6000 C.3   198  PRO198      0.0939
    118  N         -5.9790    6.4060   24.3100 N.3   203  VAL203     -0.1245
    119  CA        -7.1870    5.6440   23.9200 C.3   203  VAL203      0.1561
    120  C         -7.9790    5.1550   25.1130 C.2   203  VAL203      0.2260
    121  O         -7.4340    4.5250   26.0230 O.2   203  VAL203     -0.2867
    122  CB        -6.8830    4.3960   23.0240 C.3   203  VAL203      0.0252
    123  CG1       -8.1820    3.6530   22.6620 C.3   203  VAL203      0.0019
    124  CG2       -6.1570    4.7840   21.7380 C.3   203  VAL203      0.0019
    125  N        -10.3260    2.4180   25.6300 N.3   205  TRP205     -0.1241
    126  CA       -10.7890    1.2030   24.9440 C.3   205  TRP205      0.1605
    127  C        -12.1480    0.7740   25.4580 C.2   205  TRP205      0.2264
    128  O        -12.3730    0.6990   26.6820 O.2   205  TRP205     -0.2867
    129  CB        -9.7640    0.0600   25.1480 C.3   205  TRP205      0.0550
    130  CG        -8.6490    0.1730   24.1390 C.ar  205  TRP205      0.0003
    131  CD1       -7.3980    0.7750   24.2780 C.ar  205  TRP205      0.0946
    132  CD2       -8.7280   -0.2370   22.7600 C.ar  205  TRP205      0.0152
    133  NE1       -6.7280    0.7350   23.1040 N.ar  205  TRP205     -0.2442
    134  CE2       -7.4630    0.1320   22.1440 C.ar  205  TRP205      0.0810
    135  CE3       -9.7070   -0.8590   21.9930 C.ar  205  TRP205      0.0012
    136  CZ2       -7.1920   -0.1220   20.8050 C.ar  205  TRP205      0.0191
    137  CZ3       -9.4350   -1.1280   20.6640 C.ar  205  TRP205      0.0001
    138  CH2       -8.1970   -0.7880   20.0760 C.ar  205  TRP205      0.0015
@<TRIPOS>BOND
     1    14    13    2
     2    13    12    1
     3    11    12    1
     4    16    17    1
     5    16    15    1
     6    19    17   am
     7     1     2    1
     8    12    15    1
     9    17    18    2
    10     2     3    1
    11     2     5    1
    12     3     4    2
    13     7     9   ar
    14     7     6   ar
    15     9    10   ar
    16     5     6    1
    17     6     8   ar
    18    10     8   ar
    19    23    22    2
    20    32    29    1
    21    32    33    1
    22    38    41    1
    23    38    37    1
    24    38    39    1
    25    41    42    1
    26    36    34   am
    27    29    30    1
    28    29    28    1
    29    22    28   am
    30    22    21    1
    31    34    33    1
    32    34    35    2
    33    39    40    2
    34    25    27    1
    35    25    24    1
    36    30    31    2
    37    42    43   ar
    38    42    44   ar
    39    21    24    1
    40    21    20    1
    41    24    26    1
    42    43    45   ar
    43    44    46   ar
    44    45    46   ar
    45    50    49    2
    46    71    73   ar
    47    71    69   ar
    48    68    69    1
    49    68    65    1
    50   103   101    1
    51    73    74   ar
    52    69    70   ar
    53   107   106    2
    54   102   101    1
    55   101    98    1
    56    64    65    1
    57    74    72   ar
    58    47    48    1
    59    60    59    2
    60    49    48    1
    61    70    72   ar
    62   108   109    1
    63   108   105    1
    64    63    61    1
    65    65    66    1
    66    61    62    1
    67    61    58    1
    68    57    58    1
    69   109   110    1
    70   110   104    1
    71   106   105    1
    72   106   111   am
    73   117   111    1
    74   117   116    1
    75    48    51    1
    76    66    67    2
    77    51    52    1
    78   104   105    1
    79   104    99   am
    80    58    59    1
    81    98    99    1
    82    98    97    1
    83   111   112    1
    84    99   100    2
    85    53    52   ar
    86    53    55   ar
    87   116   115    1
    88    52    54   ar
    89    97    92   am
    90   115   112    1
    91   112   113    1
    92    55    56   ar
    93    54    56   ar
    94    95    94    1
    95    93    92    2
    96    92    91    1
    97    88    87    1
    98    89    87    1
    99    80    79    1
   100   113   114    2
   101    86    87    1
   102    86    83    1
   103    94    91    1
   104    94    96    1
   105    91    90    1
   106    90    84   am
   107    81    79    1
   108    79    76    1
   109    83    84    1
   110    83    82    1
   111    84    85    2
   112   138   137   ar
   113   138   136   ar
   114    76    77    1
   115    76    75    1
   116    77    78    2
   117   137   135   ar
   118   136   134   ar
   119   124   122    1
   120   135   132   ar
   121   134   132   ar
   122   134   133   ar
   123   123   122    1
   124   132   130   ar
   125   122   119    1
   126   133   131   ar
   127   119   118    1
   128   119   120    1
   129   130   131   ar
   130   130   129    1
   131   126   129    1
   132   126   127    1
   133   126   125    1
   134   120   121    2
   135   127   128    2
