@<TRIPOS>MOLECULE
tmp/4bd1A00.pdb
 78 72 0 0 0
SMALL
GASTEIGER

@<TRIPOS>ATOM
      1  N        -38.3240   16.1590    6.1130 N.3    43  SER43      -0.1217
      2  CA       -38.2640   17.6140    6.1860 C.3    43  SER43       0.1889
      3  C        -37.0420   18.2230    5.4510 C.2    43  SER43       0.2288
      4  O        -36.9630   19.4170    5.3090 O.2    43  SER43      -0.2866
      5  CB       -38.2600   18.1110    7.6610 C.3    43  SER43       0.2089
      6  OG       -39.5660   18.0080    8.2670 O.3    43  SER43      -0.2183
      7  N        -37.7700   20.6010    2.4850 N.3    46  LYS46      -0.1245
      8  CA       -38.1880   21.9790    2.7090 C.3    46  LYS46       0.1561
      9  C        -37.1840   22.9850    2.0940 C.2    46  LYS46       0.2260
     10  O        -37.5680   24.0630    1.6660 O.2    46  LYS46      -0.2867
     11  CB       -38.4020   22.2280    4.2170 C.3    46  LYS46       0.0271
     12  CG       -39.6840   21.4610    4.7560 C.3    46  LYS46       0.0035
     13  CD       -39.8020   21.5050    6.2550 C.3    46  LYS46       0.0206
     14  CE       -41.1220   20.7810    6.6690 C.3    46  LYS46       0.1093
     15  NZ       -41.1430   20.3690    8.0860 N.3    46  LYS46      -0.1314
     16  N        -50.0710   19.4680   11.2380 N.3    77  ASN77      -0.1225
     17  CA       -49.5520   18.8800   12.4300 C.3    77  ASN77       0.1785
     18  C        -48.2620   19.6900   12.5380 C.2    77  ASN77       0.2597
     19  O        -47.7070   20.1280   11.5460 O.2    77  ASN77      -0.2718
     20  CB       -49.4040   17.3690   12.3460 C.3    77  ASN77       0.1169
     21  CG       -48.3810   16.9450   11.3620 C.2    77  ASN77       0.2627
     22  OD1      -48.2920   17.5030   10.2570 O.2    77  ASN77      -0.2716
     23  ND2      -47.6690   15.8880   11.6850 N.am   77  ASN77      -0.0877
     24  N        -47.8650   19.9810   13.7430 N.am   78  TYR78      -0.1976
     25  CA       -46.6490   20.7140   14.0620 C.3    78  TYR78       0.1639
     26  C        -46.3870   22.0160   13.2470 C.2    78  TYR78       0.2290
     27  O        -45.8250   22.0270   12.1400 O.2    78  TYR78      -0.2864
     28  CB       -45.4790   19.7670   13.8770 C.3    78  TYR78       0.0560
     29  CG       -44.1880   20.3590   14.3400 C.ar   78  TYR78      -0.0198
     30  CD1      -43.9510   20.4620   15.7070 C.ar   78  TYR78      -0.0009
     31  CD2      -43.2110   20.8200   13.4560 C.ar   78  TYR78      -0.0009
     32  CE1      -42.7870   21.0080   16.1930 C.ar   78  TYR78       0.0417
     33  CE2      -42.0320   21.3770   13.9380 C.ar   78  TYR78       0.0417
     34  CZ       -41.8300   21.4650   15.3100 C.ar   78  TYR78       0.1957
     35  OH       -40.6700   21.9960   15.8460 O.3    78  TYR78      -0.2866
     36  N        -38.6810   24.0860   10.8300 N.3   103  SER103     -0.1217
     37  CA       -39.3090   22.9190   10.2360 C.3   103  SER103      0.1889
     38  C        -40.8250   22.9560   10.3610 C.2   103  SER103      0.2288
     39  O        -41.4670   21.9090   10.5120 O.2   103  SER103     -0.2866
     40  CB       -38.7490   21.6310   10.8780 C.3   103  SER103      0.2089
     41  OG       -38.8000   20.5540    9.9560 O.3   103  SER103     -0.2183
     42  N        -44.5390   22.7960    9.5010 N.3   105  ASN105     -0.1240
     43  CA       -45.2270   22.0700    8.4250 C.3   105  ASN105      0.1653
     44  C        -46.2670   22.9130    7.6830 C.2   105  ASN105      0.2266
     45  O        -46.4370   22.7430    6.4760 O.2   105  ASN105     -0.2867
     46  CB       -45.8620   20.7480    8.9000 C.3   105  ASN105      0.1155
     47  CG       -44.8290   19.6490    9.0800 C.2   105  ASN105      0.2627
     48  OD1      -43.6850   19.7850    8.6160 O.2   105  ASN105     -0.2716
     49  ND2      -45.2520   18.5080    9.6280 N.am  105  ASN105     -0.0877
     50  N        -48.7620   16.3990    6.1170 N.3   140  PRO140     -0.2168
     51  CA       -47.6290   15.6600    6.6770 C.3   140  PRO140      0.1057
     52  C        -47.3600   14.2970    6.0190 C.3   140  PRO140      0.1993
     53  O        -46.4970   13.6190    6.5670 O.3   140  PRO140     -0.2189
     54  CB       -48.0840   15.4370    8.1290 C.3   140  PRO140      0.0215
     55  CG       -49.5490   15.1700    7.9950 C.3   140  PRO140      0.0203
     56  CD       -50.0180   16.0560    6.8370 C.3   140  PRO140      0.0888
     57  N        -43.9360   12.3400    4.7250 N.3   143  ASN143     -0.1240
     58  CA       -43.0760   11.6690    5.7090 C.3   143  ASN143      0.1653
     59  C        -43.2980   10.1930    5.9960 C.2   143  ASN143      0.2266
     60  O        -42.7610    9.7150    6.9750 O.2   143  ASN143     -0.2867
     61  CB       -43.1070   12.3860    7.0500 C.3   143  ASN143      0.1155
     62  CG       -42.8260   13.8490    6.9280 C.2   143  ASN143      0.2627
     63  OD1      -41.6930   14.2590    6.6280 O.2   143  ASN143     -0.2716
     64  ND2      -43.8600   14.6590    7.1130 N.am  143  ASN143     -0.0877
     65  N        -34.3790   16.3290    9.1300 N.3   209  GLY209     -0.1210
     66  CA       -35.6700   15.7540    8.7620 C.3   209  GLY209      0.1956
     67  C        -35.8820   14.4540    9.4980 C.2   209  GLY209      0.2613
     68  O        -34.9800   13.6440    9.6580 O.2   209  GLY209     -0.2717
     69  N        -37.1110   14.2140    9.8960 N.am  210  SER210     -0.1938
     70  CA       -37.4420   12.9530   10.5160 C.3   210  SER210      0.2055
     71  C        -38.7940   12.4700   10.0490 C.2   210  SER210      0.2643
     72  O        -39.6620   13.2800    9.7870 O.2   210  SER210     -0.2714
     73  CB       -37.4010   13.0740   12.0440 C.3   210  SER210      0.2130
     74  OG       -38.3320   14.0240   12.4930 O.3   210  SER210     -0.2179
     75  N        -39.0010   11.1550   10.0280 N.am  211  GLY211     -0.1954
     76  CA       -40.2690   10.6400    9.5500 C.3   211  GLY211      0.1869
     77  C        -40.5300    9.2550   10.1060 C.2   211  GLY211      0.2309
     78  O        -39.8050    8.8070   11.0030 O.2   211  GLY211     -0.2863
@<TRIPOS>BOND
     1    10     9    2
     2     9     8    1
     3     7     8    1
     4     8    11    1
     5    11    12    1
     6    57    58    1
     7    12    13    1
     8     4     3    2
     9     3     2    1
    10    58    59    1
    11    58    61    1
    12    59    60    2
    13    52    53    1
    14    52    51    1
    15     1     2    1
    16    50    51    1
    17    50    56    1
    18     2     5    1
    19    13    14    1
    20    45    44    2
    21    63    62    2
    22    14    15    1
    23    51    54    1
    24    56    55    1
    25    62    61    1
    26    62    64   am
    27     5     6    1
    28    44    43    1
    29    55    54    1
    30    43    46    1
    31    43    42    1
    32    48    47    2
    33    66    65    1
    34    66    67    1
    35    46    47    1
    36    47    49   am
    37    67    68    2
    38    67    69   am
    39    76    75    1
    40    76    77    1
    41    72    71    2
    42    69    70    1
    43    41    40    1
    44    75    71   am
    45    71    70    1
    46    77    78    2
    47    37    38    1
    48    37    36    1
    49    37    40    1
    50    22    21    2
    51    38    39    2
    52    70    73    1
    53    16    17    1
    54    21    23   am
    55    21    20    1
    56    19    18    2
    57    73    74    1
    58    27    26    2
    59    20    17    1
    60    17    18    1
    61    18    24   am
    62    26    25    1
    63    31    33   ar
    64    31    29   ar
    65    24    25    1
    66    28    25    1
    67    28    29    1
    68    33    34   ar
    69    29    30   ar
    70    34    35    1
    71    34    32   ar
    72    30    32   ar
