@<TRIPOS>MOLECULE
tmp/4bdaA00.pdb
 110 101 0 0 0
SMALL
GASTEIGER

@<TRIPOS>ATOM
      1  N        -44.7380   32.4540    7.9900 N.3    18  LEU18      -0.1231
      2  CA       -43.7050   31.8200    7.1690 C.3    18  LEU18       0.1693
      3  C        -43.0680   30.6570    7.9340 C.2    18  LEU18       0.2592
      4  O        -42.7730   29.6150    7.3500 O.2    18  LEU18      -0.2718
      5  CB       -42.6400   32.8410    6.7270 C.3    18  LEU18       0.0284
      6  CG       -43.1070   34.0510    5.9150 C.3    18  LEU18       0.0019
      7  CD1      -42.0950   35.1550    5.9830 C.3    18  LEU18       0.0001
      8  CD2      -43.3990   33.6890    4.4750 C.3    18  LEU18       0.0001
      9  N        -42.8850   30.8510    9.2340 N.am   19  GLY19      -0.1957
     10  CA       -42.3310   29.8740   10.1660 C.3    19  GLY19       0.1869
     11  C        -42.9710   30.0290   11.5310 C.2    19  GLY19       0.2309
     12  O        -43.1180   31.1540   12.0240 O.2    19  GLY19      -0.2863
     13  N        -42.4260   33.6740   12.6910 N.3    22  VAL22      -0.1245
     14  CA       -42.0340   34.5480   11.5680 C.3    22  VAL22       0.1561
     15  C        -43.1980   34.7770   10.5980 C.2    22  VAL22       0.2260
     16  O        -43.7140   33.8300    9.9980 O.2    22  VAL22      -0.2867
     17  CB       -40.7350   34.0670   10.8340 C.3    22  VAL22       0.0252
     18  CG1      -40.4110   34.9330    9.6200 C.3    22  VAL22       0.0019
     19  CG2      -39.5430   34.0490   11.7790 C.3    22  VAL22       0.0019
     20  N        -39.7150   40.2570    6.3020 N.3    35  ALA35      -0.1245
     21  CA       -40.0280   39.1640    7.2250 C.3    35  ALA35       0.1562
     22  C        -40.0730   39.7320    8.6430 C.2    35  ALA35       0.2260
     23  O        -39.1940   40.5210    9.0060 O.2    35  ALA35      -0.2867
     24  CB       -38.9890   38.0620    7.1270 C.3    35  ALA35       0.0290
     25  N        -28.0010   37.5150    7.7430 N.3    59  ILE59      -0.1245
     26  CA       -29.2570   38.2850    7.7680 C.3    59  ILE59       0.1561
     27  C        -29.1110   39.7080    8.3400 C.2    59  ILE59       0.2260
     28  O        -28.3670   39.9380    9.3020 O.2    59  ILE59      -0.2867
     29  CB       -30.4130   37.4860    8.4480 C.3    59  ILE59       0.0252
     30  CG1      -31.7960   37.9510    7.9800 C.3    59  ILE59       0.0019
     31  CG2      -30.3030   37.4580    9.9780 C.3    59  ILE59       0.0019
     32  CD1      -32.2660   37.3060    6.8080 C.3    59  ILE59       0.0001
     33  N        -36.8220   41.8150    9.4450 N.3    74  LEU74      -0.1231
     34  CA       -35.6680   41.3000    8.7190 C.3    74  LEU74       0.1693
     35  C        -35.9340   41.2250    7.2370 C.2    74  LEU74       0.2592
     36  O        -37.0890   41.3230    6.8080 O.2    74  LEU74      -0.2718
     37  CB       -35.3540   39.8730    9.2050 C.3    74  LEU74       0.0284
     38  CG       -35.1370   39.6320   10.6830 C.3    74  LEU74       0.0019
     39  CD1      -35.4940   38.1960   11.0200 C.3    74  LEU74       0.0001
     40  CD2      -33.6920   40.0060   11.1150 C.3    74  LEU74       0.0001
     41  N        -34.8670   40.9760    6.4570 N.am   75  GLU75      -0.1966
     42  CA       -34.9500   40.7540    5.0160 C.3    75  GLU75       0.1733
     43  C        -35.7230   39.4430    4.7810 C.2    75  GLU75       0.2616
     44  O        -35.5060   38.4460    5.4910 O.2    75  GLU75      -0.2715
     45  CB       -33.5490   40.5510    4.4280 C.3    75  GLU75       0.0429
     46  CG       -32.5500   41.6740    4.6530 C.3    75  GLU75       0.1163
     47  CD       -31.1660   41.3380    4.1300 C.2    75  GLU75       0.3649
     48  OE1      -30.5190   40.4260    4.6990 O.co2  75  GLU75      -0.2457
     49  OE2      -30.7300   41.9850    3.1470 O.co2  75  GLU75      -0.2457
     50  N        -36.6160   39.4400    3.7930 N.am   76  LEU76      -0.1963
     51  CA       -37.3600   38.2430    3.4610 C.3    76  LEU76       0.1728
     52  C        -36.4780   37.3030    2.6650 C.2    76  LEU76       0.2616
     53  O        -35.8290   37.7300    1.7030 O.2    76  LEU76      -0.2715
     54  CB       -38.6230   38.5740    2.6540 C.3    76  LEU76       0.0311
     55  CG       -39.4530   37.3590    2.2280 C.3    76  LEU76       0.0022
     56  CD1      -40.0220   36.6180    3.4350 C.3    76  LEU76       0.0001
     57  CD2      -40.5240   37.7290    1.2520 C.3    76  LEU76       0.0001
     58  N        -36.4740   36.0120    3.0600 N.am   77  MET77      -0.1963
     59  CA       -35.7420   34.9390    2.3760 C.3    77  MET77       0.1736
     60  C        -36.7850   34.0230    1.7830 C.2    77  MET77       0.2616
     61  O        -37.3610   33.1830    2.4870 O.2    77  MET77      -0.2715
     62  CB       -34.7670   34.2090    3.3120 C.3    77  MET77       0.0427
     63  CG       -33.6150   35.0770    3.7480 C.3    77  MET77       0.0599
     64  SD       -32.5840   35.6650    2.3790 S.3    77  MET77      -0.1393
     65  CE       -31.4250   34.3420    2.2710 C.3    77  MET77       0.0692
     66  N        -37.0960   34.2590    0.5030 N.am   78  GLU78      -0.1977
     67  CA       -38.1310   33.5450   -0.2350 C.3    78  GLU78       0.1602
     68  C        -37.9910   32.0330   -0.2850 C.2    78  GLU78       0.2287
     69  O        -39.0020   31.3380   -0.2180 O.2    78  GLU78      -0.2864
     70  CB       -38.3020   34.1380   -1.6320 C.3    78  GLU78       0.0415
     71  CG       -39.3660   35.2230   -1.6940 C.3    78  GLU78       0.1163
     72  CD       -39.0780   36.3420   -2.6760 C.2    78  GLU78       0.3649
     73  OE1      -39.1200   36.0870   -3.9020 O.co2  78  GLU78      -0.2457
     74  OE2      -38.8090   37.4760   -2.2140 O.co2  78  GLU78      -0.2457
     75  N        -36.9240   30.0650    1.9750 N.3    80  GLY80      -0.1210
     76  CA       -37.2380   29.4910    3.2770 C.3    80  GLY80       0.1956
     77  C        -36.0380   28.8750    3.9680 C.2    80  GLY80       0.2611
     78  O        -34.8920   29.2540    3.6990 O.2    80  GLY80      -0.2717
     79  N        -36.2980   27.9180    4.8680 N.am   81  GLU81      -0.1979
     80  CA       -35.2450   27.2540    5.6350 C.3    81  GLU81       0.1602
     81  C        -34.6080   26.1090    4.8630 C.2    81  GLU81       0.2287
     82  O        -35.3100   25.3710    4.1560 O.2    81  GLU81      -0.2864
     83  CB       -35.8030   26.6920    6.9450 C.3    81  GLU81       0.0415
     84  CG       -36.3800   27.7100    7.9060 C.3    81  GLU81       0.1163
     85  CD       -37.0760   27.0480    9.0770 C.2    81  GLU81       0.3649
     86  OE1      -37.1130   25.7940    9.1370 O.co2  81  GLU81      -0.2457
     87  OE2      -37.5750   27.7930    9.9500 O.co2  81  GLU81      -0.2457
     88  N        -36.0790   22.4070    5.3020 N.3    84  ASP84      -0.1239
     89  CA       -37.1170   21.9350    4.3840 C.3    84  ASP84       0.1674
     90  C        -36.5610   21.1660    3.1860 C.2    84  ASP84       0.2266
     91  O        -37.2610   20.2950    2.6650 O.2    84  ASP84      -0.2867
     92  CB       -38.0470   23.0890    3.9480 C.3    84  ASP84       0.1410
     93  CG       -38.8870   23.7320    5.0600 C.2    84  ASP84       0.3668
     94  OD1      -39.1210   23.0680    6.1010 O.co2  84  ASP84      -0.2456
     95  OD2      -39.3470   24.8760    4.8680 O.co2  84  ASP84      -0.2456
     96  N        -31.0550   30.1410    5.8140 N.3   127  LEU127     -0.1245
     97  CA       -32.1460   30.5190    4.9260 C.3   127  LEU127      0.1561
     98  C        -31.6640   30.6790    3.5170 C.2   127  LEU127      0.2260
     99  O        -30.5680   31.1940    3.2840 O.2   127  LEU127     -0.2867
    100  CB       -32.8530   31.8040    5.3770 C.3   127  LEU127      0.0270
    101  CG       -33.3530   31.9160    6.8060 C.3   127  LEU127      0.0019
    102  CD1      -33.6020   33.3430    7.1430 C.3   127  LEU127      0.0001
    103  CD2      -34.6300   31.1270    7.0310 C.3   127  LEU127      0.0001
    104  N        -29.1790   33.0260   10.1850 N.3   140  THR140     -0.1218
    105  CA       -30.1140   33.7490   11.0360 C.3   140  THR140      0.1862
    106  C        -30.0830   33.1910   12.4700 C.2   140  THR140      0.2287
    107  O        -29.2850   32.3020   12.7580 O.2   140  THR140     -0.2866
    108  CB       -31.5070   33.7620   10.3520 C.3   140  THR140      0.1770
    109  OG1      -32.2990   34.8190   10.9100 O.3   140  THR140     -0.2211
    110  CG2      -32.2420   32.4070   10.4410 C.3   140  THR140      0.0375
@<TRIPOS>BOND
     1    73    72   ar
     2    72    74   ar
     3    72    71    1
     4    71    70    1
     5    70    67    1
     6    68    67    1
     7    68    69    2
     8    67    66    1
     9    66    60   am
    10    57    55    1
    11    53    52    2
    12    60    59    1
    13    60    61    2
    14    75    76    1
    15    55    54    1
    16    55    56    1
    17    65    64    1
    18    59    58    1
    19    59    62    1
    20    64    63    1
    21    54    51    1
    22    52    58   am
    23    52    51    1
    24    91    90    2
    25    49    47   ar
    26    90    89    1
    27    76    77    1
    28    99    98    2
    29    62    63    1
    30    51    50    1
    31    98    97    1
    32    78    77    2
    33    50    43   am
    34    92    89    1
    35    92    93    1
    36    77    79   am
    37    47    46    1
    38    47    48   ar
    39    82    81    2
    40    89    88    1
    41    45    46    1
    42    45    42    1
    43     8     6    1
    44    43    42    1
    45    43    44    2
    46    81    80    1
    47    95    93   ar
    48    79    80    1
    49    97   100    1
    50    97    96    1
    51    42    41    1
    52    93    94   ar
    53   100   101    1
    54    80    83    1
    55     6     7    1
    56     6     5    1
    57    20    21    1
    58    41    35   am
    59     5     2    1
    60   101   103    1
    61   101   102    1
    62    36    35    2
    63    32    30    1
    64    83    84    1
    65    24    21    1
    66     2     3    1
    67     2     1    1
    68    21    22    1
    69    35    34    1
    70     4     3    2
    71    25    26    1
    72    26    27    1
    73    26    29    1
    74    84    85    1
    75     3     9   am
    76    30    29    1
    77    27    28    2
    78    29    31    1
    79    22    23    2
    80    34    37    1
    81    34    33    1
    82    85    86   ar
    83    85    87   ar
    84    37    38    1
    85     9    10    1
    86    18    17    1
    87    16    15    2
    88    10    11    1
    89   104   105    1
    90   108   110    1
    91   108   109    1
    92   108   105    1
    93    15    14    1
    94    38    39    1
    95    38    40    1
    96    17    14    1
    97    17    19    1
    98   105   106    1
    99    11    12    2
   100    14    13    1
   101   106   107    2
