@<TRIPOS>MOLECULE
tmp/4bdbA00.pdb
 98 89 0 0 0
SMALL
GASTEIGER

@<TRIPOS>ATOM
      1  N        -44.8080   32.7520    8.0720 N.3    18  LEU18      -0.1245
      2  CA       -43.5470   32.3690    7.4120 C.3    18  LEU18       0.1561
      3  C        -43.4460   32.8140    5.9510 C.2    18  LEU18       0.2260
      4  O        -42.9410   33.9020    5.6670 O.2    18  LEU18      -0.2867
      5  CB       -43.2490   30.8690    7.5700 C.3    18  LEU18       0.0270
      6  CG       -42.8550   30.3980    8.9700 C.3    18  LEU18       0.0019
      7  CD1      -42.7460   28.8910    8.9590 C.3    18  LEU18       0.0001
      8  CD2      -41.5410   30.9860    9.4150 C.3    18  LEU18       0.0001
      9  N        -42.6070   33.6940   12.6750 N.3    20  VAL20      -0.1245
     10  CA       -42.3280   34.5730   11.5290 C.3    20  VAL20       0.1561
     11  C        -43.5810   34.7980   10.6580 C.2    20  VAL20       0.2260
     12  O        -44.2830   33.8430   10.3330 O.2    20  VAL20      -0.2867
     13  CB       -41.0980   34.0860   10.6980 C.3    20  VAL20       0.0252
     14  CG1      -40.8750   34.9440    9.4500 C.3    20  VAL20       0.0019
     15  CG2      -39.8290   34.0540   11.5490 C.3    20  VAL20       0.0019
     16  N        -40.1310   40.1190    6.3050 N.3    33  ALA33      -0.1245
     17  CA       -40.4670   39.0340    7.2310 C.3    33  ALA33       0.1562
     18  C        -40.4470   39.6120    8.6480 C.2    33  ALA33       0.2260
     19  O        -39.5140   40.3440    8.9940 O.2    33  ALA33      -0.2867
     20  CB       -39.4720   37.8910    7.1090 C.3    33  ALA33       0.0290
     21  N        -40.3480   38.6860   12.6260 N.3    35  LYS35      -0.1245
     22  CA       -40.0950   37.7140   13.6970 C.3    35  LYS35       0.1561
     23  C        -40.6880   38.1990   15.0340 C.2    35  LYS35       0.2260
     24  O        -40.2830   39.2370   15.5700 O.2    35  LYS35      -0.2867
     25  CB       -38.5900   37.3970   13.8370 C.3    35  LYS35       0.0271
     26  CG       -38.3570   36.0330   14.4600 C.3    35  LYS35       0.0035
     27  CD       -36.9290   35.5640   14.3430 C.3    35  LYS35       0.0206
     28  CE       -36.0820   36.1130   15.4610 C.3    35  LYS35       0.1093
     29  NZ       -34.7190   35.4850   15.4930 N.3    35  LYS35      -0.1314
     30  N        -28.1650   37.2970    7.7500 N.3    58  ILE58      -0.1245
     31  CA       -29.4300   38.0500    7.7690 C.3    58  ILE58       0.1561
     32  C        -29.2920   39.4830    8.3290 C.2    58  ILE58       0.2260
     33  O        -28.5400   39.7140    9.2740 O.2    58  ILE58      -0.2867
     34  CB       -30.5760   37.2460    8.4640 C.3    58  ILE58       0.0252
     35  CG1      -31.9470   37.5170    7.7990 C.3    58  ILE58       0.0019
     36  CG2      -30.6160   37.4480    9.9960 C.3    58  ILE58       0.0019
     37  CD1      -32.1870   36.7140    6.5460 C.3    58  ILE58       0.0001
     38  N        -37.1150   41.6870    9.3250 N.3    73  LEU73      -0.1231
     39  CA       -35.9670   41.1440    8.6180 C.3    73  LEU73       0.1693
     40  C        -36.2260   41.0480    7.1320 C.2    73  LEU73       0.2592
     41  O        -37.3810   41.1370    6.6890 O.2    73  LEU73      -0.2718
     42  CB       -35.6450   39.7310    9.1570 C.3    73  LEU73       0.0284
     43  CG       -35.3480   39.5850   10.6470 C.3    73  LEU73       0.0019
     44  CD1      -35.9370   38.2960   11.1900 C.3    73  LEU73       0.0001
     45  CD2      -33.8560   39.7180   10.9400 C.3    73  LEU73       0.0001
     46  N        -35.1450   40.8210    6.3570 N.am   74  GLU74      -0.1966
     47  CA       -35.2660   40.6100    4.9210 C.3    74  GLU74       0.1733
     48  C        -35.9640   39.2820    4.6560 C.2    74  GLU74       0.2616
     49  O        -35.7250   38.3160    5.3760 O.2    74  GLU74      -0.2715
     50  CB       -33.9200   40.7560    4.1770 C.3    74  GLU74       0.0429
     51  CG       -32.7420   39.9090    4.6440 C.3    74  GLU74       0.1163
     52  CD       -31.3630   40.5040    4.3870 C.2    74  GLU74       0.3649
     53  OE1      -31.2570   41.4610    3.5850 O.co2  74  GLU74      -0.2457
     54  OE2      -30.3880   40.0280    5.0130 O.co2  74  GLU74      -0.2457
     55  N        -36.9120   39.2740    3.7130 N.am   75  LEU75      -0.1963
     56  CA       -37.6740   38.0810    3.3670 C.3    75  LEU75       0.1728
     57  C        -36.8480   37.1350    2.4980 C.2    75  LEU75       0.2616
     58  O        -36.2110   37.5510    1.5290 O.2    75  LEU75      -0.2715
     59  CB       -39.0100   38.4380    2.6900 C.3    75  LEU75       0.0311
     60  CG       -39.9210   37.2540    2.3070 C.3    75  LEU75       0.0022
     61  CD1      -40.7820   36.8000    3.4730 C.3    75  LEU75       0.0001
     62  CD2      -40.7950   37.5960    1.1280 C.3    75  LEU75       0.0001
     63  N        -36.8540   35.8650    2.8800 N.am   76  MET76      -0.1977
     64  CA       -36.1430   34.7920    2.2000 C.3    76  MET76       0.1605
     65  C        -37.2090   33.9130    1.6140 C.2    76  MET76       0.2287
     66  O        -37.8840   33.1730    2.3320 O.2    76  MET76      -0.2864
     67  CB       -35.1970   34.0300    3.1660 C.3    76  MET76       0.0413
     68  CG       -34.0970   34.9010    3.7340 C.3    76  MET76       0.0598
     69  SD       -32.9610   35.5330    2.4750 S.3    76  MET76      -0.1393
     70  CE       -31.8420   34.1890    2.3890 C.3    76  MET76       0.0692
     71  N        -37.1520   29.8600    1.9840 N.3    79  GLY79      -0.1210
     72  CA       -37.4180   29.2510    3.2820 C.3    79  GLY79       0.1956
     73  C        -36.1730   28.6900    3.9450 C.2    79  GLY79       0.2611
     74  O        -35.0510   29.1130    3.6450 O.2    79  GLY79      -0.2717
     75  N        -36.3750   27.7170    4.8430 N.am   80  GLU80      -0.1979
     76  CA       -35.3270   27.0530    5.6120 C.3    80  GLU80       0.1602
     77  C        -34.6610   25.9250    4.8350 C.2    80  GLU80       0.2287
     78  O        -35.3500   25.1700    4.1370 O.2    80  GLU80      -0.2864
     79  CB       -35.9200   26.4470    6.8920 C.3    80  GLU80       0.0415
     80  CG       -36.4050   27.4500    7.9170 C.3    80  GLU80       0.1163
     81  CD       -37.1320   26.8370    9.0960 C.2    80  GLU80       0.3649
     82  OE1      -37.0580   25.6000    9.2880 O.co2  80  GLU80      -0.2457
     83  OE2      -37.7670   27.6100    9.8480 O.co2  80  GLU80      -0.2457
     84  N        -31.2590   29.9820    5.8010 N.3   126  LEU126     -0.1245
     85  CA       -32.3370   30.4150    4.9160 C.3   126  LEU126      0.1561
     86  C        -31.8650   30.5480    3.5030 C.2   126  LEU126      0.2260
     87  O        -30.7310   30.9820    3.2740 O.2   126  LEU126     -0.2867
     88  CB       -32.9250   31.7480    5.3840 C.3   126  LEU126      0.0270
     89  CG       -33.4120   31.8310    6.8170 C.3   126  LEU126      0.0019
     90  CD1      -33.6840   33.2730    7.1990 C.3   126  LEU126      0.0001
     91  CD2      -34.6220   30.9710    7.0420 C.3   126  LEU126      0.0001
     92  N        -29.2010   32.7780   10.1970 N.3   139  THR139     -0.1218
     93  CA       -30.1660   33.4740   11.0550 C.3   139  THR139      0.1862
     94  C        -30.1560   32.8970   12.4820 C.2   139  THR139      0.2287
     95  O        -29.4420   31.9160   12.7360 O.2   139  THR139     -0.2866
     96  CB       -31.5700   33.4380   10.3820 C.3   139  THR139      0.1770
     97  OG1      -32.3750   34.4600   10.9570 O.3   139  THR139     -0.2211
     98  CG2      -32.2840   32.0910   10.5220 C.3   139  THR139      0.0375
@<TRIPOS>BOND
     1    62    60    1
     2    58    57    2
     3    65    64    1
     4    65    66    2
     5    71    72    1
     6    64    63    1
     7    64    67    1
     8    60    59    1
     9    60    61    1
    10    70    69    1
    11    69    68    1
    12    57    63   am
    13    57    56    1
    14    59    56    1
    15    67    68    1
    16    87    86    2
    17    72    73    1
    18    56    55    1
    19    86    85    1
    20    53    52   ar
    21    74    73    2
    22    55    48   am
    23    73    75   am
    24    78    77    2
    25    50    51    1
    26    50    47    1
    27    52    51    1
    28    52    54   ar
    29    48    47    1
    30    48    49    2
    31    77    76    1
    32    75    76    1
    33    85    88    1
    34    85    84    1
    35    47    46    1
    36    88    89    1
    37    76    79    1
    38     4     3    2
    39     3     2    1
    40    16    17    1
    41    46    40   am
    42    37    35    1
    43    41    40    2
    44    89    91    1
    45    89    90    1
    46    79    80    1
    47    20    17    1
    48    40    39    1
    49    17    18    1
    50     2     5    1
    51     2     1    1
    52     5     6    1
    53    30    31    1
    54    31    32    1
    55    31    34    1
    56    35    34    1
    57    80    81    1
    58    32    33    2
    59    34    36    1
    60    39    42    1
    61    39    38    1
    62    18    19    2
    63     7     6    1
    64     6     8    1
    65    81    82   ar
    66    81    83   ar
    67    42    43    1
    68    14    13    1
    69    92    93    1
    70    12    11    2
    71    96    98    1
    72    96    97    1
    73    96    93    1
    74    43    45    1
    75    43    44    1
    76    11    10    1
    77    13    10    1
    78    13    15    1
    79    93    94    1
    80    10     9    1
    81    94    95    2
    82    21    22    1
    83    22    25    1
    84    22    23    1
    85    25    26    1
    86    27    26    1
    87    27    28    1
    88    23    24    2
    89    28    29    1
