@<TRIPOS>MOLECULE
tmp/4bdcA00.pdb
 141 130 0 0 0
SMALL
GASTEIGER

@<TRIPOS>ATOM
      1  N        -45.3000   32.6530    8.1970 N.3    17  LEU17      -0.1231
      2  CA       -44.2640   31.9010    7.4760 C.3    17  LEU17       0.1693
      3  C        -43.7470   30.6830    8.2430 C.2    17  LEU17       0.2592
      4  O        -43.3620   29.6880    7.6210 O.2    17  LEU17      -0.2718
      5  CB       -43.1130   32.8160    7.0270 C.3    17  LEU17       0.0284
      6  CG       -43.4980   34.0430    6.1780 C.3    17  LEU17       0.0019
      7  CD1      -42.3430   34.9600    6.0240 C.3    17  LEU17       0.0001
      8  CD2      -44.0180   33.6530    4.8030 C.3    17  LEU17       0.0001
      9  N        -43.7840   30.7660    9.5740 N.am   18  GLY18      -0.1957
     10  CA       -43.3650   29.6960   10.4760 C.3    18  GLY18       0.1869
     11  C        -43.8530   29.8680   11.9040 C.2    18  GLY18       0.2309
     12  O        -43.3820   30.7640   12.6130 O.2    18  GLY18      -0.2863
     13  N        -42.6010   33.6420   12.7330 N.3    21  VAL21      -0.1245
     14  CA       -42.2570   34.5080   11.5830 C.3    21  VAL21       0.1561
     15  C        -43.4620   34.8340   10.6980 C.2    21  VAL21       0.2260
     16  O        -44.1690   33.9270   10.2600 O.2    21  VAL21      -0.2867
     17  CB       -41.0400   33.9630   10.7730 C.3    21  VAL21       0.0252
     18  CG1      -40.7990   34.7500    9.4940 C.3    21  VAL21       0.0019
     19  CG2      -39.7770   33.9770   11.6180 C.3    21  VAL21       0.0019
     20  N        -45.1230   37.3400    7.2970 N.3    23  LEU23      -0.1245
     21  CA       -44.8220   38.1170    6.1070 C.3    23  LEU23       0.1561
     22  C        -45.5190   39.4810    6.2240 C.2    23  LEU23       0.2260
     23  O        -46.7110   39.5460    6.5110 O.2    23  LEU23      -0.2867
     24  CB       -45.2600   37.3600    4.8370 C.3    23  LEU23       0.0270
     25  CG       -45.4780   38.1930    3.5580 C.3    23  LEU23       0.0019
     26  CD1      -44.2160   38.3090    2.7420 C.3    23  LEU23       0.0001
     27  CD2      -46.6130   37.6340    2.7170 C.3    23  LEU23       0.0001
     28  N        -41.8260   43.3800    0.1780 N.3    32  LYS32      -0.1245
     29  CA       -42.1440   42.3200    1.1380 C.3    32  LYS32       0.1561
     30  C        -41.0210   42.2780    2.1780 C.2    32  LYS32       0.2260
     31  O        -39.8690   42.5420    1.8420 O.2    32  LYS32      -0.2867
     32  CB       -42.2160   40.9460    0.4200 C.3    32  LYS32       0.0271
     33  CG       -43.5140   40.7270   -0.3440 C.3    32  LYS32       0.0035
     34  CD       -43.5350   39.3280   -0.9470 C.3    32  LYS32       0.0206
     35  CE       -44.7910   39.0550   -1.7590 C.3    32  LYS32       0.1093
     36  NZ       -44.8810   39.9430   -2.9460 N.3    32  LYS32      -0.1314
     37  N        -39.9100   40.1460    6.3320 N.3    34  ALA34      -0.1245
     38  CA       -40.2310   39.0580    7.2600 C.3    34  ALA34       0.1562
     39  C        -40.1780   39.6220    8.6760 C.2    34  ALA34       0.2260
     40  O        -39.1830   40.2450    9.0570 O.2    34  ALA34      -0.2867
     41  CB       -39.2520   37.9130    7.1090 C.3    34  ALA34       0.0290
     42  N        -40.1700   38.6960   12.5360 N.3    36  LYS36      -0.1245
     43  CA       -39.9310   37.6960   13.5790 C.3    36  LYS36       0.1561
     44  C        -40.4050   38.2250   14.9450 C.2    36  LYS36       0.2260
     45  O        -39.8710   39.2050   15.4760 O.2    36  LYS36      -0.2867
     46  CB       -38.4490   37.2740   13.6250 C.3    36  LYS36       0.0271
     47  CG       -38.1950   35.9700   14.3020 C.3    36  LYS36       0.0035
     48  CD       -36.6980   35.7300   14.3700 C.3    36  LYS36       0.0206
     49  CE       -36.3180   34.9060   15.5990 C.3    36  LYS36       0.1093
     50  NZ       -36.7250   35.5520   16.9070 N.3    36  LYS36      -0.1314
     51  N        -28.0770   37.4020    7.6420 N.3    58  ILE58      -0.1245
     52  CA       -29.3670   38.1250    7.6250 C.3    58  ILE58       0.1561
     53  C        -29.2620   39.5400    8.2400 C.2    58  ILE58       0.2260
     54  O        -28.6120   39.7060    9.2760 O.2    58  ILE58      -0.2867
     55  CB       -30.5020   37.2770    8.2900 C.3    58  ILE58       0.0252
     56  CG1      -31.9080   37.7330    7.8820 C.3    58  ILE58       0.0019
     57  CG2      -30.3470   37.1370    9.8150 C.3    58  ILE58       0.0019
     58  CD1      -32.3850   37.0640    6.6570 C.3    58  ILE58       0.0001
     59  N        -36.8810   41.6450    9.1980 N.3    73  LEU73      -0.1231
     60  CA       -35.7610   41.0870    8.4420 C.3    73  LEU73       0.1693
     61  C        -36.0710   41.0290    6.9570 C.2    73  LEU73       0.2595
     62  O        -37.2400   41.0870    6.5540 O.2    73  LEU73      -0.2718
     63  CB       -35.4500   39.6570    8.9390 C.3    73  LEU73       0.0284
     64  CG       -35.3330   39.4680   10.4610 C.3    73  LEU73       0.0019
     65  CD1      -36.0140   38.1910   10.9140 C.3    73  LEU73       0.0001
     66  CD2      -33.8790   39.6120   10.9450 C.3    73  LEU73       0.0001
     67  N        -35.0270   40.8670    6.1460 N.am   74  GLU74      -0.1920
     68  CA       -35.1890   40.7130    4.7070 C.3    74  GLU74       0.1949
     69  C        -35.8570   39.3540    4.4510 C.2    74  GLU74       0.2659
     70  O        -35.5960   38.4000    5.1810 O.2    74  GLU74      -0.2711
     71  CB       -33.8330   40.8410    3.9840 C.2    74  GLU74       0.0111
     72  CG       -32.6760   40.0510    4.6020 C.2    74  GLU74       0.0838
     73  CD       -31.2580   40.4420    4.2170 C.2    74  GLU74       0.3877
     74  OE1      -31.0840   41.2550    3.2790 O.co2  74  GLU74      -0.2406
     75  OE2      -30.3150   39.9280    4.8630 O.co2  74  GLU74      -0.2406
     76  N        -36.7830   39.2900    3.4930 N.am   75  LEU75      -0.1961
     77  CA       -37.5080   38.0510    3.2350 C.3    75  LEU75       0.1728
     78  C        -36.6950   37.0980    2.3950 C.2    75  LEU75       0.2616
     79  O        -36.1950   37.4640    1.3240 O.2    75  LEU75      -0.2715
     80  CB       -38.8750   38.3220    2.5960 C.3    75  LEU75       0.0311
     81  CG       -39.7760   37.1110    2.3820 C.3    75  LEU75       0.0022
     82  CD1      -40.3710   36.6370    3.6790 C.3    75  LEU75       0.0001
     83  CD2      -40.8850   37.4320    1.4160 C.3    75  LEU75       0.0001
     84  N        -36.5420   35.8690    2.9110 N.am   76  MET76      -0.1963
     85  CA       -35.8110   34.7960    2.2420 C.3    76  MET76       0.1736
     86  C        -36.8690   33.9360    1.6030 C.2    76  MET76       0.2616
     87  O        -37.5850   33.1880    2.2810 O.2    76  MET76      -0.2715
     88  CB       -34.9050   34.0230    3.2120 C.3    76  MET76       0.0427
     89  CG       -33.8510   34.8820    3.8590 C.3    76  MET76       0.0599
     90  SD       -32.8080   35.7600    2.6680 S.3    76  MET76      -0.1393
     91  CE       -31.7310   34.4770    2.2050 C.3    76  MET76       0.0692
     92  N        -37.0410   34.1490    0.2950 N.am   77  GLU77      -0.1963
     93  CA       -38.0640   33.4990   -0.4940 C.3    77  GLU77       0.1733
     94  C        -37.9050   31.9700   -0.6610 C.2    77  GLU77       0.2617
     95  O        -38.9010   31.2890   -0.8960 O.2    77  GLU77      -0.2715
     96  CB       -38.2820   34.2630   -1.8050 C.3    77  GLU77       0.0429
     97  CG       -38.8830   35.6110   -1.6640 C.3    77  GLU77       0.1163
     98  CD       -38.8280   36.4600   -2.9190 C.2    77  GLU77       0.3649
     99  OE1      -38.2020   36.0580   -3.9320 O.co2  77  GLU77      -0.2457
    100  OE2      -39.3030   37.5730   -2.9230 O.co2  77  GLU77      -0.2457
    101  N        -36.6940   31.4430   -0.4760 N.am   78  GLY78      -0.1940
    102  CA       -36.4340   30.0050   -0.5670 C.3    78  GLY78       0.2014
    103  C        -36.7070   29.1980    0.6970 C.2    78  GLY78       0.2639
    104  O        -36.6680   27.9600    0.6740 O.2    78  GLY78      -0.2714
    105  N        -36.9830   29.8850    1.8000 N.am   79  GLY79      -0.1939
    106  CA       -37.2640   29.2310    3.0730 C.3    79  GLY79       0.2014
    107  C        -36.0260   28.7180    3.7780 C.2    79  GLY79       0.2638
    108  O        -34.9190   29.2280    3.5490 O.2    79  GLY79      -0.2714
    109  N        -36.2250   27.7190    4.6730 N.am   80  GLU80      -0.1977
    110  CA       -35.1780   27.0750    5.4800 C.3    80  GLU80       0.1602
    111  C        -34.4940   25.9710    4.6760 C.2    80  GLU80       0.2287
    112  O        -35.1590   25.2860    3.8860 O.2    80  GLU80      -0.2864
    113  CB       -35.7830   26.3970    6.7220 C.3    80  GLU80       0.0415
    114  CG       -36.3110   27.2920    7.8310 C.3    80  GLU80       0.1163
    115  CD       -36.9410   26.5450    9.0020 C.2    80  GLU80       0.3649
    116  OE1      -37.0320   25.2950    8.9540 O.co2  80  GLU80      -0.2457
    117  OE2      -37.3490   27.2210    9.9760 O.co2  80  GLU80      -0.2457
    118  N        -31.0700   29.9970    5.7250 N.3   126  LEU126     -0.1245
    119  CA       -32.1420   30.4210    4.8300 C.3   126  LEU126      0.1561
    120  C        -31.6720   30.6350    3.4130 C.2   126  LEU126      0.2260
    121  O        -30.6830   31.3380    3.1890 O.2   126  LEU126     -0.2867
    122  CB       -32.8110   31.6960    5.3360 C.3   126  LEU126      0.0270
    123  CG       -33.4400   31.6450    6.6990 C.3   126  LEU126      0.0019
    124  CD1      -33.8000   33.0160    7.1440 C.3   126  LEU126      0.0001
    125  CD2      -34.6470   30.7560    6.7080 C.3   126  LEU126      0.0001
    126  N        -36.2800   30.2980   -4.6160 N.3   130  GLN130     -0.1245
    127  CA       -36.8630   28.9730   -4.7920 C.3   130  GLN130      0.1566
    128  C        -35.9720   28.0980   -5.7210 C.2   130  GLN130      0.2260
    129  O        -36.2130   26.8900   -5.8200 O.2   130  GLN130     -0.2867
    130  CB       -38.3160   29.0810   -5.2950 C.3   130  GLN130      0.0367
    131  CG       -39.3010   29.5430   -4.2150 C.3   130  GLN130      0.0905
    132  CD       -39.6950   28.4370   -3.2820 C.2   130  GLN130      0.2608
    133  OE1      -39.9330   27.2970   -3.7150 O.2   130  GLN130     -0.2717
    134  NE2      -39.7790   28.7880   -1.9930 N.am  130  GLN130     -0.0878
    135  N        -29.1330   32.7890   10.0330 N.3   139  THR139     -0.1218
    136  CA       -30.1050   33.4670   10.8880 C.3   139  THR139      0.1862
    137  C        -30.0610   32.9740   12.3480 C.2   139  THR139      0.2287
    138  O        -29.2690   32.0940   12.6720 O.2   139  THR139     -0.2866
    139  CB       -31.5050   33.4140   10.2260 C.3   139  THR139      0.1770
    140  OG1      -32.3420   34.4030   10.8320 O.3   139  THR139     -0.2211
    141  CG2      -32.1720   32.0480   10.3440 C.3   139  THR139      0.0375
@<TRIPOS>BOND
     1   129   128    2
     2   128   127    1
     3   130   127    1
     4   130   131    1
     5   127   126    1
     6   131   132    1
     7    99    98   ar
     8   133   132    2
     9   132   134   am
    10    36    35    1
    11   100    98   ar
    12    98    97    1
    13    96    97    1
    14    96    93    1
    15    35    34    1
    16    34    33    1
    17    95    94    2
    18    94    93    1
    19    94   101   am
    20   102   101    1
    21   102   103    1
    22    93    92    1
    23    33    32    1
    24    28    29    1
    25    92    86   am
    26    32    29    1
    27   104   103    2
    28   103   105   am
    29    29    30    1
    30    79    78    2
    31    83    81    1
    32    86    85    1
    33    86    87    2
    34   105   106    1
    35    31    30    2
    36    91    90    1
    37    85    84    1
    38    85    88    1
    39    81    80    1
    40    81    82    1
    41    78    84   am
    42    78    77    1
    43    80    77    1
    44    90    89    1
    45    27    25    1
    46    26    25    1
    47   106   107    1
    48   121   120    2
    49    88    89    1
    50    77    76    1
    51    74    73   ar
    52   120   119    1
    53    76    69   am
    54   108   107    2
    55    25    24    1
    56   107   109   am
    57   112   111    2
    58    71    72    2
    59    71    68    1
    60    73    72    1
    61    73    75   ar
    62    69    68    1
    63    69    70    2
    64   109   110    1
    65   111   110    1
    66    68    67    1
    67     8     6    1
    68   119   122    1
    69   119   118    1
    70    24    21    1
    71   122   123    1
    72   110   113    1
    73     7     6    1
    74    21    22    1
    75    21    20    1
    76    67    61   am
    77     6     5    1
    78    22    23    2
    79    37    38    1
    80    62    61    2
    81    58    56    1
    82   123   125    1
    83   123   124    1
    84   113   114    1
    85    61    60    1
    86     5     2    1
    87    41    38    1
    88    38    39    1
    89     2     1    1
    90     2     3    1
    91     4     3    2
    92    52    51    1
    93    52    53    1
    94    52    55    1
    95   114   115    1
    96    56    55    1
    97    53    54    2
    98     3     9   am
    99    55    57    1
   100    60    63    1
   101    60    59    1
   102    39    40    2
   103    63    64    1
   104   116   115   ar
   105   115   117   ar
   106    18    17    1
   107     9    10    1
   108   135   136    1
   109   139   141    1
   110   139   140    1
   111   139   136    1
   112    16    15    2
   113    64    65    1
   114    64    66    1
   115    10    11    1
   116    15    14    1
   117    17    14    1
   118    17    19    1
   119   136   137    1
   120    14    13    1
   121    11    12    2
   122   137   138    2
   123    42    43    1
   124    43    46    1
   125    43    44    1
   126    46    47    1
   127    47    48    1
   128    48    49    1
   129    44    45    2
   130    49    50    1
