@<TRIPOS>MOLECULE
tmp/4bddA00.pdb
 128 118 0 0 0
SMALL
GASTEIGER

@<TRIPOS>ATOM
      1  N        -49.6930   36.5360    6.0950 N.3    16  LYS16      -0.1245
      2  CA       -49.5450   35.1020    6.3780 C.3    16  LYS16       0.1561
      3  C        -48.2540   34.6870    7.0880 C.2    16  LYS16       0.2260
      4  O        -47.2490   35.3920    7.0120 O.2    16  LYS16      -0.2867
      5  CB       -49.7170   34.2980    5.0770 C.3    16  LYS16       0.0271
      6  CG       -48.6890   34.5570    4.0320 C.3    16  LYS16       0.0035
      7  CD       -48.8090   33.5090    2.9210 C.3    16  LYS16       0.0206
      8  CE       -47.8960   33.9510    1.8100 C.3    16  LYS16       0.1093
      9  NZ       -47.8460   32.8560    0.8100 N.3    16  LYS16      -0.1314
     10  N        -44.7840   32.8500    7.8480 N.3    18  LEU18      -0.1245
     11  CA       -43.5280   32.5650    7.1270 C.3    18  LEU18       0.1561
     12  C        -43.5070   33.1540    5.7090 C.2    18  LEU18       0.2260
     13  O        -42.8900   34.1950    5.4690 O.2    18  LEU18      -0.2867
     14  CB       -43.1650   31.0580    7.1140 C.3    18  LEU18       0.0270
     15  CG       -43.3880   30.2470    8.3980 C.3    18  LEU18       0.0019
     16  CD1      -43.4740   28.7670    8.0890 C.3    18  LEU18       0.0001
     17  CD2      -42.3160   30.5280    9.4410 C.3    18  LEU18       0.0001
     18  N        -42.6500   33.5890   12.6860 N.3    20  VAL20      -0.1245
     19  CA       -42.3050   34.4420   11.5320 C.3    20  VAL20       0.1561
     20  C        -43.5100   34.7100   10.6200 C.2    20  VAL20       0.2260
     21  O        -44.1670   33.7690   10.1860 O.2    20  VAL20      -0.2867
     22  CB       -41.0610   33.9080   10.7530 C.3    20  VAL20       0.0252
     23  CG1      -40.8830   34.6070    9.4050 C.3    20  VAL20       0.0019
     24  CG2      -39.7900   34.0500   11.5820 C.3    20  VAL20       0.0019
     25  N        -39.9590   40.2340    6.2930 N.3    33  ALA33      -0.1245
     26  CA       -40.3100   39.1450    7.2040 C.3    33  ALA33       0.1562
     27  C        -40.2860   39.6980    8.6270 C.2    33  ALA33       0.2260
     28  O        -39.3490   40.4130    8.9920 O.2    33  ALA33      -0.2867
     29  CB       -39.3350   37.9910    7.0610 C.3    33  ALA33       0.0290
     30  N        -28.0840   37.4390    7.7830 N.3    57  ILE57      -0.1245
     31  CA       -29.3630   38.1710    7.7800 C.3    57  ILE57       0.1561
     32  C        -29.2540   39.6110    8.3320 C.2    57  ILE57       0.2260
     33  O        -28.5900   39.8500    9.3460 O.2    57  ILE57      -0.2867
     34  CB       -30.4980   37.3530    8.4650 C.3    57  ILE57       0.0252
     35  CG1      -31.8980   37.7330    7.9420 C.3    57  ILE57       0.0019
     36  CG2      -30.4200   37.3650   10.0000 C.3    57  ILE57       0.0019
     37  CD1      -32.3000   37.0070    6.7060 C.3    57  ILE57       0.0001
     38  N        -36.9240   41.7260    9.2140 N.3    72  LEU72      -0.1231
     39  CA       -35.7790   41.1670    8.4970 C.3    72  LEU72       0.1693
     40  C        -36.0620   41.1140    7.0130 C.2    72  LEU72       0.2592
     41  O        -37.2300   41.1600    6.6080 O.2    72  LEU72      -0.2718
     42  CB       -35.4930   39.7210    8.9900 C.3    72  LEU72       0.0284
     43  CG       -35.2460   39.4980   10.4840 C.3    72  LEU72       0.0019
     44  CD1      -35.7020   38.1170   10.9020 C.3    72  LEU72       0.0001
     45  CD2      -33.7820   39.7510   10.8570 C.3    72  LEU72       0.0001
     46  N        -34.9990   40.9610    6.2010 N.am   73  GLU73      -0.1966
     47  CA       -35.1500   40.8010    4.7580 C.3    73  GLU73       0.1733
     48  C        -35.8060   39.4380    4.5010 C.2    73  GLU73       0.2616
     49  O        -35.4420   38.4630    5.1560 O.2    73  GLU73      -0.2715
     50  CB       -33.7970   40.9430    4.0280 C.3    73  GLU73       0.0429
     51  CG       -32.6950   39.9560    4.4190 C.3    73  GLU73       0.1163
     52  CD       -31.2640   40.4430    4.2620 C.2    73  GLU73       0.3649
     53  OE1      -30.9890   41.2330    3.3280 O.co2  73  GLU73      -0.2457
     54  OE2      -30.4100   40.0190    5.0730 O.co2  73  GLU73      -0.2457
     55  N        -36.8340   39.3950    3.6430 N.am   74  LEU74      -0.1963
     56  CA       -37.5550   38.1680    3.3290 C.3    74  LEU74       0.1728
     57  C        -36.6870   37.2300    2.5010 C.2    74  LEU74       0.2616
     58  O        -35.9810   37.6750    1.5870 O.2    74  LEU74      -0.2715
     59  CB       -38.8690   38.4720    2.5870 C.3    74  LEU74       0.0311
     60  CG       -39.8280   37.2910    2.3590 C.3    74  LEU74       0.0022
     61  CD1      -40.5910   36.9310    3.6300 C.3    74  LEU74       0.0001
     62  CD2      -40.8110   37.5990    1.2630 C.3    74  LEU74       0.0001
     63  N        -36.7480   35.9250    2.8350 N.am   75  MET75      -0.1963
     64  CA       -36.0030   34.8550    2.1680 C.3    75  MET75       0.1736
     65  C        -37.0240   33.9250    1.5700 C.2    75  MET75       0.2616
     66  O        -37.6390   33.1270    2.2810 O.2    75  MET75      -0.2715
     67  CB       -35.0460   34.1290    3.1400 C.3    75  MET75       0.0427
     68  CG       -33.9910   35.0360    3.7340 C.3    75  MET75       0.0599
     69  SD       -32.7990   35.6640    2.5240 S.3    75  MET75      -0.1393
     70  CE       -31.7080   34.2860    2.4260 C.3    75  MET75       0.0692
     71  N        -37.2350   34.0680    0.2600 N.am   76  GLU76      -0.1963
     72  CA       -38.2400   33.3200   -0.4840 C.3    76  GLU76       0.1733
     73  C        -38.0430   31.7990   -0.5750 C.2    76  GLU76       0.2617
     74  O        -39.0220   31.0870   -0.7850 O.2    76  GLU76      -0.2715
     75  CB       -38.5350   33.9810   -1.8420 C.3    76  GLU76       0.0429
     76  CG       -39.0780   35.4040   -1.7210 C.3    76  GLU76       0.1163
     77  CD       -40.1960   35.7770   -2.6760 C.2    76  GLU76       0.3649
     78  OE1      -41.3050   35.2090   -2.5500 O.co2  76  GLU76      -0.2457
     79  OE2      -39.9780   36.6740   -3.5210 O.co2  76  GLU76      -0.2457
     80  N        -36.8140   31.3180   -0.3840 N.am   77  GLY77      -0.1940
     81  CA       -36.4930   29.8900   -0.4260 C.3    77  GLY77       0.2014
     82  C        -36.7800   29.1410    0.8620 C.2    77  GLY77       0.2639
     83  O        -36.8650   27.9040    0.8730 O.2    77  GLY77      -0.2714
     84  N        -36.9380   29.9000    1.9400 N.am   78  GLY78      -0.1939
     85  CA       -37.2260   29.3440    3.2500 C.3    78  GLY78       0.2014
     86  C        -36.0110   28.7180    3.8880 C.2    78  GLY78       0.2638
     87  O        -34.8740   29.1130    3.6020 O.2    78  GLY78      -0.2714
     88  N        -36.2540   27.7290    4.7480 N.am   79  GLU79      -0.1977
     89  CA       -35.2280   27.0270    5.5090 C.3    79  GLU79       0.1602
     90  C        -34.5330   25.9550    4.7030 C.2    79  GLU79       0.2287
     91  O        -35.1650   25.3100    3.8590 O.2    79  GLU79      -0.2864
     92  CB       -35.8480   26.3670    6.7460 C.3    79  GLU79       0.0415
     93  CG       -36.2060   27.3310    7.8590 C.3    79  GLU79       0.1163
     94  CD       -36.9970   26.7140    8.9980 C.2    79  GLU79       0.3649
     95  OE1      -36.9520   25.4720    9.1720 O.co2  79  GLU79      -0.2457
     96  OE2      -37.6380   27.4900    9.7440 O.co2  79  GLU79      -0.2457
     97  N        -36.0540   22.2670    5.1980 N.3    82  ASP82      -0.1239
     98  CA       -37.1030   21.8220    4.2810 C.3    82  ASP82       0.1674
     99  C        -36.5520   21.0800    3.0560 C.2    82  ASP82       0.2266
    100  O        -37.2620   20.2480    2.4880 O.2    82  ASP82      -0.2867
    101  CB       -38.0050   23.0030    3.8680 C.3    82  ASP82       0.1410
    102  CG       -38.6870   23.7480    5.0160 C.2    82  ASP82       0.3668
    103  OD1      -39.1260   23.0790    5.9920 O.co2  82  ASP82      -0.2456
    104  OD2      -38.8200   24.9960    4.9210 O.co2  82  ASP82      -0.2456
    105  N        -31.1600   30.0810    5.7740 N.3   125  LEU125     -0.1245
    106  CA       -32.2360   30.4780    4.8720 C.3   125  LEU125      0.1561
    107  C        -31.7430   30.6270    3.4650 C.2   125  LEU125      0.2260
    108  O        -30.6440   31.1500    3.2580 O.2   125  LEU125     -0.2867
    109  CB       -32.9030   31.7910    5.3230 C.3   125  LEU125      0.0270
    110  CG       -33.3510   31.8930    6.7670 C.3   125  LEU125      0.0019
    111  CD1      -33.6330   33.3160    7.1220 C.3   125  LEU125      0.0001
    112  CD2      -34.5550   31.0420    7.0300 C.3   125  LEU125      0.0001
    113  N        -36.5320   30.2610   -4.5010 N.3   129  GLN129     -0.1245
    114  CA       -37.0740   28.9150   -4.6830 C.3   129  GLN129      0.1566
    115  C        -36.2170   28.0960   -5.6970 C.2   129  GLN129      0.2260
    116  O        -36.5010   26.9210   -5.9530 O.2   129  GLN129     -0.2867
    117  CB       -38.5700   28.9760   -5.0450 C.3   129  GLN129      0.0367
    118  CG       -39.4680   29.3470   -3.8590 C.3   129  GLN129      0.0905
    119  CD       -39.7260   28.1870   -2.9460 C.2   129  GLN129      0.2608
    120  OE1      -39.9550   27.0550   -3.4050 O.2   129  GLN129     -0.2717
    121  NE2      -39.7040   28.4800   -1.6390 N.am  129  GLN129     -0.0878
    122  N        -29.1980   32.8580   10.1070 N.3   138  THR138     -0.1218
    123  CA       -30.1510   33.5610   10.9730 C.3   138  THR138      0.1862
    124  C        -30.1330   32.9820   12.4190 C.2   138  THR138      0.2287
    125  O        -29.3720   32.0450   12.6800 O.2   138  THR138     -0.2866
    126  CB       -31.5460   33.5510   10.2920 C.3   138  THR138      0.1770
    127  OG1      -32.3620   34.5870   10.8540 O.3   138  THR138     -0.2211
    128  CG2      -32.2520   32.2020   10.3920 C.3   138  THR138      0.0375
@<TRIPOS>BOND
     1   116   115    2
     2   115   114    1
     3   117   114    1
     4   117   118    1
     5   114   113    1
     6   118   119    1
     7    79    77   ar
     8   120   119    2
     9   119   121   am
    10    77    78   ar
    11    77    76    1
    12    75    76    1
    13    75    72    1
    14    74    73    2
    15    73    72    1
    16    73    80   am
    17    72    71    1
    18    81    80    1
    19    81    82    1
    20    71    65   am
    21     9     8    1
    22    82    83    2
    23    82    84   am
    24    62    60    1
    25    65    64    1
    26    65    66    2
    27    58    57    2
    28     8     7    1
    29    84    85    1
    30    64    63    1
    31    64    67    1
    32    60    59    1
    33    60    61    1
    34    70    69    1
    35   100    99    2
    36    57    63   am
    37    57    56    1
    38    69    68    1
    39    59    56    1
    40     7     6    1
    41    99    98    1
    42    67    68    1
    43    85    86    1
    44   108   107    2
    45    53    52   ar
    46    56    55    1
    47   107   106    1
    48    87    86    2
    49    55    48   am
    50    91    90    2
    51   101    98    1
    52   101   102    1
    53    86    88   am
    54    50    51    1
    55    50    47    1
    56     6     5    1
    57    52    51    1
    58    52    54   ar
    59    98    97    1
    60    48    47    1
    61    48    49    2
    62    90    89    1
    63    88    89    1
    64    47    46    1
    65   106   109    1
    66   106   105    1
    67   104   102   ar
    68   102   103   ar
    69     5     2    1
    70   109   110    1
    71    13    12    2
    72    89    92    1
    73    12    11    1
    74     1     2    1
    75    46    40   am
    76    25    26    1
    77     2     3    1
    78    41    40    2
    79    37    35    1
    80    92    93    1
    81   110   112    1
    82   110   111    1
    83     4     3    2
    84    40    39    1
    85    29    26    1
    86    14    11    1
    87    14    15    1
    88    11    10    1
    89    26    27    1
    90    31    30    1
    91    31    32    1
    92    31    34    1
    93    93    94    1
    94    35    34    1
    95    16    15    1
    96    32    33    2
    97    15    17    1
    98    34    36    1
    99    39    42    1
   100    39    38    1
   101    27    28    2
   102    42    43    1
   103    94    95   ar
   104    94    96   ar
   105    23    22    1
   106   122   123    1
   107    21    20    2
   108   126   128    1
   109   126   127    1
   110   126   123    1
   111    43    45    1
   112    43    44    1
   113    20    19    1
   114    22    19    1
   115    22    24    1
   116   123   124    1
   117    19    18    1
   118   124   125    2
