@<TRIPOS>MOLECULE
tmp/4bdeA00.pdb
 98 89 0 0 0
SMALL
GASTEIGER

@<TRIPOS>ATOM
      1  N        -44.4130   32.2900    7.9730 N.3    18  LEU18      -0.1245
      2  CA       -43.2760   31.7110    7.2610 C.3    18  LEU18       0.1561
      3  C        -42.4690   30.9230    8.2880 C.2    18  LEU18       0.2260
      4  O        -41.7300   30.0120    7.9340 O.2    18  LEU18      -0.2867
      5  CB       -42.3830   32.8000    6.6240 C.3    18  LEU18       0.0270
      6  CG       -43.0330   33.9050    5.7760 C.3    18  LEU18       0.0019
      7  CD1      -42.1580   35.1230    5.7460 C.3    18  LEU18       0.0001
      8  CD2      -43.3210   33.4380    4.3600 C.3    18  LEU18       0.0001
      9  N        -42.2090   33.6690   12.4760 N.3    20  VAL20      -0.1245
     10  CA       -41.8760   34.5510   11.3380 C.3    20  VAL20       0.1561
     11  C        -43.1070   34.8350   10.4640 C.2    20  VAL20       0.2260
     12  O        -43.7940   33.9010   10.0350 O.2    20  VAL20      -0.2867
     13  CB       -40.6660   34.0370   10.4900 C.3    20  VAL20       0.0252
     14  CG1      -40.3110   35.0050    9.3540 C.3    20  VAL20       0.0019
     15  CG2      -39.4400   33.7780   11.3590 C.3    20  VAL20       0.0019
     16  N        -39.7190   40.2620    6.0690 N.3    33  ALA33      -0.1245
     17  CA       -40.0220   39.1650    6.9870 C.3    33  ALA33       0.1562
     18  C        -39.9600   39.7130    8.4060 C.2    33  ALA33       0.2260
     19  O        -38.9880   40.4110    8.7530 O.2    33  ALA33      -0.2867
     20  CB       -39.0240   38.0360    6.8090 C.3    33  ALA33       0.0290
     21  N        -39.8570   38.7080   12.3550 N.3    35  LYS35      -0.1245
     22  CA       -39.6170   37.7380   13.4310 C.3    35  LYS35       0.1561
     23  C        -40.2200   38.2840   14.7460 C.2    35  LYS35       0.2260
     24  O        -39.8940   39.3980   15.1820 O.2    35  LYS35      -0.2867
     25  CB       -38.1150   37.4180   13.5730 C.3    35  LYS35       0.0271
     26  CG       -37.8080   36.5830   14.7890 C.3    35  LYS35       0.0035
     27  CD       -37.4470   35.1370   14.4760 C.3    35  LYS35       0.0206
     28  CE       -37.4550   34.3170   15.7900 C.3    35  LYS35       0.1093
     29  NZ       -38.8610   34.3100   16.3990 N.3    35  LYS35      -0.1314
     30  N        -27.9680   37.5460    7.5870 N.3    59  ILE59      -0.1245
     31  CA       -29.2320   38.3110    7.5260 C.3    59  ILE59       0.1561
     32  C        -29.0820   39.7300    8.1190 C.2    59  ILE59       0.2260
     33  O        -28.4000   39.9010    9.1310 O.2    59  ILE59      -0.2867
     34  CB       -30.3980   37.5150    8.1870 C.3    59  ILE59       0.0252
     35  CG1      -31.7990   37.9970    7.7110 C.3    59  ILE59       0.0019
     36  CG2      -30.2870   37.4810    9.7160 C.3    59  ILE59       0.0019
     37  CD1      -32.2000   37.5710    6.3420 C.3    59  ILE59       0.0001
     38  N        -36.6800   41.8430    9.1110 N.3    74  LEU74      -0.1231
     39  CA       -35.5350   41.3260    8.3710 C.3    74  LEU74       0.1693
     40  C        -35.8430   41.2510    6.8860 C.2    74  LEU74       0.2592
     41  O        -37.0090   41.3740    6.4770 O.2    74  LEU74      -0.2718
     42  CB       -35.1750   39.9120    8.8840 C.3    74  LEU74       0.0284
     43  CG       -34.9160   39.7430   10.3820 C.3    74  LEU74       0.0019
     44  CD1      -35.2470   38.3400   10.8340 C.3    74  LEU74       0.0001
     45  CD2      -33.4880   40.1390   10.7580 C.3    74  LEU74       0.0001
     46  N        -34.7950   41.0100    6.0810 N.am   75  GLU75      -0.1966
     47  CA       -34.9170   40.7980    4.6400 C.3    75  GLU75       0.1733
     48  C        -35.6890   39.4820    4.4440 C.2    75  GLU75       0.2616
     49  O        -35.4560   38.5070    5.1690 O.2    75  GLU75      -0.2715
     50  CB       -33.5320   40.6310    3.9750 C.3    75  GLU75       0.0429
     51  CG       -32.4430   41.6040    4.4010 C.3    75  GLU75       0.1163
     52  CD       -31.0580   41.1570    3.9690 C.2    75  GLU75       0.3649
     53  OE1      -30.4040   40.4170    4.7410 O.co2  75  GLU75      -0.2457
     54  OE2      -30.6410   41.5190    2.8450 O.co2  75  GLU75      -0.2457
     55  N        -36.6120   39.4640    3.4840 N.am   76  LEU76      -0.1963
     56  CA       -37.3710   38.2630    3.1740 C.3    76  LEU76       0.1728
     57  C        -36.4530   37.3130    2.4210 C.2    76  LEU76       0.2616
     58  O        -35.6820   37.7540    1.5610 O.2    76  LEU76      -0.2715
     59  CB       -38.6130   38.5920    2.3270 C.3    76  LEU76       0.0311
     60  CG       -39.4810   37.3950    1.9110 C.3    76  LEU76       0.0022
     61  CD1      -40.3760   36.9300    3.0490 C.3    76  LEU76       0.0001
     62  CD2      -40.3010   37.7180    0.6830 C.3    76  LEU76       0.0001
     63  N        -36.5340   36.0140    2.7670 N.am   77  MET77      -0.1977
     64  CA       -35.7420   34.9570    2.1350 C.3    77  MET77       0.1605
     65  C        -36.7000   34.0310    1.4140 C.2    77  MET77       0.2287
     66  O        -37.3470   33.1930    2.0410 O.2    77  MET77      -0.2864
     67  CB       -34.8400   34.2250    3.1600 C.3    77  MET77       0.0413
     68  CG       -33.7970   35.1360    3.8060 C.3    77  MET77       0.0598
     69  SD       -32.6320   35.8790    2.6270 S.3    77  MET77      -0.1393
     70  CE       -31.5410   34.5200    2.3720 C.3    77  MET77       0.0692
     71  N        -36.6690   30.0300    1.6870 N.3    80  GLY80      -0.1210
     72  CA       -37.0060   29.4130    2.9630 C.3    80  GLY80       0.1956
     73  C        -35.8020   28.8240    3.6740 C.2    80  GLY80       0.2611
     74  O        -34.6470   29.1990    3.4100 O.2    80  GLY80      -0.2717
     75  N        -36.0770   27.8800    4.5790 N.am   81  GLU81      -0.1979
     76  CA       -35.0560   27.2130    5.3820 C.3    81  GLU81       0.1602
     77  C        -34.3430   26.1140    4.6080 C.2    81  GLU81       0.2287
     78  O        -34.9760   25.3990    3.8270 O.2    81  GLU81      -0.2864
     79  CB       -35.6880   26.5990    6.6410 C.3    81  GLU81       0.0415
     80  CG       -36.2760   27.6070    7.6150 C.3    81  GLU81       0.1163
     81  CD       -36.9760   27.0000    8.8170 C.2    81  GLU81       0.3649
     82  OE1      -36.8530   25.7720    9.0470 O.co2  81  GLU81      -0.2457
     83  OE2      -37.6220   27.7760    9.5580 O.co2  81  GLU81      -0.2457
     84  N        -30.9900   30.2210    5.7150 N.3   127  LEU127     -0.1245
     85  CA       -32.0720   30.5900    4.8090 C.3   127  LEU127      0.1561
     86  C        -31.5490   30.8310    3.4250 C.2   127  LEU127      0.2260
     87  O        -30.4390   31.3400    3.2630 O.2   127  LEU127     -0.2867
     88  CB       -32.8410   31.8210    5.3030 C.3   127  LEU127      0.0270
     89  CG       -33.2180   31.8720    6.7700 C.3   127  LEU127      0.0019
     90  CD1      -33.4640   33.2790    7.1830 C.3   127  LEU127      0.0001
     91  CD2      -34.4060   31.0030    7.0790 C.3   127  LEU127      0.0001
     92  N        -28.9040   32.9860   10.1050 N.3   140  THR140     -0.1218
     93  CA       -29.8810   33.6890   10.9380 C.3   140  THR140      0.1862
     94  C        -29.8370   33.1720   12.4030 C.2   140  THR140      0.2287
     95  O        -29.0330   32.2950   12.7150 O.2   140  THR140     -0.2866
     96  CB       -31.2600   33.6100   10.2290 C.3   140  THR140      0.1770
     97  OG1      -32.0170   34.7780   10.5250 O.3   140  THR140     -0.2211
     98  CG2      -32.0580   32.3710   10.5890 C.3   140  THR140      0.0375
@<TRIPOS>BOND
     1    62    60    1
     2    65    66    2
     3    65    64    1
     4    58    57    2
     5    71    72    1
     6    60    59    1
     7    60    61    1
     8    64    63    1
     9    64    67    1
    10    59    56    1
    11    70    69    1
    12    57    63   am
    13    57    56    1
    14    69    68    1
    15    54    52   ar
    16    72    73    1
    17    67    68    1
    18    56    55    1
    19    87    86    2
    20    74    73    2
    21    86    85    1
    22    55    48   am
    23    73    75   am
    24    78    77    2
    25    52    51    1
    26    52    53   ar
    27    50    51    1
    28    50    47    1
    29     8     6    1
    30    48    47    1
    31    48    49    2
    32    75    76    1
    33    77    76    1
    34    47    46    1
    35    85    88    1
    36    85    84    1
    37    88    89    1
    38    76    79    1
    39     7     6    1
    40     6     5    1
    41    16    17    1
    42    46    40   am
    43    37    35    1
    44    41    40    2
    45     5     2    1
    46    79    80    1
    47    89    91    1
    48    89    90    1
    49    20    17    1
    50    40    39    1
    51    17    18    1
    52     2     1    1
    53     2     3    1
    54    31    30    1
    55    31    32    1
    56    31    34    1
    57    80    81    1
    58    35    34    1
    59     4     3    2
    60    32    33    2
    61    34    36    1
    62    39    42    1
    63    39    38    1
    64    18    19    2
    65    81    82   ar
    66    81    83   ar
    67    42    43    1
    68    14    13    1
    69    12    11    2
    70    92    93    1
    71    96    97    1
    72    96    98    1
    73    96    93    1
    74    43    45    1
    75    43    44    1
    76    11    10    1
    77    13    10    1
    78    13    15    1
    79    93    94    1
    80    10     9    1
    81    21    22    1
    82    94    95    2
    83    22    25    1
    84    22    23    1
    85    25    26    1
    86    27    26    1
    87    27    28    1
    88    23    24    2
    89    28    29    1
