@<TRIPOS>MOLECULE
tmp/4bdfA00.pdb
 119 109 0 0 0
SMALL
GASTEIGER

@<TRIPOS>ATOM
      1  N        -44.9180   32.4770    8.1130 N.3    18  LEU18      -0.1231
      2  CA       -43.8770   31.8080    7.3170 C.3    18  LEU18       0.1693
      3  C        -43.2830   30.5960    8.0520 C.2    18  LEU18       0.2592
      4  O        -42.9570   29.5880    7.4140 O.2    18  LEU18      -0.2718
      5  CB       -42.7490   32.7870    6.9300 C.3    18  LEU18       0.0284
      6  CG       -43.1300   34.0540    6.1600 C.3    18  LEU18       0.0019
      7  CD1      -42.0800   35.1130    6.3400 C.3    18  LEU18       0.0001
      8  CD2      -43.3680   33.7710    4.6900 C.3    18  LEU18       0.0001
      9  N        -43.1400   30.7230    9.3750 N.am   19  GLY19      -0.1957
     10  CA       -42.6020   29.6920   10.2590 C.3    19  GLY19       0.1869
     11  C        -42.2480   30.2170   11.6360 C.2    19  GLY19       0.2309
     12  O        -43.0150   30.0630   12.5870 O.2    19  GLY19      -0.2863
     13  N        -42.5360   33.6350   12.8180 N.3    22  VAL22      -0.1245
     14  CA       -42.0820   34.4980   11.7130 C.3    22  VAL22       0.1561
     15  C        -43.2380   34.7470   10.7390 C.2    22  VAL22       0.2260
     16  O        -43.8060   33.8030   10.1950 O.2    22  VAL22      -0.2867
     17  CB       -40.7920   33.9370   11.0240 C.3    22  VAL22       0.0252
     18  CG1      -40.4850   34.6470    9.7160 C.3    22  VAL22       0.0019
     19  CG2      -39.5880   34.0260   11.9530 C.3    22  VAL22       0.0019
     20  N        -39.8310   40.0010    6.4370 N.3    35  ALA35      -0.1245
     21  CA       -40.1610   38.9200    7.3770 C.3    35  ALA35       0.1562
     22  C        -40.0910   39.5290    8.7790 C.2    35  ALA35       0.2260
     23  O        -39.1150   40.2330    9.0900 O.2    35  ALA35      -0.2867
     24  CB       -39.1780   37.7720    7.2460 C.3    35  ALA35       0.0290
     25  N        -40.0720   38.6430   12.7320 N.3    37  LYS37      -0.1245
     26  CA       -39.8970   37.6400   13.7890 C.3    37  LYS37       0.1561
     27  C        -40.4120   38.2170   15.1060 C.2    37  LYS37       0.2260
     28  O        -39.9330   39.2500   15.5780 O.2    37  LYS37      -0.2867
     29  CB       -38.4230   37.1880   13.9090 C.3    37  LYS37       0.0271
     30  CG       -38.1640   36.0340   14.8770 C.3    37  LYS37       0.0035
     31  CD       -36.6720   35.8130   15.0480 C.3    37  LYS37       0.0206
     32  CE       -36.4170   34.6780   16.0390 C.3    37  LYS37       0.1093
     33  NZ       -35.0330   34.6640   16.5180 N.3    37  LYS37      -0.1314
     34  N        -28.0850   37.2780    7.6730 N.3    59  ILE59      -0.1245
     35  CA       -29.3440   38.0640    7.6680 C.3    59  ILE59       0.1561
     36  C        -29.1850   39.5040    8.2680 C.2    59  ILE59       0.2260
     37  O        -28.4010   39.7020    9.2060 O.2    59  ILE59      -0.2867
     38  CB       -30.5030   37.2490    8.3350 C.3    59  ILE59       0.0252
     39  CG1      -31.8760   37.6210    7.7870 C.3    59  ILE59       0.0019
     40  CG2      -30.4580   37.2550    9.8650 C.3    59  ILE59       0.0019
     41  CD1      -32.1470   37.0410    6.4460 C.3    59  ILE59       0.0001
     42  N        -36.7540   41.6200    9.4830 N.3    74  LEU74      -0.1231
     43  CA       -35.6210   41.0250    8.7870 C.3    74  LEU74       0.1693
     44  C        -35.8750   40.9300    7.2880 C.2    74  LEU74       0.2592
     45  O        -37.0190   41.0690    6.8340 O.2    74  LEU74      -0.2718
     46  CB       -35.3330   39.6150    9.3690 C.3    74  LEU74       0.0284
     47  CG       -35.0650   39.5410   10.8800 C.3    74  LEU74       0.0019
     48  CD1      -35.7330   38.3380   11.4880 C.3    74  LEU74       0.0001
     49  CD2      -33.5600   39.6760   11.2150 C.3    74  LEU74       0.0001
     50  N        -34.8140   40.6930    6.5150 N.am   75  GLU75      -0.1966
     51  CA       -35.0010   40.5550    5.0830 C.3    75  GLU75       0.1733
     52  C        -35.6280   39.2010    4.7880 C.2    75  GLU75       0.2616
     53  O        -35.3010   38.2250    5.4640 O.2    75  GLU75      -0.2715
     54  CB       -33.7050   40.8350    4.2910 C.3    75  GLU75       0.0429
     55  CG       -32.4850   39.9820    4.6220 C.3    75  GLU75       0.1163
     56  CD       -31.1330   40.6320    4.3690 C.2    75  GLU75       0.3649
     57  OE1      -31.0770   41.6820    3.6850 O.co2  75  GLU75      -0.2457
     58  OE2      -30.1240   40.0870    4.8710 O.co2  75  GLU75      -0.2457
     59  N        -36.5920   39.1680    3.8550 N.am   76  LEU76      -0.1963
     60  CA       -37.3280   37.9730    3.4730 C.3    76  LEU76       0.1728
     61  C        -36.5360   37.0870    2.5370 C.2    76  LEU76       0.2616
     62  O        -36.0450   37.5380    1.4970 O.2    76  LEU76      -0.2715
     63  CB       -38.6930   38.3230    2.8600 C.3    76  LEU76       0.0311
     64  CG       -39.5220   37.1260    2.3950 C.3    76  LEU76       0.0022
     65  CD1      -40.1280   36.3880    3.5700 C.3    76  LEU76       0.0001
     66  CD2      -40.5860   37.5380    1.4360 C.3    76  LEU76       0.0001
     67  N        -36.4760   35.7980    2.8920 N.am   77  MET77      -0.1963
     68  CA       -35.7570   34.7450    2.1780 C.3    77  MET77       0.1736
     69  C        -36.7590   33.7620    1.5940 C.2    77  MET77       0.2616
     70  O        -37.1830   32.8240    2.2780 O.2    77  MET77      -0.2715
     71  CB       -34.7590   34.0580    3.1290 C.3    77  MET77       0.0427
     72  CG       -33.6990   34.9840    3.6370 C.3    77  MET77       0.0599
     73  SD       -32.5770   35.5600    2.3330 S.3    77  MET77      -0.1393
     74  CE       -31.5160   34.1330    2.1880 C.3    77  MET77       0.0692
     75  N        -37.1540   33.9920    0.3320 N.am   78  GLU78      -0.1977
     76  CA       -38.1660   33.1940   -0.3620 C.3    78  GLU78       0.1602
     77  C        -37.9490   31.6770   -0.5130 C.2    78  GLU78       0.2287
     78  O        -38.9150   30.9330   -0.6560 O.2    78  GLU78      -0.2864
     79  CB       -38.6160   33.8810   -1.6530 C.3    78  GLU78       0.0415
     80  CG       -39.6210   34.9920   -1.3860 C.3    78  GLU78       0.1163
     81  CD       -39.6010   36.1210   -2.3930 C.2    78  GLU78       0.3649
     82  OE1      -40.2740   35.9930   -3.4410 O.co2  78  GLU78      -0.2457
     83  OE2      -38.9220   37.1400   -2.1270 O.co2  78  GLU78      -0.2457
     84  N        -36.8970   29.7500    1.8560 N.3    80  GLY80      -0.1210
     85  CA       -37.2350   29.1660    3.1450 C.3    80  GLY80       0.1956
     86  C        -36.0310   28.6180    3.8580 C.2    80  GLY80       0.2611
     87  O        -34.9130   29.0740    3.6230 O.2    80  GLY80      -0.2717
     88  N        -36.2470   27.6420    4.7370 N.am   81  GLU81      -0.1979
     89  CA       -35.1760   27.0240    5.5190 C.3    81  GLU81       0.1602
     90  C        -34.5400   25.8980    4.7210 C.2    81  GLU81       0.2287
     91  O        -35.2230   25.2280    3.9330 O.2    81  GLU81      -0.2864
     92  CB       -35.7250   26.4270    6.8260 C.3    81  GLU81       0.0415
     93  CG       -36.3960   27.3910    7.7880 C.3    81  GLU81       0.1163
     94  CD       -37.1430   26.7270    8.9360 C.2    81  GLU81       0.3649
     95  OE1      -37.1020   25.4790    9.0480 O.co2  81  GLU81      -0.2457
     96  OE2      -37.7610   27.4640    9.7390 O.co2  81  GLU81      -0.2457
     97  N        -36.0660   22.1820    5.2010 N.3    84  ASP84      -0.1239
     98  CA       -37.1290   21.7000    4.3060 C.3    84  ASP84       0.1674
     99  C        -36.5930   21.0020    3.0360 C.2    84  ASP84       0.2266
    100  O        -37.3660   20.3440    2.3440 O.2    84  ASP84      -0.2867
    101  CB       -38.1250   22.8310    3.9580 C.3    84  ASP84       0.1410
    102  CG       -38.7030   23.5770    5.1590 C.2    84  ASP84       0.3668
    103  OD1      -39.5310   22.9840    5.8860 O.co2  84  ASP84      -0.2456
    104  OD2      -38.3550   24.7710    5.3460 O.co2  84  ASP84      -0.2456
    105  N        -31.1130   29.9740    5.7760 N.3   127  LEU127     -0.1245
    106  CA       -32.1840   30.3470    4.8470 C.3   127  LEU127      0.1561
    107  C        -31.7080   30.4590    3.4080 C.2   127  LEU127      0.2260
    108  O        -30.5980   30.9440    3.1630 O.2   127  LEU127     -0.2867
    109  CB       -32.8580   31.6620    5.2550 C.3   127  LEU127      0.0270
    110  CG       -33.3340   31.8140    6.6890 C.3   127  LEU127      0.0019
    111  CD1      -33.4860   33.2660    7.0400 C.3   127  LEU127      0.0001
    112  CD2      -34.6170   31.0870    6.9060 C.3   127  LEU127      0.0001
    113  N        -29.2120   32.7950    9.9760 N.3   140  THR140     -0.1218
    114  CA       -30.1750   33.4910   10.8210 C.3   140  THR140      0.1862
    115  C        -30.1170   32.9680   12.2770 C.2   140  THR140      0.2287
    116  O        -29.3850   32.0200   12.5620 O.2   140  THR140     -0.2866
    117  CB       -31.5630   33.4070   10.1690 C.3   140  THR140      0.1770
    118  OG1      -32.4000   34.4440   10.6810 O.3   140  THR140     -0.2211
    119  CG2      -32.2270   32.0500   10.3490 C.3   140  THR140      0.0375
@<TRIPOS>BOND
     1    82    81   ar
     2    81    83   ar
     3    81    80    1
     4    79    80    1
     5    79    76    1
     6    78    77    2
     7    77    76    1
     8    76    75    1
     9    75    69   am
    10    66    64    1
    11    62    61    2
    12    69    68    1
    13    69    70    2
    14    84    85    1
    15    68    67    1
    16    68    71    1
    17    74    73    1
    18    73    72    1
    19   100    99    2
    20    64    63    1
    21    64    65    1
    22    61    67   am
    23    61    60    1
    24    63    60    1
    25    99    98    1
    26    71    72    1
    27    85    86    1
    28   108   107    2
    29   107   106    1
    30    60    59    1
    31    87    86    2
    32    57    56   ar
    33    59    52   am
    34    86    88   am
    35    91    90    2
    36   101    98    1
    37   101   102    1
    38    54    55    1
    39    54    51    1
    40    98    97    1
    41    56    55    1
    42    56    58   ar
    43     8     6    1
    44    90    89    1
    45    88    89    1
    46    52    51    1
    47    52    53    2
    48   106   109    1
    49   106   105    1
    50    51    50    1
    51   102   104   ar
    52   102   103   ar
    53   109   110    1
    54    89    92    1
    55     6     7    1
    56     6     5    1
    57    20    21    1
    58    41    39    1
    59    50    44   am
    60   110   112    1
    61   110   111    1
    62    92    93    1
    63    45    44    2
    64     5     2    1
    65    24    21    1
    66    44    43    1
    67     2     3    1
    68     2     1    1
    69    21    22    1
    70     4     3    2
    71    35    34    1
    72    35    36    1
    73    35    38    1
    74    39    38    1
    75    93    94    1
    76     3     9   am
    77    36    37    2
    78    38    40    1
    79    22    23    2
    80    43    46    1
    81    43    42    1
    82    94    95   ar
    83    94    96   ar
    84    46    47    1
    85     9    10    1
    86    18    17    1
    87   113   114    1
    88   117   119    1
    89   117   118    1
    90   117   114    1
    91    16    15    2
    92    10    11    1
    93    15    14    1
    94   114   115    1
    95    47    49    1
    96    47    48    1
    97    17    14    1
    98    17    19    1
    99    11    12    2
   100    14    13    1
   101   115   116    2
   102    25    26    1
   103    26    29    1
   104    26    27    1
   105    29    30    1
   106    30    31    1
   107    31    32    1
   108    27    28    2
   109    32    33    1
