@<TRIPOS>MOLECULE
tmp/4bdgA00.pdb
 101 92 0 0 0
SMALL
GASTEIGER

@<TRIPOS>ATOM
      1  N        -44.7440   32.2310    7.8580 N.3    18  LEU18      -0.1231
      2  CA       -43.7030   31.5500    7.0970 C.3    18  LEU18       0.1693
      3  C        -43.2110   30.3450    7.9020 C.2    18  LEU18       0.2592
      4  O        -42.9900   29.2820    7.3260 O.2    18  LEU18      -0.2718
      5  CB       -42.5480   32.4970    6.7410 C.3    18  LEU18       0.0284
      6  CG       -42.9090   33.7540    5.9440 C.3    18  LEU18       0.0019
      7  CD1      -41.8960   34.8360    6.1800 C.3    18  LEU18       0.0001
      8  CD2      -43.0530   33.4660    4.4650 C.3    18  LEU18       0.0001
      9  N        -43.1060   30.5070    9.2230 N.am   19  GLY19      -0.1957
     10  CA       -42.6910   29.4390   10.1240 C.3    19  GLY19       0.1869
     11  C        -42.9840   29.6910   11.5890 C.2    19  GLY19       0.2309
     12  O        -42.4610   30.6450   12.1710 O.2    19  GLY19      -0.2863
     13  N        -42.6850   33.3360   12.6550 N.3    23  VAL23      -0.1245
     14  CA       -42.1170   34.1910   11.5940 C.3    23  VAL23       0.1561
     15  C        -43.1990   34.4930   10.5530 C.2    23  VAL23       0.2260
     16  O        -43.7660   33.5720    9.9510 O.2    23  VAL23      -0.2867
     17  CB       -40.7890   33.6440   10.9840 C.3    23  VAL23       0.0252
     18  CG1      -40.4390   34.3180    9.6590 C.3    23  VAL23       0.0019
     19  CG2      -39.6370   33.8150   11.9670 C.3    23  VAL23       0.0019
     20  N        -39.5510   39.9340    6.3270 N.3    36  ALA36      -0.1245
     21  CA       -39.9060   38.8540    7.2510 C.3    36  ALA36       0.1562
     22  C        -39.8850   39.4250    8.6750 C.2    36  ALA36       0.2260
     23  O        -38.9330   40.1210    9.0420 O.2    36  ALA36      -0.2867
     24  CB       -38.9310   37.7000    7.1280 C.3    36  ALA36       0.0290
     25  N        -27.9190   37.0780    7.7950 N.3    60  ILE60      -0.1245
     26  CA       -29.1850   37.8390    7.7900 C.3    60  ILE60       0.1561
     27  C        -29.0470   39.2900    8.3180 C.2    60  ILE60       0.2260
     28  O        -28.3110   39.5450    9.2830 O.2    60  ILE60      -0.2867
     29  CB       -30.3800   37.0570    8.4150 C.3    60  ILE60       0.0252
     30  CG1      -31.7270   37.4180    7.7550 C.3    60  ILE60       0.0019
     31  CG2      -30.4240   37.1470    9.9450 C.3    60  ILE60       0.0019
     32  CD1      -31.9390   36.8000    6.3660 C.3    60  ILE60       0.0001
     33  N        -36.5980   41.4830    9.3040 N.3    75  LEU75      -0.1231
     34  CA       -35.4500   40.9540    8.5680 C.3    75  LEU75       0.1693
     35  C        -35.7650   40.8860    7.0960 C.2    75  LEU75       0.2592
     36  O        -36.9440   40.9120    6.7140 O.2    75  LEU75      -0.2718
     37  CB       -35.1410   39.5160    9.0380 C.3    75  LEU75       0.0284
     38  CG       -34.9810   39.2510   10.5280 C.3    75  LEU75       0.0019
     39  CD1      -35.3800   37.8190   10.8500 C.3    75  LEU75       0.0001
     40  CD2      -33.5530   39.5750   11.0030 C.3    75  LEU75       0.0001
     41  N        -34.7200   40.7110    6.2700 N.am   76  GLU76      -0.1966
     42  CA       -34.8890   40.5360    4.8230 C.3    76  GLU76       0.1733
     43  C        -35.5670   39.1870    4.6070 C.2    76  GLU76       0.2616
     44  O        -35.2070   38.2020    5.2560 O.2    76  GLU76      -0.2715
     45  CB       -33.5400   40.4850    4.0820 C.3    76  GLU76       0.0429
     46  CG       -32.4220   41.3620    4.6170 C.3    76  GLU76       0.1163
     47  CD       -31.0610   40.9150    4.1220 C.2    76  GLU76       0.3649
     48  OE1      -30.5440   39.8960    4.6380 O.co2  76  GLU76      -0.2457
     49  OE2      -30.5210   41.5730    3.2020 O.co2  76  GLU76      -0.2457
     50  N        -36.5430   39.1400    3.7080 N.am   77  LEU77      -0.1963
     51  CA       -37.2390   37.9000    3.4050 C.3    77  LEU77       0.1728
     52  C        -36.3540   36.9920    2.5590 C.2    77  LEU77       0.2616
     53  O        -35.6510   37.4640    1.6580 O.2    77  LEU77      -0.2715
     54  CB       -38.5630   38.1860    2.6860 C.3    77  LEU77       0.0311
     55  CG       -39.4280   36.9760    2.3380 C.3    77  LEU77       0.0022
     56  CD1      -40.1890   36.4840    3.5510 C.3    77  LEU77       0.0001
     57  CD2      -40.3840   37.3070    1.2240 C.3    77  LEU77       0.0001
     58  N        -36.3960   35.6820    2.8760 N.am   78  MET78      -0.1977
     59  CA       -35.6740   34.5960    2.2090 C.3    78  MET78       0.1605
     60  C        -36.7290   33.6800    1.6500 C.2    78  MET78       0.2287
     61  O        -37.3710   32.9160    2.3910 O.2    78  MET78      -0.2864
     62  CB       -34.7420   33.8610    3.1840 C.3    78  MET78       0.0413
     63  CG       -33.6550   34.7330    3.7290 C.3    78  MET78       0.0598
     64  SD       -32.5370   35.3450    2.4580 S.3    78  MET78      -0.1393
     65  CE       -31.4710   34.0250    2.3590 C.3    78  MET78       0.0692
     66  N        -36.8620   29.7000    2.0340 N.3    81  GLY81      -0.1210
     67  CA       -37.1730   29.1760    3.3590 C.3    81  GLY81       0.1956
     68  C        -35.9660   28.5750    4.0430 C.2    81  GLY81       0.2611
     69  O        -34.8360   28.9930    3.7870 O.2    81  GLY81      -0.2717
     70  N        -36.1970   27.5800    4.9010 N.am   82  GLU82      -0.1979
     71  CA       -35.1480   26.9030    5.6670 C.3    82  GLU82       0.1602
     72  C        -34.4960   25.7870    4.8680 C.2    82  GLU82       0.2287
     73  O        -35.1920   25.0660    4.1460 O.2    82  GLU82      -0.2864
     74  CB       -35.7260   26.3000    6.9640 C.3    82  GLU82       0.0415
     75  CG       -36.1590   27.3170    8.0030 C.3    82  GLU82       0.1163
     76  CD       -36.9310   26.7560    9.1850 C.2    82  GLU82       0.3649
     77  OE1      -36.8960   25.5230    9.4210 O.co2  82  GLU82      -0.2457
     78  OE2      -37.5690   27.5710    9.8890 O.co2  82  GLU82      -0.2457
     79  N        -35.8510   22.0700    5.3930 N.3    85  ASP85      -0.1239
     80  CA       -36.9300   21.5620    4.5350 C.3    85  ASP85       0.1674
     81  C        -36.4330   20.8930    3.2410 C.2    85  ASP85       0.2266
     82  O        -37.2360   20.2820    2.5380 O.2    85  ASP85      -0.2867
     83  CB       -37.9660   22.6690    4.2290 C.3    85  ASP85       0.1410
     84  CG       -38.5530   23.3650    5.4510 C.2    85  ASP85       0.3668
     85  OD1      -39.0170   22.6540    6.3770 O.co2  85  ASP85      -0.2456
     86  OD2      -38.5690   24.6250    5.4720 O.co2  85  ASP85      -0.2456
     87  N        -30.8980   29.8300    5.8130 N.3   128  LEU128     -0.1245
     88  CA       -32.0180   30.2140    4.9400 C.3   128  LEU128      0.1561
     89  C        -31.5820   30.3690    3.5080 C.2   128  LEU128      0.2260
     90  O        -30.5440   30.9840    3.2520 O.2   128  LEU128     -0.2867
     91  CB       -32.6670   31.5350    5.3960 C.3   128  LEU128      0.0270
     92  CG       -33.0960   31.6860    6.8450 C.3   128  LEU128      0.0019
     93  CD1      -33.3650   33.1260    7.1560 C.3   128  LEU128      0.0001
     94  CD2      -34.3300   30.8760    7.1430 C.3   128  LEU128      0.0001
     95  N        -28.9950   32.5620   10.1120 N.3   141  THR141     -0.1218
     96  CA       -29.9710   33.2140   10.9930 C.3   141  THR141      0.1862
     97  C        -29.8910   32.6960   12.4610 C.2   141  THR141      0.2287
     98  O        -29.0730   31.8200   12.7490 O.2   141  THR141     -0.2866
     99  CB       -31.3620   33.2210   10.3160 C.3   141  THR141      0.1770
    100  OG1      -32.1330   34.3130   10.8140 O.3   141  THR141     -0.2211
    101  CG2      -32.1200   31.9250   10.4980 C.3   141  THR141      0.0375
@<TRIPOS>BOND
     1    57    55    1
     2    60    59    1
     3    60    61    2
     4    53    52    2
     5    66    67    1
     6    59    58    1
     7    59    62    1
     8    55    54    1
     9    55    56    1
    10    65    64    1
    11    64    63    1
    12    82    81    2
    13    52    58   am
    14    52    51    1
    15    54    51    1
    16    62    63    1
    17    49    47   ar
    18    81    80    1
    19    90    89    2
    20    67    68    1
    21    51    50    1
    22    89    88    1
    23    50    43   am
    24    69    68    2
    25    68    70   am
    26    45    46    1
    27    45    42    1
    28    47    46    1
    29    47    48   ar
    30    73    72    2
    31    83    80    1
    32    83    84    1
    33     8     6    1
    34    80    79    1
    35    43    42    1
    36    43    44    2
    37    42    41    1
    38    72    71    1
    39    70    71    1
    40    88    91    1
    41    88    87    1
    42    91    92    1
    43    84    86   ar
    44    84    85   ar
    45    71    74    1
    46     6     7    1
    47     6     5    1
    48    41    35   am
    49    20    21    1
    50    32    30    1
    51    36    35    2
    52     5     2    1
    53    92    94    1
    54    92    93    1
    55    74    75    1
    56    35    34    1
    57     2     1    1
    58     2     3    1
    59    24    21    1
    60    21    22    1
    61     4     3    2
    62    30    29    1
    63    26    25    1
    64    26    27    1
    65    26    29    1
    66     3     9   am
    67    75    76    1
    68    27    28    2
    69    29    31    1
    70    34    37    1
    71    34    33    1
    72    22    23    2
    73    37    38    1
    74    76    77   ar
    75    76    78   ar
    76     9    10    1
    77    18    17    1
    78    16    15    2
    79    95    96    1
    80    10    11    1
    81    99   101    1
    82    99   100    1
    83    99    96    1
    84    38    39    1
    85    38    40    1
    86    15    14    1
    87    17    14    1
    88    17    19    1
    89    96    97    1
    90    11    12    2
    91    14    13    1
    92    97    98    2
