@<TRIPOS>MOLECULE
tmp/4bdhA00.pdb
 107 97 0 0 0
SMALL
GASTEIGER

@<TRIPOS>ATOM
      1  N        -45.0780   32.5440    8.5330 N.3    17  LEU17      -0.1245
      2  CA       -43.9770   31.8890    7.8230 C.3    17  LEU17       0.1561
      3  C        -42.9730   31.3240    8.8160 C.2    17  LEU17       0.2260
      4  O        -43.2020   30.2600    9.3810 O.2    17  LEU17      -0.2867
      5  CB       -43.2590   32.8740    6.8770 C.3    17  LEU17       0.0270
      6  CG       -44.0980   33.6790    5.8720 C.3    17  LEU17       0.0019
      7  CD1      -43.2200   34.5800    5.0760 C.3    17  LEU17       0.0001
      8  CD2      -44.8850   32.7750    4.9200 C.3    17  LEU17       0.0001
      9  N        -42.8970   33.8000   13.0840 N.3    19  VAL19      -0.1245
     10  CA       -42.4140   34.6440   11.9770 C.3    19  VAL19       0.1561
     11  C        -43.5730   34.9090   11.0130 C.2    19  VAL19       0.2260
     12  O        -44.2080   33.9650   10.5420 O.2    19  VAL19      -0.2867
     13  CB       -41.1610   34.0470   11.2600 C.3    19  VAL19       0.0252
     14  CG1      -40.7870   34.8330   10.0030 C.3    19  VAL19       0.0019
     15  CG2      -39.9700   33.9730   12.2050 C.3    19  VAL19       0.0019
     16  N        -40.0750   40.0550    6.8050 N.3    32  ALA32      -0.1245
     17  CA       -40.4170   38.9840    7.7440 C.3    32  ALA32       0.1562
     18  C        -40.3940   39.5960    9.1450 C.2    32  ALA32       0.2260
     19  O        -39.4360   40.2980    9.4930 O.2    32  ALA32      -0.2867
     20  CB       -39.4070   37.8520    7.6530 C.3    32  ALA32       0.0290
     21  N        -40.2900   38.6720   13.0130 N.3    34  LYS34      -0.1245
     22  CA       -40.0430   37.6700   14.0530 C.3    34  LYS34       0.1561
     23  C        -40.6040   38.2200   15.3760 C.2    34  LYS34       0.2260
     24  O        -40.1460   39.2540   15.8790 O.2    34  LYS34      -0.2867
     25  CB       -38.5340   37.3480   14.1700 C.3    34  LYS34       0.0271
     26  CG       -38.2600   36.0550   14.9220 C.3    34  LYS34       0.0035
     27  CD       -36.7580   35.8260   15.0290 C.3    34  LYS34       0.0206
     28  CE       -36.4040   34.8760   16.1660 C.3    34  LYS34       0.1093
     29  NZ       -34.9240   34.6350   16.1820 N.3    34  LYS34      -0.1314
     30  N        -28.3210   37.2240    7.6910 N.3    56  ILE56      -0.1245
     31  CA       -29.5970   37.9660    7.7050 C.3    56  ILE56       0.1561
     32  C        -29.4480   39.3960    8.2900 C.2    56  ILE56       0.2260
     33  O        -28.6710   39.5950    9.2360 O.2    56  ILE56      -0.2867
     34  CB       -30.6930   37.1490    8.4640 C.3    56  ILE56       0.0252
     35  CG1      -32.1330   37.5230    8.0220 C.3    56  ILE56       0.0019
     36  CG2      -30.5180   37.1740   10.0120 C.3    56  ILE56       0.0019
     37  CD1      -32.4990   37.0740    6.6220 C.3    56  ILE56       0.0001
     38  N        -37.0320   41.6410    9.5910 N.3    71  LEU71      -0.1231
     39  CA       -35.9060   41.0310    8.8850 C.3    71  LEU71       0.1693
     40  C        -36.1770   40.8750    7.3960 C.2    71  LEU71       0.2592
     41  O        -37.3350   40.9100    6.9650 O.2    71  LEU71      -0.2718
     42  CB       -35.6080   39.6290    9.4920 C.3    71  LEU71       0.0284
     43  CG       -35.2460   39.5420   10.9950 C.3    71  LEU71       0.0019
     44  CD1      -35.5890   38.1770   11.5570 C.3    71  LEU71       0.0001
     45  CD2      -33.7640   39.8950   11.2710 C.3    71  LEU71       0.0001
     46  N        -35.0930   40.6530    6.6150 N.am   72  GLU72      -0.1966
     47  CA       -35.1350   40.3760    5.1740 C.3    72  GLU72       0.1733
     48  C        -35.9490   39.1160    4.9930 C.2    72  GLU72       0.2616
     49  O        -35.8110   38.1780    5.7820 O.2    72  GLU72      -0.2715
     50  CB       -33.7280   40.0780    4.6270 C.3    72  GLU72       0.0429
     51  CG       -32.7060   41.1900    4.8050 C.3    72  GLU72       0.1163
     52  CD       -31.3210   40.8630    4.2710 C.2    72  GLU72       0.3649
     53  OE1      -30.6620   39.9400    4.8120 O.co2  72  GLU72      -0.2457
     54  OE2      -30.8910   41.5460    3.3100 O.co2  72  GLU72      -0.2457
     55  N        -36.8150   39.0960    3.9850 N.am   73  LEU73      -0.1963
     56  CA       -37.6280   37.9280    3.7010 C.3    73  LEU73       0.1728
     57  C        -36.8620   37.0140    2.7680 C.2    73  LEU73       0.2616
     58  O        -36.3380   37.4500    1.7380 O.2    73  LEU73      -0.2715
     59  CB       -38.9560   38.3250    3.0710 C.3    73  LEU73       0.0311
     60  CG       -39.9110   37.1770    2.8120 C.3    73  LEU73       0.0022
     61  CD1      -40.6190   36.7920    4.0830 C.3    73  LEU73       0.0001
     62  CD2      -40.8840   37.5140    1.6990 C.3    73  LEU73       0.0001
     63  N        -36.8020   35.7390    3.1390 N.am   74  MET74      -0.1977
     64  CA       -36.1230   34.6970    2.3880 C.3    74  MET74       0.1605
     65  C        -37.1930   33.7920    1.8510 C.2    74  MET74       0.2287
     66  O        -37.8390   33.0660    2.6110 O.2    74  MET74      -0.2864
     67  CB       -35.1030   33.9590    3.2720 C.3    74  MET74       0.0413
     68  CG       -34.0150   34.8640    3.7840 C.3    74  MET74       0.0598
     69  SD       -32.9560   35.4100    2.4410 S.3    74  MET74      -0.1393
     70  CE       -31.8540   34.0670    2.3600 C.3    74  MET74       0.0692
     71  N        -37.3070   29.6220    2.0660 N.3    77  GLY77      -0.1210
     72  CA       -37.4980   29.0380    3.3880 C.3    77  GLY77       0.1956
     73  C        -36.2270   28.4570    3.9810 C.2    77  GLY77       0.2611
     74  O        -35.1160   28.8690    3.6280 O.2    77  GLY77      -0.2717
     75  N        -36.3940   27.4620    4.8550 N.am   78  GLU78      -0.1979
     76  CA       -35.3360   26.7690    5.5920 C.3    78  GLU78       0.1602
     77  C        -34.6630   25.6610    4.8050 C.2    78  GLU78       0.2287
     78  O        -35.3300   24.9530    4.0450 O.2    78  GLU78      -0.2864
     79  CB       -35.9190   26.1510    6.8760 C.3    78  GLU78       0.0415
     80  CG       -36.3240   27.1680    7.9240 C.3    78  GLU78       0.1163
     81  CD       -37.1590   26.6250    9.0680 C.2    78  GLU78       0.3649
     82  OE1      -37.1200   25.3970    9.3240 O.co2  78  GLU78      -0.2457
     83  OE2      -37.8450   27.4430    9.7230 O.co2  78  GLU78      -0.2457
     84  N        -32.3580   24.3200   10.2450 N.3   121  GLU121     -0.1245
     85  CA       -33.5030   25.2280   10.4730 C.3   121  GLU121      0.1567
     86  C        -33.1590   26.7130   10.6550 C.2   121  GLU121      0.2260
     87  O        -34.0540   27.5600   10.5970 O.2   121  GLU121     -0.2867
     88  CB       -34.5770   24.7040   11.4540 C.3   121  GLU121      0.0388
     89  CG       -34.0700   24.0300   12.7010 C.3   121  GLU121      0.1160
     90  CD       -33.8630   22.5360   12.5640 C.2   121  GLU121      0.3649
     91  OE1      -34.8380   21.7840   12.7860 O.co2 121  GLU121     -0.2457
     92  OE2      -32.7190   22.1120   12.2820 O.co2 121  GLU121     -0.2457
     93  N        -31.3840   29.8380    5.8820 N.3   124  LEU124     -0.1245
     94  CA       -32.4580   30.2550    4.9860 C.3   124  LEU124      0.1561
     95  C        -31.9580   30.3650    3.5750 C.2   124  LEU124      0.2260
     96  O        -30.8370   30.8610    3.3690 O.2   124  LEU124     -0.2867
     97  CB       -32.9840   31.6260    5.4010 C.3   124  LEU124      0.0270
     98  CG       -33.4850   31.7940    6.8180 C.3   124  LEU124      0.0019
     99  CD1      -33.7010   33.2550    7.1290 C.3   124  LEU124      0.0001
    100  CD2      -34.7530   30.9930    7.0610 C.3   124  LEU124      0.0001
    101  N        -29.2610   32.7750   10.1690 N.3   137  THR137     -0.1218
    102  CA       -30.2390   33.4360   11.0340 C.3   137  THR137      0.1862
    103  C        -30.2050   32.8410   12.4720 C.2   137  THR137      0.2287
    104  O        -29.4670   31.8780   12.7200 O.2   137  THR137     -0.2866
    105  CB       -31.6410   33.3830   10.3410 C.3   137  THR137      0.1770
    106  OG1      -32.5250   34.3300   10.9330 O.3   137  THR137     -0.2211
    107  CG2      -32.2860   32.0100   10.3870 C.3   137  THR137      0.0375
@<TRIPOS>BOND
     1    62    60    1
     2    58    57    2
     3    65    64    1
     4    65    66    2
     5    71    72    1
     6    70    69    1
     7    64    63    1
     8    64    67    1
     9    69    68    1
    10    57    63   am
    11    57    56    1
    12    60    59    1
    13    60    61    1
    14    59    56    1
    15    67    68    1
    16    54    52   ar
    17    96    95    2
    18    72    73    1
    19    95    94    1
    20    74    73    2
    21    56    55    1
    22    73    75   am
    23    55    48   am
    24    78    77    2
    25    52    51    1
    26    52    53   ar
    27    50    51    1
    28    50    47    1
    29    77    76    1
    30    75    76    1
    31     8     6    1
    32    94    97    1
    33    94    93    1
    34    48    47    1
    35    48    49    2
    36     7     6    1
    37    47    46    1
    38    97    98    1
    39    76    79    1
    40     6     5    1
    41    46    40   am
    42    37    35    1
    43    16    17    1
    44    98   100    1
    45    98    99    1
    46    79    80    1
    47     5     2    1
    48    41    40    2
    49    40    39    1
    50    20    17    1
    51    30    31    1
    52    31    32    1
    53    31    34    1
    54    17    18    1
    55     2     1    1
    56     2     3    1
    57    80    81    1
    58    35    34    1
    59    32    33    2
    60    34    36    1
    61     3     4    2
    62    39    42    1
    63    39    38    1
    64    81    82   ar
    65    81    83   ar
    66    18    19    2
    67    42    43    1
    68    14    13    1
    69   101   102    1
    70    84    85    1
    71   105   107    1
    72   105   106    1
    73   105   102    1
    74    85    86    1
    75    85    88    1
    76    12    11    2
    77    87    86    2
    78    43    45    1
    79    43    44    1
    80    11    10    1
    81   102   103    1
    82    13    10    1
    83    13    15    1
    84    88    89    1
    85    10     9    1
    86    92    90   ar
    87   103   104    2
    88    90    89    1
    89    90    91   ar
    90    21    22    1
    91    22    25    1
    92    22    23    1
    93    25    26    1
    94    26    27    1
    95    27    28    1
    96    23    24    2
    97    28    29    1
