@<TRIPOS>MOLECULE
tmp/4bdiA00.pdb
 120 111 0 0 0
SMALL
GASTEIGER

@<TRIPOS>ATOM
      1  N         -6.8560   60.9030    8.6600 N.3    16  LYS16      -0.1245
      2  CA        -5.6970   60.1070    8.2410 C.3    16  LYS16       0.1561
      3  C         -6.0050   58.8880    7.3660 C.2    16  LYS16       0.2260
      4  O         -7.0980   58.3240    7.4390 O.2    16  LYS16      -0.2867
      5  CB        -4.8860   59.6860    9.4790 C.3    16  LYS16       0.0271
      6  CG        -5.6010   58.7920   10.4300 C.3    16  LYS16       0.0035
      7  CD        -4.6090   58.2310   11.4540 C.3    16  LYS16       0.0206
      8  CE        -5.4230   57.5160   12.4980 C.3    16  LYS16       0.1093
      9  NZ        -4.4780   56.8020   13.3900 N.3    16  LYS16      -0.1314
     10  N         -5.5590   55.0030    6.3940 N.3    18  LEU18      -0.1245
     11  CA        -5.3690   53.7560    7.1500 C.3    18  LEU18       0.1561
     12  C         -4.6550   52.6390    6.3600 C.2    18  LEU18       0.2260
     13  O         -4.2880   51.6140    6.9460 O.2    18  LEU18      -0.2867
     14  CB        -6.7230   53.2430    7.6870 C.3    18  LEU18       0.0270
     15  CG        -7.4640   54.1380    8.6820 C.3    18  LEU18       0.0019
     16  CD1       -8.8980   53.7060    8.8220 C.3    18  LEU18       0.0001
     17  CD2       -6.7840   54.1580   10.0380 C.3    18  LEU18       0.0001
     18  N         -7.9280   53.3160    2.1650 N.3    22  VAL22      -0.1245
     19  CA        -8.8990   53.3870    3.2580 C.3    22  VAL22       0.1561
     20  C         -8.5180   54.5750    4.1540 C.2    22  VAL22       0.2260
     21  O         -7.3550   54.6960    4.5460 O.2    22  VAL22      -0.2867
     22  CB        -9.0450   52.0370    4.0310 C.3    22  VAL22       0.0252
     23  CG1       -9.9570   52.1760    5.2530 C.3    22  VAL22       0.0019
     24  CG2       -9.5640   50.9260    3.1120 C.3    22  VAL22       0.0019
     25  N        -14.5570   53.9770    8.6960 N.3    35  ALA35      -0.1245
     26  CA       -13.4660   53.7830    7.7510 C.3    35  ALA35       0.1562
     27  C        -14.0940   54.0270    6.3800 C.2    35  ALA35       0.2260
     28  O        -15.2240   53.5820    6.1170 O.2    35  ALA35      -0.2867
     29  CB       -12.9230   52.3660    7.8440 C.3    35  ALA35       0.0290
     30  N        -17.9710   42.5040    7.9870 N.3    61  ILE61      -0.1245
     31  CA       -18.0210   43.9730    7.9810 C.3    61  ILE61       0.1561
     32  C        -19.3810   44.5030    7.4220 C.2    61  ILE61       0.2260
     33  O        -19.9910   43.8730    6.5500 O.2    61  ILE61      -0.2867
     34  CB       -16.8060   44.5420    7.1980 C.3    61  ILE61       0.0252
     35  CG1      -16.4290   45.9720    7.6600 C.3    61  ILE61       0.0019
     36  CG2      -16.9920   44.4470    5.6550 C.3    61  ILE61       0.0019
     37  CD1      -15.5520   46.0300    8.8820 C.3    61  ILE61       0.0001
     38  N        -17.5450   52.2320    5.8270 N.3    76  LEU76      -0.1231
     39  CA       -17.6320   50.9770    6.5800 C.3    76  LEU76       0.1693
     40  C        -17.3970   51.1870    8.0520 C.2    76  LEU76       0.2592
     41  O        -16.8630   52.2250    8.4520 O.2    76  LEU76      -0.2718
     42  CB       -16.5980   49.9490    6.0310 C.3    76  LEU76       0.0284
     43  CG       -16.7080   49.5620    4.5350 C.3    76  LEU76       0.0019
     44  CD1      -15.3590   49.1020    3.9930 C.3    76  LEU76       0.0001
     45  CD2      -17.7450   48.4660    4.3010 C.3    76  LEU76       0.0001
     46  N        -17.7300   50.1790    8.8680 N.am   77  GLU77      -0.1966
     47  CA       -17.4240   50.2880   10.2870 C.3    77  GLU77       0.1733
     48  C        -15.9070   50.2290   10.5110 C.2    77  GLU77       0.2616
     49  O        -15.1740   49.6260    9.7090 O.2    77  GLU77      -0.2715
     50  CB       -18.2070   49.2780   11.1430 C.3    77  GLU77       0.0429
     51  CG       -18.0830   47.8110   10.7540 C.3    77  GLU77       0.1163
     52  CD       -19.2600   46.9250   11.1350 C.2    77  GLU77       0.3649
     53  OE1      -20.1190   47.3580   11.9410 O.co2  77  GLU77      -0.2457
     54  OE2      -19.3240   45.7870   10.6160 O.co2  77  GLU77      -0.2457
     55  N        -15.4320   50.9450   11.5430 N.am   78  LEU78      -0.1963
     56  CA       -14.0110   50.9850   11.8690 C.3    78  LEU78       0.1728
     57  C        -13.6310   49.8470   12.7970 C.2    78  LEU78       0.2616
     58  O        -14.3150   49.5730   13.7900 O.2    78  LEU78      -0.2715
     59  CB       -13.5790   52.3350   12.4610 C.3    78  LEU78       0.0311
     60  CG       -12.0590   52.4770   12.6290 C.3    78  LEU78       0.0022
     61  CD1      -11.3920   52.9560   11.3560 C.3    78  LEU78       0.0001
     62  CD2      -11.7030   53.3110   13.8110 C.3    78  LEU78       0.0001
     63  N        -12.5310   49.1910   12.4660 N.am   79  MET79      -0.1963
     64  CA       -12.0030   48.0710   13.2460 C.3    79  MET79       0.1736
     65  C        -10.6970   48.5420   13.8300 C.2    79  MET79       0.2616
     66  O         -9.7670   48.8360   13.0860 O.2    79  MET79      -0.2715
     67  CB       -11.8390   46.8300   12.3570 C.3    79  MET79       0.0427
     68  CG       -13.1500   46.3600   11.7830 C.3    79  MET79       0.0599
     69  SD       -14.2880   45.7940   13.0600 S.3    79  MET79      -0.1393
     70  CE       -13.6880   44.1390   13.2650 C.3    79  MET79       0.0692
     71  N        -10.6650   48.6960   15.1530 N.am   80  GLU80      -0.1963
     72  CA        -9.5220   49.2350   15.8820 C.3    80  GLU80       0.1733
     73  C         -8.2470   48.3970   15.9350 C.2    80  GLU80       0.2617
     74  O         -7.1630   48.9650   16.0220 O.2    80  GLU80      -0.2715
     75  CB        -9.9440   49.7920   17.2540 C.3    80  GLU80       0.0429
     76  CG       -10.2200   51.2890   17.2020 C.3    80  GLU80       0.1163
     77  CD       -11.1840   51.8230   18.2420 C.2    80  GLU80       0.3649
     78  OE1      -11.1920   51.3110   19.3870 O.co2  80  GLU80      -0.2457
     79  OE2      -11.9170   52.7830   17.9150 O.co2  80  GLU80      -0.2457
     80  N         -8.3670   47.0800   15.8360 N.am   81  GLY81      -0.1940
     81  CA        -7.1960   46.2050   15.8650 C.3    81  GLY81       0.2014
     82  C         -6.4840   46.0020   14.5380 C.2    81  GLY81       0.2639
     83  O         -5.4560   45.3250   14.4850 O.2    81  GLY81      -0.2714
     84  N         -7.0460   46.5570   13.4650 N.am   82  GLY82      -0.1939
     85  CA        -6.5050   46.4310   12.1190 C.3    82  GLY82       0.2014
     86  C         -6.5810   45.0210   11.5640 C.2    82  GLY82       0.2638
     87  O         -7.3720   44.1970   12.0200 O.2    82  GLY82      -0.2714
     88  N         -5.7260   44.7370   10.5990 N.am   83  GLU83      -0.1977
     89  CA        -5.6660   43.4600    9.8850 C.3    83  GLU83       0.1602
     90  C         -4.9980   42.3570   10.6670 C.2    83  GLU83       0.2287
     91  O         -3.9880   42.5970   11.3300 O.2    83  GLU83      -0.2864
     92  CB        -4.8950   43.6250    8.5680 C.3    83  GLU83       0.0415
     93  CG        -5.4510   44.6970    7.6580 C.3    83  GLU83       0.1163
     94  CD        -4.6230   44.9970    6.4270 C.2    83  GLU83       0.3649
     95  OE1       -3.5050   44.4470    6.2870 O.co2  83  GLU83      -0.2457
     96  OE2       -5.1070   45.7940    5.5920 O.co2  83  GLU83      -0.2457
     97  N        -10.2480   41.5460    9.6980 N.3   129  LEU129     -0.1245
     98  CA       -10.0440   42.6880   10.6010 C.3   129  LEU129      0.1561
     99  C        -10.3620   42.3240   12.0090 C.2   129  LEU129      0.2260
    100  O        -11.3070   41.5820   12.2350 O.2   129  LEU129     -0.2867
    101  CB       -10.8950   43.8950   10.1660 C.3   129  LEU129      0.0270
    102  CG       -10.6820   44.3810    8.7410 C.3   129  LEU129      0.0019
    103  CD1      -11.7040   45.4350    8.3660 C.3   129  LEU129      0.0001
    104  CD2       -9.2640   44.8750    8.5130 C.3   129  LEU129      0.0001
    105  N         -7.5120   45.9270   20.0040 N.3   133  GLN133     -0.1245
    106  CA        -6.0770   45.6950   20.1940 C.3   133  GLN133      0.1566
    107  C         -5.8320   44.5020   21.1550 C.2   133  GLN133      0.2260
    108  O         -4.7050   44.0190   21.2770 O.2   133  GLN133     -0.2867
    109  CB        -5.3950   46.9750   20.7230 C.3   133  GLN133      0.0367
    110  CG        -5.1930   48.0710   19.6740 C.3   133  GLN133      0.0905
    111  CD        -6.3520   49.0410   19.5770 C.2   133  GLN133      0.2608
    112  OE1       -7.2690   49.0640   20.4160 O.2   133  GLN133     -0.2717
    113  NE2       -6.3210   49.8890   18.5500 N.am  133  GLN133     -0.0878
    114  N        -13.7680   41.1260    5.4410 N.3   142  THR142     -0.1218
    115  CA       -13.9730   42.3110    4.6230 C.3   142  THR142      0.1862
    116  C        -13.5070   42.0420    3.1860 C.2   142  THR142      0.2287
    117  O        -13.0420   40.9240    2.8720 O.2   142  THR142     -0.2866
    118  CB       -13.2470   43.5140    5.2910 C.3   142  THR142      0.1770
    119  OG1      -13.7230   44.7260    4.7030 O.3   142  THR142     -0.2211
    120  CG2      -11.7110   43.4260    5.1740 C.3   142  THR142      0.0375
@<TRIPOS>BOND
     1    18    19    1
     2   117   116    2
     3    24    22    1
     4   116   115    1
     5    19    22    1
     6    19    20    1
     7    44    43    1
     8    22    23    1
     9    20    21    2
    10    45    43    1
    11    43    42    1
    12   115   118    1
    13   115   114    1
    14   119   118    1
    15   120   118    1
    16    96    94   ar
    17    36    34    1
    18    38    39    1
    19    42    39    1
    20    28    27    2
    21    95    94   ar
    22    12    13    2
    23    12    11    1
    24    27    26    1
    25    10    11    1
    26    94    93    1
    27    33    32    2
    28    39    40    1
    29    11    14    1
    30    34    35    1
    31    34    31    1
    32     3     4    2
    33     3     2    1
    34    32    31    1
    35    93    92    1
    36    35    37    1
    37    14    15    1
    38    26    29    1
    39    26    25    1
    40    31    30    1
    41    40    41    2
    42    40    46   am
    43     2     1    1
    44     2     5    1
    45   103   102    1
    46   104   102    1
    47    92    89    1
    48    15    16    1
    49    15    17    1
    50   102   101    1
    51    46    47    1
    52     5     6    1
    53    97    98    1
    54    49    48    2
    55    89    88    1
    56    89    90    1
    57   101    98    1
    58    47    48    1
    59    47    50    1
    60     6     7    1
    61    48    55   am
    62    88    86   am
    63    98    99    1
    64    54    52   ar
    65    90    91    2
    66    51    52    1
    67    51    50    1
    68    52    53   ar
    69    61    60    1
    70     7     8    1
    71    55    56    1
    72    86    87    2
    73    86    85    1
    74    68    67    1
    75    68    69    1
    76    56    59    1
    77    56    57    1
    78    99   100    2
    79    85    84    1
    80    67    64    1
    81    59    60    1
    82    63    57   am
    83    63    64    1
    84     8     9    1
    85    60    62    1
    86    57    58    2
    87    69    70    1
    88    66    65    2
    89    64    65    1
    90    84    82   am
    91    65    71   am
    92    83    82    2
    93    82    81    1
    94    71    72    1
    95    80    81    1
    96    80    73   am
    97    72    73    1
    98    72    75    1
    99    73    74    2
   100    76    75    1
   101    76    77    1
   102    79    77   ar
   103    77    78   ar
   104   113   111   am
   105   111   110    1
   106   111   112    2
   107   110   109    1
   108   105   106    1
   109   106   109    1
   110   106   107    1
   111   107   108    2
