@<TRIPOS>MOLECULE
tmp/4bdjA00.pdb
 118 108 0 0 0
SMALL
GASTEIGER

@<TRIPOS>ATOM
      1  N         50.8920   22.9060   -7.2550 N.3    16  LEU16      -0.1231
      2  CA        49.7260   22.3380   -7.9560 C.3    16  LEU16       0.1693
      3  C         48.4050   22.5290   -7.1800 C.2    16  LEU16       0.2592
      4  O         47.3390   22.5830   -7.8010 O.2    16  LEU16      -0.2718
      5  CB        49.9370   20.8450   -8.2950 C.3    16  LEU16       0.0284
      6  CG        51.1800   20.4580   -9.1080 C.3    16  LEU16       0.0019
      7  CD1       51.5900   19.0620   -8.7870 C.3    16  LEU16       0.0001
      8  CD2       50.9560   20.6120  -10.6070 C.3    16  LEU16       0.0001
      9  N         48.4960   22.6350   -5.8500 N.am   17  GLY17      -0.1957
     10  CA        47.3530   22.8360   -4.9650 C.3    17  GLY17       0.1869
     11  C         47.7410   23.3010   -3.5770 C.2    17  GLY17       0.2309
     12  O         48.3090   22.5330   -2.8000 O.2    17  GLY17      -0.2863
     13  N         50.6100   20.4630   -2.5960 N.3    19  VAL19      -0.1245
     14  CA        51.1320   19.5520   -3.6380 C.3    19  VAL19       0.1561
     15  C         51.9260   20.3270   -4.7070 C.2    19  VAL19       0.2260
     16  O         51.4190   21.3010   -5.2600 O.2    19  VAL19      -0.2867
     17  CB        50.0720   18.5590   -4.2060 C.3    19  VAL19       0.0252
     18  CG1       48.9470   19.2880   -4.9270 C.3    19  VAL19       0.0019
     19  CG2       50.7050   17.5120   -5.1130 C.3    19  VAL19       0.0019
     20  N         54.7220   14.5500   -9.0050 N.3    32  ALA32      -0.1245
     21  CA        53.9840   15.3900   -8.0690 C.3    32  ALA32       0.1562
     22  C         54.4830   15.0470   -6.6700 C.2    32  ALA32       0.2260
     23  O         54.6510   13.8680   -6.3300 O.2    32  ALA32      -0.2867
     24  CB        52.4960   15.1330   -8.1790 C.3    32  ALA32       0.0290
     25  N         53.5100   15.5810   -2.8480 N.3    34  LYS34      -0.1245
     26  CA        52.5520   16.0010   -1.8330 C.3    34  LYS34       0.1561
     27  C         53.2780   16.1470   -0.4930 C.2    34  LYS34       0.2260
     28  O         53.7980   15.1650    0.0540 O.2    34  LYS34      -0.2867
     29  CB        51.3590   15.0230   -1.7300 C.3    34  LYS34       0.0271
     30  CG        50.1420   15.5930   -1.0820 C.3    34  LYS34       0.0035
     31  CD        49.0950   14.5020   -0.9510 C.3    34  LYS34       0.0206
     32  CE        48.2020   14.7280    0.2690 C.3    34  LYS34       0.1093
     33  NZ        48.9670   14.7690    1.5750 N.3    34  LYS34      -0.1314
     34  N         46.3340    5.7880   -7.5060 N.3    56  ILE56      -0.1245
     35  CA        47.5960    6.5210   -7.5180 C.3    56  ILE56       0.1561
     36  C         48.7710    5.6530   -7.0040 C.2    56  ILE56       0.2260
     37  O         48.5830    4.7990   -6.1200 O.2    56  ILE56      -0.2867
     38  CB        47.4620    7.9020   -6.8280 C.3    56  ILE56       0.0252
     39  CG1       48.3820    8.9500   -7.4780 C.3    56  ILE56       0.0019
     40  CG2       47.6330    7.8250   -5.3040 C.3    56  ILE56       0.0019
     41  CD1       47.9060    9.4740   -8.8330 C.3    56  ILE56       0.0001
     42  N         54.4600   11.1070   -6.1260 N.3    71  LEU71      -0.1231
     43  CA        53.4220   10.4350   -6.9050 C.3    71  LEU71       0.1693
     44  C         53.5330   10.7100   -8.3950 C.2    71  LEU71       0.2592
     45  O         54.1280   11.7110   -8.7930 O.2    71  LEU71      -0.2718
     46  CB        52.0480   10.9250   -6.4250 C.3    71  LEU71       0.0284
     47  CG        51.7530   10.7890   -4.9320 C.3    71  LEU71       0.0019
     48  CD1       50.8160   11.8830   -4.4580 C.3    71  LEU71       0.0001
     49  CD2       51.2680    9.3790   -4.5860 C.3    71  LEU71       0.0001
     50  N         52.9090    9.8560   -9.2190 N.am   72  GLU72      -0.1966
     51  CA        52.8550   10.0710  -10.6700 C.3    72  GLU72       0.1733
     52  C         52.0510   11.3510  -10.8940 C.2    72  GLU72       0.2616
     53  O         51.0900   11.5770  -10.1670 O.2    72  GLU72      -0.2715
     54  CB        52.2210    8.8650  -11.4060 C.3    72  GLU72       0.0429
     55  CG        50.9380    8.2880  -10.7910 C.3    72  GLU72       0.1163
     56  CD        50.6110    6.8140  -11.0190 C.2    72  GLU72       0.3649
     57  OE1       51.3800    6.1180  -11.7260 O.co2  72  GLU72      -0.2457
     58  OE2       49.5810    6.3520  -10.4750 O.co2  72  GLU72      -0.2457
     59  N         52.4880   12.2320  -11.8040 N.am   73  LEU73      -0.1963
     60  CA        51.7750   13.4990  -12.0170 C.3    73  LEU73       0.1728
     61  C         50.5150   13.3470  -12.8570 C.2    73  LEU73       0.2616
     62  O         50.5340   12.7020  -13.9150 O.2    73  LEU73      -0.2715
     63  CB        52.6990   14.5840  -12.5980 C.3    73  LEU73       0.0311
     64  CG        52.0640   15.9520  -12.8540 C.3    73  LEU73       0.0022
     65  CD1       51.8710   16.7230  -11.5610 C.3    73  LEU73       0.0001
     66  CD2       52.8650   16.7600  -13.8630 C.3    73  LEU73       0.0001
     67  N         49.4190   13.9550  -12.3770 N.am   74  MET74      -0.1977
     68  CA        48.1250   13.9410  -13.0560 C.3    74  MET74       0.1605
     69  C         47.8790   15.2960  -13.6940 C.2    74  MET74       0.2287
     70  O         47.5800   16.2790  -12.9960 O.2    74  MET74      -0.2864
     71  CB        46.9970   13.5320  -12.0940 C.3    74  MET74       0.0413
     72  CG        47.1860   12.1560  -11.5070 C.3    74  MET74       0.0598
     73  SD        47.2490   10.8570  -12.7560 S.3    74  MET74      -0.1393
     74  CE        45.5580   10.5350  -12.9140 C.3    74  MET74       0.0692
     75  N         44.3030   17.4360  -13.2700 N.3    77  GLY77      -0.1210
     76  CA        43.8880   17.8990  -11.9510 C.3    77  GLY77       0.1956
     77  C         42.7510   17.0880  -11.3600 C.2    77  GLY77       0.2614
     78  O         42.5550   15.9290  -11.7370 O.2    77  GLY77      -0.2717
     79  N         41.9920   17.6950  -10.4420 N.am   78  GLU78      -0.1933
     80  CA        40.8740   17.0390   -9.7510 C.3    78  GLU78       0.1818
     81  C         39.6200   16.9410  -10.6030 C.2    78  GLU78       0.2332
     82  O         39.3600   17.8250  -11.4310 O.2    78  GLU78      -0.2860
     83  CB        40.5010   17.8010   -8.4640 C.2    78  GLU78       0.0097
     84  CG        41.5470   17.7920   -7.3560 C.2    78  GLU78       0.0837
     85  CD        41.3900   18.8830   -6.3080 C.2    78  GLU78       0.3877
     86  OE1       40.3580   19.5960   -6.3140 O.co2  78  GLU78      -0.2406
     87  OE2       42.3110   19.0180   -5.4690 O.co2  78  GLU78      -0.2406
     88  N         37.1760   20.0430  -10.0230 N.3    81  ASP81      -0.1239
     89  CA        37.3150   21.2210  -10.8970 C.3    81  ASP81       0.1674
     90  C         36.4570   21.1350  -12.1720 C.2    81  ASP81       0.2266
     91  O         36.2340   22.1620  -12.8120 O.2    81  ASP81      -0.2867
     92  CB        38.7950   21.4630  -11.2770 C.3    81  ASP81       0.1410
     93  CG        39.7390   21.7200  -10.1100 C.2    81  ASP81       0.3668
     94  OD1       39.4210   22.6090   -9.2630 O.co2  81  ASP81      -0.2456
     95  OD2       40.8250   21.0690  -10.0640 O.co2  81  ASP81      -0.2456
     96  N         41.5360   12.0910   -9.5220 N.3   124  LEU124     -0.1245
     97  CA        42.3800   12.8750  -10.4100 C.3   124  LEU124      0.1561
     98  C         42.3020   12.4010  -11.8350 C.2   124  LEU124      0.2260
     99  O         42.3430   11.1950  -12.0960 O.2   124  LEU124     -0.2867
    100  CB        43.8330   12.8540   -9.9640 C.3   124  LEU124      0.0270
    101  CG        44.1110   13.1620   -8.5220 C.3   124  LEU124      0.0019
    102  CD1       45.4440   12.6040   -8.1380 C.3   124  LEU124      0.0001
    103  CD2       44.0290   14.6550   -8.2550 C.3   124  LEU124      0.0001
    104  N         42.9170    8.9320   -5.0490 N.3   137  THR137     -0.1203
    105  CA        43.9360    9.4190   -4.1080 C.3   137  THR137      0.1994
    106  C         43.3600    9.5580   -2.7180 C.2   137  THR137      0.2617
    107  O         42.2090    9.2140   -2.4800 O.2   137  THR137     -0.2717
    108  CB        44.4650   10.8150   -4.5000 C.3   137  THR137      0.1784
    109  OG1       43.5260   11.5270   -5.3060 O.3   137  THR137     -0.2211
    110  CG2       45.8100   10.7720   -5.1390 C.3   137  THR137      0.0376
    111  N         44.1650   10.1490   -1.8210 N.am  138  ASP138     -0.1973
    112  CA        43.8650   10.4820   -0.4340 C.3   138  ASP138      0.1709
    113  C         43.4460    9.2650    0.3920 C.2   138  ASP138      0.2293
    114  O         42.2980    9.1470    0.8460 O.2   138  ASP138     -0.2864
    115  CB        42.8830   11.6720   -0.3650 C.3   138  ASP138      0.1436
    116  CG        42.8800   12.5270    0.8980 C.2   138  ASP138      0.3671
    117  OD1       43.3440   12.0290    1.9700 O.co2 138  ASP138     -0.2456
    118  OD2       42.3570   13.6770    0.8370 O.co2 138  ASP138     -0.2456
@<TRIPOS>BOND
     1    62    61    2
     2    66    64    1
     3    69    68    1
     4    69    70    2
     5    75    76    1
     6    68    67    1
     7    68    71    1
     8    74    73    1
     9    61    67   am
    10    61    60    1
    11    64    63    1
    12    64    65    1
    13    91    90    2
    14    73    72    1
    15    63    60    1
    16    90    89    1
    17    99    98    2
    18    71    72    1
    19    60    59    1
    20    76    77    1
    21    98    97    1
    22    59    52   am
    23    78    77    2
    24    57    56   ar
    25    82    81    2
    26    54    55    1
    27    54    51    1
    28    77    79   am
    29    92    89    1
    30    92    93    1
    31    56    55    1
    32    56    58   ar
    33    89    88    1
    34    52    51    1
    35    52    53    2
    36    51    50    1
    37     8     6    1
    38    81    80    1
    39    79    80    1
    40    97   100    1
    41    97    96    1
    42    93    95   ar
    43    93    94   ar
    44   100   101    1
    45    80    83    1
    46    50    44   am
    47     6     7    1
    48     6     5    1
    49    20    21    1
    50    41    39    1
    51    45    44    2
    52   101   103    1
    53   101   102    1
    54    83    84    2
    55    44    43    1
    56     5     2    1
    57    24    21    1
    58    21    22    1
    59     2     1    1
    60     2     3    1
    61     4     3    2
    62    35    34    1
    63    35    36    1
    64    35    38    1
    65    39    38    1
    66    84    85    1
    67     3     9   am
    68    36    37    2
    69    43    46    1
    70    43    42    1
    71    38    40    1
    72    22    23    2
    73    46    47    1
    74    86    85   ar
    75    85    87   ar
    76     9    10    1
    77   109   108    1
    78    16    15    2
    79   110   108    1
    80    19    17    1
    81   104   105    1
    82    10    11    1
    83    47    49    1
    84    47    48    1
    85    18    17    1
    86    15    14    1
    87   108   105    1
    88    17    14    1
    89   105   106    1
    90    14    13    1
    91    11    12    2
    92    25    26    1
    93   106   107    2
    94   106   111   am
    95    26    29    1
    96    26    27    1
    97   111   112    1
    98    29    30    1
    99    30    31    1
   100    31    32    1
   101    27    28    2
   102   112   115    1
   103   112   113    1
   104   115   116    1
   105    32    33    1
   106   113   114    2
   107   118   116   ar
   108   116   117   ar
