@<TRIPOS>MOLECULE
tmp/4bdkA00.pdb
 154 141 0 0 0
SMALL
GASTEIGER

@<TRIPOS>ATOM
      1  N         49.8960  -36.9130    6.4080 N.3    14  LYS14      -0.1245
      2  CA        49.7550  -35.4650    6.6410 C.3    14  LYS14       0.1561
      3  C         48.4740  -35.0090    7.3460 C.2    14  LYS14       0.2260
      4  O         47.3820  -35.4900    7.0460 O.2    14  LYS14      -0.2867
      5  CB        49.9190  -34.7000    5.3120 C.3    14  LYS14       0.0271
      6  CG        48.9700  -34.9740    4.1790 C.3    14  LYS14       0.0035
      7  CD        49.0890  -33.7960    3.2240 C.3    14  LYS14       0.0206
      8  CE        48.5480  -34.1580    1.8550 C.3    14  LYS14       0.1093
      9  NZ        48.3190  -32.9780    1.0370 N.3    14  LYS14      -0.1314
     10  N         45.2960  -32.6790    8.2750 N.3    16  LEU16      -0.1245
     11  CA        44.3130  -31.9070    7.5090 C.3    16  LEU16       0.1561
     12  C         43.7730  -30.7130    8.3190 C.2    16  LEU16       0.2260
     13  O         43.1280  -29.8250    7.7480 O.2    16  LEU16      -0.2867
     14  CB        43.1710  -32.8200    7.0050 C.3    16  LEU16       0.0270
     15  CG        43.6020  -34.1150    6.2930 C.3    16  LEU16       0.0019
     16  CD1       42.4110  -34.9050    5.8390 C.3    16  LEU16       0.0001
     17  CD2       44.5180  -33.8330    5.1160 C.3    16  LEU16       0.0001
     18  N         42.7960  -33.6870   12.7650 N.3    20  VAL20      -0.1245
     19  CA        42.3900  -34.5740   11.6550 C.3    20  VAL20       0.1561
     20  C         43.5670  -34.7690   10.7030 C.2    20  VAL20       0.2260
     21  O         44.1660  -33.8020   10.2410 O.2    20  VAL20      -0.2867
     22  CB        41.0860  -34.1190   10.9360 C.3    20  VAL20       0.0252
     23  CG1       40.8540  -34.8780    9.6380 C.3    20  VAL20       0.0019
     24  CG2       39.8850  -34.2890   11.8500 C.3    20  VAL20       0.0019
     25  N         45.0890  -37.1510    7.2810 N.3    22  LEU22      -0.1245
     26  CA        44.7710  -37.9790    6.1260 C.3    22  LEU22       0.1561
     27  C         45.4640  -39.3210    6.3660 C.2    22  LEU22       0.2260
     28  O         46.5870  -39.3530    6.8600 O.2    22  LEU22      -0.2867
     29  CB        45.3340  -37.3310    4.8380 C.3    22  LEU22       0.0270
     30  CG        45.3970  -38.1600    3.5400 C.3    22  LEU22       0.0019
     31  CD1       44.0000  -38.6300    3.1010 C.3    22  LEU22       0.0001
     32  CD2       46.0100  -37.3550    2.4230 C.3    22  LEU22       0.0001
     33  N         41.8740  -43.2120    0.2630 N.3    31  LYS31      -0.1245
     34  CA        42.0730  -42.0770    1.1450 C.3    31  LYS31       0.1561
     35  C         40.9730  -42.0440    2.1870 C.2    31  LYS31       0.2260
     36  O         39.8110  -42.2720    1.8600 O.2    31  LYS31      -0.2867
     37  CB        42.0680  -40.7720    0.3330 C.3    31  LYS31       0.0271
     38  CG        43.2820  -40.5740   -0.5310 C.3    31  LYS31       0.0035
     39  CD        43.1320  -39.2120   -1.2140 C.3    31  LYS31       0.0206
     40  CE        44.3470  -38.9130   -2.0400 C.3    31  LYS31       0.1093
     41  NZ        44.1510  -37.6420   -2.7860 N.3    31  LYS31      -0.1314
     42  N         39.9240  -39.9300    6.2560 N.3    33  ALA33      -0.1245
     43  CA        40.2520  -38.9440    7.2740 C.3    33  ALA33       0.1562
     44  C         40.1790  -39.6640    8.6400 C.2    33  ALA33       0.2260
     45  O         39.2430  -40.4340    8.8800 O.2    33  ALA33      -0.2867
     46  CB        39.2580  -37.8000    7.2250 C.3    33  ALA33       0.0290
     47  N         40.0530  -38.7950   12.6190 N.3    35  LYS35      -0.1245
     48  CA        39.8920  -37.7610   13.6390 C.3    35  LYS35       0.1561
     49  C         40.4180  -38.2520   14.9770 C.2    35  LYS35       0.2260
     50  O         40.0050  -39.3180   15.4460 O.2    35  LYS35      -0.2867
     51  CB        38.4310  -37.2800   13.7530 C.3    35  LYS35       0.0271
     52  CG        38.4010  -36.0270   14.6530 C.3    35  LYS35       0.0035
     53  CD        37.2200  -35.1490   14.2250 C.3    35  LYS35       0.0206
     54  CE        36.9220  -34.1230   15.3070 C.3    35  LYS35       0.1093
     55  NZ        38.1630  -33.3460   15.6280 N.3    35  LYS35      -0.1314
     56  N         27.8340  -37.3530    7.7690 N.3    59  ILE59      -0.1245
     57  CA        29.1150  -38.0630    7.6850 C.3    59  ILE59       0.1561
     58  C         29.0040  -39.5050    8.1460 C.2    59  ILE59       0.2260
     59  O         28.2320  -39.8060    9.0610 O.2    59  ILE59      -0.2867
     60  CB        30.2900  -37.3040    8.3850 C.3    59  ILE59       0.0252
     61  CG1       31.6380  -37.5460    7.6860 C.3    59  ILE59       0.0019
     62  CG2       30.3760  -37.5750    9.8970 C.3    59  ILE59       0.0019
     63  CD1       31.7240  -36.9260    6.3690 C.3    59  ILE59       0.0001
     64  N         36.8650  -41.6700    9.2420 N.3    74  LEU74      -0.1231
     65  CA        35.7630  -41.0180    8.5500 C.3    74  LEU74       0.1693
     66  C         36.0370  -40.8880    7.0820 C.2    74  LEU74       0.2595
     67  O         37.1910  -40.6960    6.6890 O.2    74  LEU74      -0.2718
     68  CB        35.5150  -39.6120    9.1380 C.3    74  LEU74       0.0284
     69  CG        35.2030  -39.5130   10.6390 C.3    74  LEU74       0.0019
     70  CD1       35.4870  -38.1130   11.1550 C.3    74  LEU74       0.0001
     71  CD2       33.7560  -39.9760   10.9620 C.3    74  LEU74       0.0001
     72  N         34.9680  -40.9280    6.2730 N.am   75  GLU75      -0.1920
     73  CA        35.0640  -40.7430    4.8320 C.3    75  GLU75       0.1949
     74  C         35.6510  -39.3420    4.5110 C.2    75  GLU75       0.2659
     75  O         35.2420  -38.3560    5.1220 O.2    75  GLU75      -0.2711
     76  CB        33.7060  -41.0110    4.1360 C.2    75  GLU75       0.0111
     77  CG        32.5090  -40.1910    4.6250 C.2    75  GLU75       0.0838
     78  CD        31.1090  -40.6540    4.2330 C.2    75  GLU75       0.3877
     79  OE1       30.9800  -41.6330    3.4550 O.co2  75  GLU75      -0.2406
     80  OE2       30.1340  -40.0360    4.7250 O.co2  75  GLU75      -0.2406
     81  N         36.6760  -39.2810    3.6350 N.am   76  LEU76      -0.1961
     82  CA        37.3390  -38.0260    3.2890 C.3    76  LEU76       0.1728
     83  C         36.5150  -37.0740    2.4210 C.2    76  LEU76       0.2616
     84  O         36.0350  -37.4370    1.3400 O.2    76  LEU76      -0.2715
     85  CB        38.7350  -38.2690    2.6900 C.3    76  LEU76       0.0311
     86  CG        39.5710  -37.0230    2.3260 C.3    76  LEU76       0.0022
     87  CD1       39.8590  -36.1590    3.5520 C.3    76  LEU76       0.0001
     88  CD2       40.8680  -37.4060    1.6320 C.3    76  LEU76       0.0001
     89  N         36.3830  -35.8310    2.9120 N.am   77  MET77      -0.1963
     90  CA        35.6700  -34.7430    2.2450 C.3    77  MET77       0.1736
     91  C         36.7260  -33.8850    1.5830 C.2    77  MET77       0.2616
     92  O         37.4210  -33.1040    2.2360 O.2    77  MET77      -0.2715
     93  CB        34.8080  -33.9420    3.2440 C.3    77  MET77       0.0427
     94  CG        33.7620  -34.7660    3.9510 C.3    77  MET77       0.0599
     95  SD        32.7300  -35.7820    2.8670 S.3    77  MET77      -0.1393
     96  CE        31.7910  -34.5520    2.0260 C.3    77  MET77       0.0692
     97  N         36.8920  -34.0690    0.2910 N.am   78  GLU78      -0.1963
     98  CA        37.9530  -33.3590   -0.3900 C.3    78  GLU78       0.1733
     99  C         37.8150  -31.8360   -0.6050 C.2    78  GLU78       0.2617
    100  O         38.8110  -31.1810   -0.9060 O.2    78  GLU78      -0.2715
    101  CB        38.4640  -34.1480   -1.5950 C.3    78  GLU78       0.0429
    102  CG        39.1400  -35.4490   -1.1700 C.3    78  GLU78       0.1163
    103  CD        39.9750  -36.1820   -2.2050 C.2    78  GLU78       0.3649
    104  OE1       40.7550  -35.5240   -2.9350 O.co2  78  GLU78      -0.2457
    105  OE2       39.8770  -37.4300   -2.2490 O.co2  78  GLU78      -0.2457
    106  N         36.6270  -31.2790   -0.3720 N.am   79  GLY79      -0.1940
    107  CA        36.3870  -29.8370   -0.4680 C.3    79  GLY79       0.2014
    108  C         36.6360  -29.0880    0.8310 C.2    79  GLY79       0.2639
    109  O         36.6230  -27.8530    0.8590 O.2    79  GLY79      -0.2714
    110  N         36.8850  -29.8440    1.8960 N.am   80  GLY80      -0.1939
    111  CA        37.1470  -29.3070    3.2240 C.3    80  GLY80       0.2014
    112  C         35.9190  -28.7580    3.9200 C.2    80  GLY80       0.2638
    113  O         34.7880  -29.1370    3.5920 O.2    80  GLY80      -0.2714
    114  N         36.1520  -27.8760    4.9080 N.am   81  GLU81      -0.1977
    115  CA        35.1170  -27.1990    5.6970 C.3    81  GLU81       0.1602
    116  C         34.3930  -26.1740    4.8280 C.2    81  GLU81       0.2287
    117  O         34.9830  -25.6670    3.8690 O.2    81  GLU81      -0.2864
    118  CB        35.7550  -26.4140    6.8660 C.3    81  GLU81       0.0415
    119  CG        36.3230  -27.2330    8.0120 C.3    81  GLU81       0.1163
    120  CD        36.8330  -26.4160    9.1890 C.2    81  GLU81       0.3649
    121  OE1       37.1900  -25.2310    8.9930 O.co2  81  GLU81      -0.2457
    122  OE2       36.8970  -26.9750   10.3100 O.co2  81  GLU81      -0.2457
    123  N         36.0550  -22.4220    5.2350 N.3    84  ASP84      -0.1239
    124  CA        37.1230  -22.0010    4.3210 C.3    84  ASP84       0.1674
    125  C         36.5610  -21.2790    3.0820 C.2    84  ASP84       0.2266
    126  O         37.2990  -20.5210    2.4380 O.2    84  ASP84      -0.2867
    127  CB        38.0470  -23.1930    3.9330 C.3    84  ASP84       0.1410
    128  CG        38.8400  -23.8320    5.0800 C.2    84  ASP84       0.3668
    129  OD1       39.3420  -23.0750    5.9620 O.co2  84  ASP84      -0.2456
    130  OD2       38.9900  -25.0920    5.0770 O.co2  84  ASP84      -0.2456
    131  N         30.9540  -30.0560    5.7920 N.3   127  LEU127     -0.1245
    132  CA        32.0510  -30.4520    4.9170 C.3   127  LEU127      0.1561
    133  C         31.5880  -30.6350    3.5040 C.2   127  LEU127      0.2260
    134  O         30.5100  -31.1880    3.2770 O.2   127  LEU127     -0.2867
    135  CB        32.6970  -31.7300    5.3990 C.3   127  LEU127      0.0270
    136  CG        33.4130  -31.6860    6.7040 C.3   127  LEU127      0.0019
    137  CD1       33.6060  -33.0770    7.2310 C.3   127  LEU127      0.0001
    138  CD2       34.7410  -30.9620    6.5770 C.3   127  LEU127      0.0001
    139  N         36.2650  -30.3060   -4.6040 N.3   131  GLN131     -0.1245
    140  CA        36.7260  -28.9360   -4.6280 C.3   131  GLN131      0.1566
    141  C         35.8510  -28.1250   -5.6160 C.2   131  GLN131      0.2260
    142  O         36.0890  -26.9400   -5.8480 O.2   131  GLN131     -0.2867
    143  CB        38.2570  -28.8280   -4.8070 C.3   131  GLN131      0.0367
    144  CG        38.8920  -27.5400   -4.2150 C.3   131  GLN131      0.0905
    145  CD        38.4770  -27.1600   -2.7950 C.2   131  GLN131      0.2608
    146  OE1       39.0850  -27.5850   -1.8020 O.2   131  GLN131     -0.2717
    147  NE2       37.4790  -26.2810   -2.6700 N.am  131  GLN131     -0.0878
    148  N         29.1060  -32.8300   10.1670 N.3   140  THR140     -0.1218
    149  CA        30.0840  -33.4620   11.0200 C.3   140  THR140      0.1862
    150  C         30.0620  -32.8270   12.4430 C.2   140  THR140      0.2287
    151  O         29.2290  -31.9690   12.7160 O.2   140  THR140     -0.2866
    152  CB        31.4280  -33.4720   10.2730 C.3   140  THR140      0.1770
    153  OG1       32.3110  -34.4400   10.8420 O.3   140  THR140     -0.2211
    154  CG2       32.0930  -32.1050   10.2160 C.3   140  THR140      0.0375
@<TRIPOS>BOND
     1   142   141    2
     2   141   140    1
     3   143   140    1
     4   143   144    1
     5   140   139    1
     6   144   145    1
     7   104   103   ar
     8   145   147   am
     9   145   146    2
    10    41    40    1
    11   105   103   ar
    12   103   102    1
    13    40    39    1
    14   101   102    1
    15   101    98    1
    16    39    38    1
    17   100    99    2
    18    99    98    1
    19    99   106   am
    20    38    37    1
    21   107   106    1
    22   107   108    1
    23    98    97    1
    24    33    34    1
    25    97    91   am
    26    37    34    1
    27   108   109    2
    28   108   110   am
    29     9     8    1
    30    34    35    1
    31    84    83    2
    32    91    92    2
    33    91    90    1
    34    88    86    1
    35     8     7    1
    36    36    35    2
    37   110   111    1
    38    96    95    1
    39    90    89    1
    40    90    93    1
    41    86    85    1
    42    86    87    1
    43    83    89   am
    44    83    82    1
    45    32    30    1
    46   126   125    2
    47    85    82    1
    48    95    94    1
    49   125   124    1
    50    31    30    1
    51     7     6    1
    52   111   112    1
    53    93    94    1
    54   134   133    2
    55    82    81    1
    56    79    78   ar
    57   133   132    1
    58    30    29    1
    59   113   112    2
    60    81    74   am
    61   117   116    2
    62   112   114   am
    63   127   124    1
    64   127   128    1
    65    76    77    2
    66    76    73    1
    67     6     5    1
    68    78    77    1
    69    78    80   ar
    70   124   123    1
    71    74    73    1
    72    74    75    2
    73   116   115    1
    74    73    72    1
    75    29    26    1
    76   114   115    1
    77   132   135    1
    78   132   131    1
    79   130   128   ar
    80   128   129   ar
    81    17    15    1
    82     5     2    1
    83   135   136    1
    84   115   118    1
    85    16    15    1
    86    26    27    1
    87    26    25    1
    88    42    43    1
    89    72    66   am
    90    15    14    1
    91    27    28    2
    92    63    61    1
    93     1     2    1
    94   138   136    1
    95     2     3    1
    96    67    66    2
    97   136   137    1
    98   118   119    1
    99    14    11    1
   100     4     3    2
   101    66    65    1
   102    46    43    1
   103    43    44    1
   104    11    10    1
   105    11    12    1
   106    57    56    1
   107    57    58    1
   108    57    60    1
   109    61    60    1
   110    13    12    2
   111   119   120    1
   112    58    59    2
   113    60    62    1
   114    65    68    1
   115    65    64    1
   116    44    45    2
   117   121   120   ar
   118    68    69    1
   119   120   122   ar
   120    23    22    1
   121   148   149    1
   122   154   152    1
   123    21    20    2
   124   152   153    1
   125   152   149    1
   126    69    71    1
   127    69    70    1
   128    20    19    1
   129    22    19    1
   130    22    24    1
   131   149   150    1
   132    19    18    1
   133   150   151    2
   134    47    48    1
   135    48    51    1
   136    48    49    1
   137    51    52    1
   138    53    52    1
   139    53    54    1
   140    49    50    2
   141    54    55    1
