@<TRIPOS>MOLECULE
tmp/4bdsA06.pdb
 109 107 0 0 0
SMALL
GASTEIGER

@<TRIPOS>ATOM
      1  N        138.0880  118.7720   37.1100 N.3   113  GLY113     -0.1210
      2  CA       137.9260  117.3660   36.7620 C.3   113  GLY113      0.1956
      3  C        139.2640  116.6360   36.8080 C.2   113  GLY113      0.2612
      4  O        139.4950  115.6630   36.0790 O.2   113  GLY113     -0.2717
      5  N        140.1640  117.1150   37.6590 N.am  114  GLY114     -0.1956
      6  CA       141.4320  116.4340   37.8770 C.3   114  GLY114      0.1869
      7  C        142.3400  116.3890   36.6610 C.2   114  GLY114      0.2309
      8  O        143.2540  115.5640   36.6170 O.2   114  GLY114     -0.2863
      9  N        141.6340  115.1070   34.0490 N.3   116  GLN116     -0.1231
     10  CA       141.3540  113.8660   33.3190 C.3   116  GLN116      0.1698
     11  C        139.9460  113.8530   32.7120 C.2   116  GLN116      0.2592
     12  O        139.6680  113.0580   31.8170 O.2   116  GLN116     -0.2718
     13  CB       141.5320  112.6060   34.1940 C.3   116  GLN116      0.0381
     14  CG       142.7520  112.5750   35.1210 C.3   116  GLN116      0.0905
     15  CD       144.0670  112.8750   34.4070 C.2   116  GLN116      0.2608
     16  OE1      144.5380  112.0930   33.5750 O.2   116  GLN116     -0.2717
     17  NE2      144.6590  114.0180   34.7260 N.am  116  GLN116     -0.0878
     18  N        139.0600  114.7130   33.2110 N.am  117  THR117     -0.1953
     19  CA       137.6650  114.7310   32.7690 C.3   117  THR117      0.1897
     20  C        137.1560  116.1760   32.7000 C.2   117  THR117      0.2313
     21  O        137.9000  117.1090   33.0090 O.2   117  THR117     -0.2863
     22  CB       136.7450  113.9750   33.7580 C.3   117  THR117      0.1794
     23  OG1      136.8470  114.5930   35.0500 O.3   117  THR117     -0.2208
     24  CG2      137.1120  112.4660   33.8580 C.3   117  THR117      0.0378
     25  N        138.4590  123.6170   41.2580 N.3   195  SER195     -0.1202
     26  CA       139.2740  122.4090   41.3370 C.3   195  SER195      0.2020
     27  C        140.4440  122.4920   40.3500 C.2   195  SER195      0.2618
     28  O        141.2470  123.4240   40.4330 O.2   195  SER195     -0.2717
     29  CB       138.4170  121.1620   41.1070 C.3   195  SER195      0.2103
     30  OG       138.8400  120.0990   41.9430 O.3   195  SER195     -0.2182
     31  N        140.5480  121.5420   39.4170 N.am  196  ALA196     -0.1979
     32  CA       141.6600  121.5720   38.4490 C.3   196  ALA196      0.1597
     33  C        141.6000  122.8130   37.5320 C.2   196  ALA196      0.2287
     34  O        142.6270  123.2560   36.9920 O.2   196  ALA196     -0.2864
     35  CB       141.7540  120.2650   37.6300 C.3   196  ALA196      0.0319
     36  N        148.0630  117.1580   44.1450 N.3   228  TRP228     -0.1241
     37  CA       147.6380  116.4400   42.9230 C.3   228  TRP228      0.1605
     38  C        147.8520  117.2380   41.6280 C.2   228  TRP228      0.2264
     39  O        147.6560  116.7010   40.5310 O.2   228  TRP228     -0.2867
     40  CB       146.1450  116.0580   43.0030 C.3   228  TRP228      0.0550
     41  CG       145.2830  117.2430   43.4590 C.ar  228  TRP228      0.0003
     42  CD1      144.8910  117.5230   44.7420 C.ar  228  TRP228      0.0946
     43  CD2      144.7430  118.2950   42.6380 C.ar  228  TRP228      0.0152
     44  NE1      144.1280  118.6810   44.7690 N.ar  228  TRP228     -0.2442
     45  CE2      144.0220  119.1700   43.4930 C.ar  228  TRP228      0.0810
     46  CE3      144.7830  118.5750   41.2690 C.ar  228  TRP228      0.0012
     47  CZ2      143.3650  120.3220   43.0190 C.ar  228  TRP228      0.0191
     48  CZ3      144.1140  119.7250   40.7960 C.ar  228  TRP228      0.0001
     49  CH2      143.4240  120.5780   41.6730 C.ar  228  TRP228      0.0015
     50  N        141.7150  107.7450   44.8680 N.3   282  PRO282     -0.2102
     51  CA       140.6090  108.4850   44.2480 C.3   282  PRO282      0.1504
     52  C        140.9910  109.8780   43.7520 C.2   282  PRO282      0.2576
     53  O        140.2240  110.4710   42.9890 O.2   282  PRO282     -0.2718
     54  CB       139.5990  108.5980   45.3890 C.3   282  PRO282      0.0282
     55  CG       139.7940  107.3170   46.1520 C.3   282  PRO282      0.0208
     56  CD       141.3000  107.1090   46.1340 C.3   282  PRO282      0.0893
     57  N        142.1410  110.3950   44.1790 N.am  283  LEU283     -0.1966
     58  CA       142.5900  111.7180   43.7400 C.3   283  LEU283      0.1728
     59  C        143.7230  111.6670   42.7190 C.2   283  LEU283      0.2617
     60  O        144.3140  112.7000   42.4020 O.2   283  LEU283     -0.2715
     61  CB       143.0130  112.5660   44.9380 C.3   283  LEU283      0.0311
     62  CG       141.8240  112.9520   45.8170 C.3   283  LEU283      0.0022
     63  CD1      141.8120  112.1720   47.1090 C.3   283  LEU283      0.0001
     64  CD2      141.8230  114.4400   46.0790 C.3   283  LEU283      0.0001
     65  N        144.0160  110.4760   42.1980 N.am  284  SER284     -0.1936
     66  CA       145.0920  110.3250   41.2170 C.3   284  SER284      0.2055
     67  C        144.9260  111.2310   39.9960 C.2   284  SER284      0.2642
     68  O        143.8320  111.3680   39.4550 O.2   284  SER284     -0.2714
     69  CB       145.2290  108.8660   40.7710 C.3   284  SER284      0.2130
     70  OG       145.8700  108.0930   41.7640 O.3   284  SER284     -0.2179
     71  N        146.0280  111.8500   39.5890 N.am  285  VAL285     -0.1977
     72  CA       146.0900  112.6640   38.3860 C.3   285  VAL285      0.1596
     73  C        147.2580  112.1180   37.5720 C.2   285  VAL285      0.2287
     74  O        148.4000  112.5760   37.7010 O.2   285  VAL285     -0.2864
     75  CB       146.3150  114.1650   38.7390 C.3   285  VAL285      0.0276
     76  CG1      146.5890  114.9990   37.4890 C.3   285  VAL285      0.0022
     77  CG2      145.0940  114.7210   39.4970 C.3   285  VAL285      0.0022
     78  N        135.3800  111.9630   48.1220 N.3   326  PHE326     -0.1241
     79  CA       136.3640  110.9710   47.7000 C.3   326  PHE326      0.1605
     80  C        136.3130  109.6890   48.5190 C.2   326  PHE326      0.2264
     81  O        136.7610  108.6350   48.0590 O.2   326  PHE326     -0.2867
     82  CB       137.7740  111.5950   47.7150 C.3   326  PHE326      0.0534
     83  CG       137.8910  112.7990   46.8210 C.ar  326  PHE326     -0.0203
     84  CD1      138.1580  112.6410   45.4680 C.ar  326  PHE326     -0.0042
     85  CD2      137.6800  114.0850   47.3210 C.ar  326  PHE326     -0.0042
     86  CE1      138.2300  113.7390   44.6260 C.ar  326  PHE326     -0.0003
     87  CE2      137.7570  115.1990   46.4860 C.ar  326  PHE326     -0.0003
     88  CZ       138.0300  115.0190   45.1320 C.ar  326  PHE326     -0.0000
     89  N        143.0790  120.2880   49.4300 N.3   393  PHE393     -0.1241
     90  CA       142.4430  121.5290   48.9650 C.3   393  PHE393      0.1605
     91  C        142.6270  122.7670   49.8470 C.2   393  PHE393      0.2264
     92  O        143.0720  123.8170   49.3710 O.2   393  PHE393     -0.2867
     93  CB       140.9500  121.2840   48.7000 C.3   393  PHE393      0.0534
     94  CG       140.7000  120.1710   47.7120 C.ar  393  PHE393     -0.0203
     95  CD1      140.8040  120.4030   46.3510 C.ar  393  PHE393     -0.0042
     96  CD2      140.3980  118.8880   48.1510 C.ar  393  PHE393     -0.0042
     97  CE1      140.5840  119.3690   45.4310 C.ar  393  PHE393     -0.0003
     98  CE2      140.1770  117.8440   47.2440 C.ar  393  PHE393     -0.0003
     99  CZ       140.2730  118.0810   45.8900 C.ar  393  PHE393     -0.0000
    100  N        132.7720  119.0950   47.7640 N.3   433  HIS433     -0.1241
    101  CA       133.6380  119.5800   46.6830 C.3   433  HIS433      0.1621
    102  C        132.8260  119.7690   45.4110 C.2   433  HIS433      0.2264
    103  O        132.2440  118.8060   44.9030 O.2   433  HIS433     -0.2867
    104  CB       134.7370  118.5390   46.4330 C.3   433  HIS433      0.0745
    105  CG       135.7740  118.9630   45.4360 C.ar  433  HIS433      0.0817
    106  ND1      136.6290  120.0230   45.6560 N.ar  433  HIS433     -0.2268
    107  CD2      136.1100  118.4520   44.2270 C.ar  433  HIS433      0.1154
    108  CE1      137.4430  120.1510   44.6210 C.ar  433  HIS433      0.1986
    109  NE2      137.1520  119.2100   43.7410 N.ar  433  HIS433     -0.2212
@<TRIPOS>BOND
     1    12    11    2
     2    20    19    1
     3    20    21    2
     4    11    18   am
     5    11    10    1
     6    19    18    1
     7    19    22    1
     8    10     9    1
     9    10    13    1
    10    16    15    2
    11    22    24    1
    12    22    23    1
    13    13    14    1
    14    15    17   am
    15    15    14    1
    16     4     3    2
    17     8     7    2
    18     7     6    1
    19     2     3    1
    20     2     1    1
    21     3     5   am
    22    34    33    2
    23    76    75    1
    24    33    32    1
    25    73    74    2
    26    73    72    1
    27    35    32    1
    28     5     6    1
    29    72    75    1
    30    72    71    1
    31    32    31    1
    32    75    77    1
    33    31    27   am
    34    68    67    2
    35    71    67   am
    36    67    66    1
    37    27    28    2
    38    27    26    1
    39    39    38    2
    40    69    66    1
    41    69    70    1
    42    48    46   ar
    43    48    49   ar
    44    29    26    1
    45    29    30    1
    46    66    65    1
    47    25    26    1
    48    46    43   ar
    49    38    37    1
    50    49    47   ar
    51    65    59   am
    52    60    59    2
    53    43    41   ar
    54    43    45   ar
    55    59    58    1
    56    37    40    1
    57    37    36    1
    58    53    52    2
    59    40    41    1
    60    47    45   ar
    61    41    42   ar
    62    45    44   ar
    63    58    57    1
    64    58    61    1
    65   109   107   ar
    66   109   108   ar
    67    52    57   am
    68    52    51    1
    69   107   105   ar
    70    51    50    1
    71    51    54    1
    72   108   106   ar
    73    86    88   ar
    74    86    84   ar
    75    42    44   ar
    76    50    56    1
    77   103   102    2
    78    61    62    1
    79    88    87   ar
    80    54    55    1
    81   102   101    1
    82    97    99   ar
    83    97    95   ar
    84   105   106   ar
    85   105   104    1
    86    84    83   ar
    87    62    64    1
    88    62    63    1
    89    99    98   ar
    90    56    55    1
    91    95    94   ar
    92   104   101    1
    93    87    85   ar
    94   101   100    1
    95    83    85   ar
    96    83    82    1
    97    98    96   ar
    98    79    82    1
    99    79    78    1
   100    79    80    1
   101    94    96   ar
   102    94    93    1
   103    81    80    2
   104    93    90    1
   105    90    89    1
   106    90    91    1
   107    92    91    2
