@<TRIPOS>MOLECULE
tmp/4bdsA05.pdb
 150 148 0 0 0
SMALL
GASTEIGER

@<TRIPOS>ATOM
      1  N        132.7950  108.5240   34.8960 N.3    67  ASP67      -0.1239
      2  CA       132.5020  107.9810   36.2290 C.3    67  ASP67       0.1674
      3  C        131.3470  106.9680   36.1400 C.2    67  ASP67       0.2266
      4  O        130.2160  107.3600   35.8570 O.2    67  ASP67      -0.2867
      5  CB       132.1260  109.1450   37.1670 C.3    67  ASP67       0.1410
      6  CG       131.8750  108.7060   38.6060 C.2    67  ASP67       0.3668
      7  OD1      131.7440  107.4920   38.8710 O.co2  67  ASP67      -0.2456
      8  OD2      131.7970  109.5910   39.4850 O.co2  67  ASP67      -0.2456
      9  N        124.0070  112.4120   41.5540 N.3    75  GLY75      -0.1210
     10  CA       125.1110  113.0240   42.2850 C.3    75  GLY75       0.1956
     11  C        126.4470  112.8630   41.5820 C.2    75  GLY75       0.2612
     12  O        127.3070  113.7610   41.6260 O.2    75  GLY75      -0.2717
     13  N        126.6300  111.7180   40.9330 N.am   76  SER76      -0.1952
     14  CA       127.8510  111.4670   40.1720 C.3    76  SER76       0.1924
     15  C        127.6400  111.7740   38.6900 C.2    76  SER76       0.2314
     16  O        128.5130  112.3520   38.0320 O.2    76  SER76      -0.2863
     17  CB       128.3000  110.0180   40.3450 C.3    76  SER76       0.2116
     18  OG       127.2560  109.1110   40.0070 O.3    76  SER76      -0.2180
     19  N        128.1900  115.2170   36.6240 N.3    79  TRP79      -0.1241
     20  CA       129.5510  115.6530   36.2550 C.3    79  TRP79       0.1605
     21  C        130.0630  114.9820   34.9660 C.2    79  TRP79       0.2264
     22  O        131.0400  115.4430   34.3480 O.2    79  TRP79      -0.2867
     23  CB       130.5310  115.3870   37.4070 C.3    79  TRP79       0.0550
     24  CG       130.1180  116.0620   38.6930 C.ar   79  TRP79       0.0003
     25  CD1      129.5940  115.4600   39.8060 C.ar   79  TRP79       0.0946
     26  CD2      130.1870  117.4700   38.9910 C.ar   79  TRP79       0.0152
     27  NE1      129.3290  116.4090   40.7770 N.ar   79  TRP79      -0.2442
     28  CE2      129.6840  117.6470   40.3020 C.ar   79  TRP79       0.0810
     29  CE3      130.6230  118.5930   38.2780 C.ar   79  TRP79       0.0012
     30  CZ2      129.6070  118.9090   40.9160 C.ar   79  TRP79       0.0191
     31  CZ3      130.5400  119.8520   38.8890 C.ar   79  TRP79       0.0001
     32  CH2      130.0330  119.9950   40.1930 C.ar   79  TRP79       0.0015
     33  N        136.9390  122.1210   36.1350 N.3   112  GLY112     -0.1210
     34  CA       137.8400  121.1790   36.7700 C.3   112  GLY112      0.1956
     35  C        137.4990  119.7330   36.4020 C.2   112  GLY112      0.2612
     36  O        136.6980  119.4860   35.5010 O.2   112  GLY112     -0.2717
     37  N        138.0880  118.7720   37.1100 N.am  113  GLY113     -0.1956
     38  CA       137.9260  117.3660   36.7620 C.3   113  GLY113      0.1869
     39  C        139.2640  116.6360   36.8080 C.2   113  GLY113      0.2309
     40  O        139.4950  115.6630   36.0790 O.2   113  GLY113     -0.2863
     41  N        139.0600  114.7130   33.2110 N.3   117  THR117     -0.1218
     42  CA       137.6650  114.7310   32.7690 C.3   117  THR117      0.1862
     43  C        137.1560  116.1760   32.7000 C.2   117  THR117      0.2287
     44  O        137.9000  117.1090   33.0090 O.2   117  THR117     -0.2866
     45  CB       136.7450  113.9750   33.7580 C.3   117  THR117      0.1770
     46  OG1      136.8470  114.5930   35.0500 O.3   117  THR117     -0.2211
     47  CG2      137.1120  112.4660   33.8580 C.3   117  THR117      0.0375
     48  N        127.4430  124.9350   34.6140 N.3   125  TYR125     -0.1241
     49  CA       128.3320  125.9620   34.0410 C.3   125  TYR125      0.1605
     50  C        127.6250  126.8560   33.0150 C.2   125  TYR125      0.2264
     51  O        128.2950  127.5400   32.2220 O.2   125  TYR125     -0.2867
     52  CB       129.5520  125.3340   33.3410 C.3   125  TYR125      0.0534
     53  CG       130.3500  124.3110   34.1320 C.ar  125  TYR125     -0.0201
     54  CD1      130.4900  124.4010   35.5190 C.ar  125  TYR125     -0.0009
     55  CD2      130.9950  123.2600   33.4730 C.ar  125  TYR125     -0.0009
     56  CE1      131.2480  123.4520   36.2290 C.ar  125  TYR125      0.0417
     57  CE2      131.7540  122.3210   34.1660 C.ar  125  TYR125      0.0417
     58  CZ       131.8710  122.4180   35.5450 C.ar  125  TYR125      0.1957
     59  OH       132.6120  121.4670   36.2330 O.3   125  TYR125     -0.2866
     60  N        137.2660  126.0760   38.9500 N.3   194  GLU194     -0.1231
     61  CA       137.0890  125.3000   40.1770 C.3   194  GLU194      0.1699
     62  C        137.9050  124.0140   40.1160 C.2   194  GLU194      0.2592
     63  O        138.0290  123.3940   39.0470 O.2   194  GLU194     -0.2718
     64  CB       135.5920  124.9960   40.4390 C.3   194  GLU194      0.0402
     65  CG       135.3130  124.2640   41.7660 C.3   194  GLU194      0.1161
     66  CD       135.2970  122.7450   41.6030 C.2   194  GLU194      0.3649
     67  OE1      135.4610  122.2770   40.4450 O.co2 194  GLU194     -0.2457
     68  OE2      135.1030  122.0190   42.6200 O.co2 194  GLU194     -0.2457
     69  N        138.4590  123.6170   41.2580 N.am  195  SER195     -0.1952
     70  CA       139.2740  122.4090   41.3370 C.3   195  SER195      0.1924
     71  C        140.4440  122.4920   40.3500 C.2   195  SER195      0.2314
     72  O        141.2470  123.4240   40.4330 O.2   195  SER195     -0.2863
     73  CB       138.4170  121.1620   41.1070 C.3   195  SER195      0.2116
     74  OG       138.8400  120.0990   41.9430 O.3   195  SER195     -0.2180
     75  N        133.6090  113.7350   49.3770 N.3   325  ALA325     -0.1231
     76  CA       133.2330  113.1060   48.0950 C.3   325  ALA325      0.1694
     77  C        134.1020  111.8860   47.7570 C.2   325  ALA325      0.2592
     78  O        133.6220  110.8920   47.2030 O.2   325  ALA325     -0.2718
     79  CB       133.3120  114.1340   46.9720 C.3   325  ALA325      0.0304
     80  N        135.3800  111.9630   48.1220 N.am  326  PHE326     -0.1976
     81  CA       136.3640  110.9710   47.7000 C.3   326  PHE326      0.1639
     82  C        136.3130  109.6890   48.5190 C.2   326  PHE326      0.2290
     83  O        136.7610  108.6350   48.0590 O.2   326  PHE326     -0.2864
     84  CB       137.7740  111.5950   47.7150 C.3   326  PHE326      0.0560
     85  CG       137.8910  112.7990   46.8210 C.ar  326  PHE326     -0.0200
     86  CD1      138.1580  112.6410   45.4680 C.ar  326  PHE326     -0.0042
     87  CD2      137.6800  114.0850   47.3210 C.ar  326  PHE326     -0.0042
     88  CE1      138.2300  113.7390   44.6260 C.ar  326  PHE326     -0.0003
     89  CE2      137.7570  115.1990   46.4860 C.ar  326  PHE326     -0.0003
     90  CZ       138.0300  115.0190   45.1320 C.ar  326  PHE326     -0.0000
     91  N        134.7510  106.4320   47.0940 N.3   329  TYR329     -0.1241
     92  CA       135.3670  105.8610   45.8960 C.3   329  TYR329      0.1605
     93  C        136.5580  104.9670   46.2810 C.2   329  TYR329      0.2264
     94  O        137.5440  104.8780   45.5370 O.2   329  TYR329     -0.2867
     95  CB       135.8190  106.9690   44.9290 C.3   329  TYR329      0.0534
     96  CG       134.6910  107.6780   44.2140 C.ar  329  TYR329     -0.0201
     97  CD1      134.0600  108.7790   44.7830 C.ar  329  TYR329     -0.0009
     98  CD2      134.2500  107.2410   42.9660 C.ar  329  TYR329     -0.0009
     99  CE1      133.0180  109.4270   44.1240 C.ar  329  TYR329      0.0417
    100  CE2      133.2140  107.8800   42.3080 C.ar  329  TYR329      0.0417
    101  CZ       132.6050  108.9730   42.8920 C.ar  329  TYR329      0.1957
    102  OH       131.5750  109.6110   42.2380 O.3   329  TYR329     -0.2866
    103  N        123.5120  113.6050   47.4410 N.3   425  TRP425     -0.1241
    104  CA       124.3840  112.8960   48.3760 C.3   425  TRP425      0.1605
    105  C        123.8640  113.0320   49.8170 C.2   425  TRP425      0.2264
    106  O        123.2140  114.0260   50.1530 O.2   425  TRP425     -0.2867
    107  CB       125.8040  113.4690   48.3070 C.3   425  TRP425      0.0550
    108  CG       126.4640  113.4220   46.9460 C.ar  425  TRP425      0.0003
    109  CD1      126.5290  114.4350   46.0240 C.ar  425  TRP425      0.0946
    110  CD2      127.1740  112.3140   46.3730 C.ar  425  TRP425      0.0152
    111  NE1      127.2300  114.0200   44.9090 N.ar  425  TRP425     -0.2442
    112  CE2      127.6390  112.7230   45.1010 C.ar  425  TRP425      0.0810
    113  CE3      127.4670  111.0190   46.8160 C.ar  425  TRP425      0.0012
    114  CZ2      128.3740  111.8770   44.2670 C.ar  425  TRP425      0.0191
    115  CZ3      128.1990  110.1830   45.9890 C.ar  425  TRP425      0.0001
    116  CH2      128.6490  110.6140   44.7320 C.ar  425  TRP425      0.0015
    117  N        129.9150  119.7630   49.9920 N.3   432  MET432     -0.1230
    118  CA       130.8580  118.9690   49.2080 C.3   432  MET432      0.1702
    119  C        131.6710  119.7270   48.1720 C.2   432  MET432      0.2592
    120  O        131.2970  120.8250   47.7340 O.2   432  MET432     -0.2718
    121  CB       130.1300  117.8070   48.5090 C.3   432  MET432      0.0401
    122  CG       129.6920  116.7000   49.4530 C.3   432  MET432      0.0596
    123  SD       128.6000  115.5030   48.6620 S.3   432  MET432     -0.1393
    124  CE       129.6390  114.8410   47.3490 C.3   432  MET432      0.0692
    125  N        132.7720  119.0950   47.7640 N.am  433  HIS433     -0.1962
    126  CA       133.6380  119.5800   46.6830 C.3   433  HIS433      0.1787
    127  C        132.8260  119.7690   45.4110 C.2   433  HIS433      0.2621
    128  O        132.2440  118.8060   44.9030 O.2   433  HIS433     -0.2715
    129  CB       134.7370  118.5390   46.4330 C.3   433  HIS433      0.0785
    130  CG       135.7740  118.9630   45.4360 C.ar  433  HIS433      0.0821
    131  ND1      136.6290  120.0230   45.6560 N.ar  433  HIS433     -0.2267
    132  CD2      136.1100  118.4520   44.2270 C.ar  433  HIS433      0.1154
    133  CE1      137.4430  120.1510   44.6210 C.ar  433  HIS433      0.1986
    134  NE2      137.1520  119.2100   43.7410 N.ar  433  HIS433     -0.2212
    135  N        132.7590  121.0020   44.9080 N.am  434  GLY434     -0.1940
    136  CA       132.0610  121.2700   43.6540 C.3   434  GLY434      0.2014
    137  C        130.6670  121.8670   43.8280 C.2   434  GLY434      0.2638
    138  O        130.0130  122.2590   42.8500 O.2   434  GLY434     -0.2714
    139  N        130.1860  121.9530   45.0640 N.am  435  TYR435     -0.1973
    140  CA       128.7880  122.3470   45.2370 C.3   435  TYR435      0.1639
    141  C        128.5420  123.8140   45.6300 C.2   435  TYR435      0.2290
    142  O        127.4270  124.1820   46.0310 O.2   435  TYR435     -0.2864
    143  CB       128.0280  121.3260   46.0970 C.3   435  TYR435      0.0560
    144  CG       127.8100  120.0330   45.3280 C.ar  435  TYR435     -0.0198
    145  CD1      128.7590  119.0110   45.3540 C.ar  435  TYR435     -0.0009
    146  CD2      126.6820  119.8630   44.5260 C.ar  435  TYR435     -0.0009
    147  CE1      128.5590  117.8220   44.6210 C.ar  435  TYR435      0.0417
    148  CE2      126.4760  118.6960   43.7900 C.ar  435  TYR435      0.0417
    149  CZ       127.4190  117.6790   43.8450 C.ar  435  TYR435      0.1957
    150  OH       127.2240  116.5280   43.1110 O.3   435  TYR435     -0.2866
@<TRIPOS>BOND
     1    51    50    2
     2    43    42    1
     3    43    44    2
     4    42    41    1
     5    42    45    1
     6    50    49    1
     7    52    49    1
     8    52    53    1
     9    55    53   ar
    10    55    57   ar
    11    45    47    1
    12    45    46    1
    13    49    48    1
    14    53    54   ar
    15    57    58   ar
    16    22    21    2
    17     1     2    1
    18    21    20    1
    19    36    35    2
    20    54    56   ar
    21    58    56   ar
    22    58    59    1
    23     4     3    2
    24    40    39    2
    25    33    34    1
    26     3     2    1
    27     2     5    1
    28    20    19    1
    29    20    23    1
    30    35    34    1
    31    35    37   am
    32    38    39    1
    33    38    37    1
    34     5     6    1
    35    23    24    1
    36    16    15    2
    37    29    31   ar
    38    29    26   ar
    39     6     7   ar
    40     6     8   ar
    41    15    14    1
    42    24    26   ar
    43    24    25   ar
    44    31    32   ar
    45    60    61    1
    46    26    28   ar
    47    63    62    2
    48    25    27   ar
    49    18    17    1
    50    62    61    1
    51    62    69   am
    52    14    17    1
    53    14    13    1
    54    61    64    1
    55    32    30   ar
    56    28    27   ar
    57    28    30   ar
    58    71    72    2
    59    71    70    1
    60    64    65    1
    61    67    66   ar
    62    13    11   am
    63    73    70    1
    64    73    74    1
    65    69    70    1
    66     9    10    1
    67    11    12    2
    68    11    10    1
    69    66    65    1
    70    66    68   ar
    71   102   101    1
    72   100   101   ar
    73   100    98   ar
    74   138   137    2
    75   101    99   ar
    76    98    96   ar
    77   150   149    1
    78   136   137    1
    79   136   135    1
    80   134   132   ar
    81   134   133   ar
    82   148   149   ar
    83   148   146   ar
    84   137   139   am
    85   149   147   ar
    86    99    97   ar
    87    96    97   ar
    88    96    95    1
    89   132   130   ar
    90   114   116   ar
    91   114   112   ar
    92   146   144   ar
    93   133   131   ar
    94   147   145   ar
    95    88    90   ar
    96    88    86   ar
    97   116   115   ar
    98   128   127    2
    99   135   127   am
   100   111   112   ar
   101   111   109   ar
   102    95    92    1
   103   139   140    1
   104   112   110   ar
   105    90    89   ar
   106   140   141    1
   107   140   143    1
   108   144   145   ar
   109   144   143    1
   110   127   126    1
   111   130   131   ar
   112   130   129    1
   113    86    85   ar
   114    94    93    2
   115   141   142    2
   116    92    93    1
   117    92    91    1
   118   115   113   ar
   119   109   108   ar
   120   110   113   ar
   121   110   108   ar
   122   129   126    1
   123    89    87   ar
   124   126   125    1
   125    85    87   ar
   126    85    84    1
   127   108   107    1
   128    79    76    1
   129    78    77    2
   130   124   123    1
   131   103   104    1
   132    81    84    1
   133    81    80    1
   134    81    82    1
   135   120   119    2
   136    77    76    1
   137    77    80   am
   138   125   119   am
   139    83    82    2
   140    76    75    1
   141   119   118    1
   142   107   104    1
   143   104   105    1
   144   121   118    1
   145   121   122    1
   146   123   122    1
   147   118   117    1
   148   105   106    2
