@<TRIPOS>MOLECULE
tmp/4bdtA00.pdb
 88 86 0 0 0
SMALL
GASTEIGER

@<TRIPOS>ATOM
      1  N         -9.9690  -32.4460  -42.5320 N.3    73  TYR73      -0.1241
      2  CA        -9.8200  -31.1310  -41.9200 C.3    73  TYR73       0.1605
      3  C        -10.7450  -30.0810  -42.5480 C.2    73  TYR73       0.2264
      4  O        -10.3100  -29.2930  -43.3660 O.2    73  TYR73      -0.2867
      5  CB        -8.3650  -30.6760  -42.0550 C.3    73  TYR73       0.0534
      6  CG        -7.3820  -31.5490  -41.3120 C.ar   73  TYR73      -0.0201
      7  CD1       -7.4270  -31.6390  -39.9440 C.ar   73  TYR73      -0.0009
      8  CD2       -6.3990  -32.2730  -41.9750 C.ar   73  TYR73      -0.0009
      9  CE1       -6.5350  -32.4330  -39.2370 C.ar   73  TYR73       0.0417
     10  CE2       -5.4860  -33.0740  -41.2720 C.ar   73  TYR73       0.0417
     11  CZ        -5.5670  -33.1480  -39.8950 C.ar   73  TYR73       0.1957
     12  OH        -4.7010  -33.9220  -39.1350 O.3    73  TYR73      -0.2866
     13  N         -4.0910  -41.9180  -39.4360 N.3   338  GLY338     -0.1210
     14  CA        -4.2330  -43.0470  -38.5360 C.3   338  GLY338      0.1956
     15  C         -2.9900  -43.5560  -37.8350 C.2   338  GLY338      0.2612
     16  O         -3.0660  -44.5200  -37.0760 O.2   338  GLY338     -0.2717
     17  N         -1.8380  -42.9460  -38.0770 N.am  339  ALA339     -0.1966
     18  CA        -0.6620  -43.3290  -37.3020 C.3   339  ALA339      0.1713
     19  C         -0.8060  -42.6970  -35.9340 C.2   339  ALA339      0.2458
     20  O         -0.9460  -41.4730  -35.8320 O.2   339  ALA339     -0.2730
     21  CB         0.6190  -42.8770  -37.9700 C.3   339  ALA339      0.0333
     22  N         -0.7860  -43.5290  -34.8770 N.am  340  PRO340     -0.2716
     23  CA        -1.0790  -43.0540  -33.5250 C.3   340  PRO340      0.1536
     24  C         -0.0260  -42.0490  -33.0830 C.2   340  PRO340      0.2599
     25  O          1.1610  -42.3720  -33.0440 O.2   340  PRO340     -0.2715
     26  CB        -1.0310  -44.3340  -32.6820 C.3   340  PRO340      0.0310
     27  CG        -0.1280  -45.2210  -33.3890 C.3   340  PRO340      0.0237
     28  CD        -0.3170  -44.9250  -34.8700 C.3   340  PRO340      0.0939
     29  N         -0.4650  -40.8290  -32.7950 N.am  341  GLY341     -0.1941
     30  CA         0.4400  -39.7670  -32.4180 C.3   341  GLY341      0.2014
     31  C          0.2950  -38.5480  -33.2970 C.2   341  GLY341      0.2639
     32  O          0.4610  -37.4160  -32.8340 O.2   341  GLY341     -0.2714
     33  N         -0.0420  -38.7730  -34.5640 N.am  342  PHE342     -0.1959
     34  CA         0.0080  -37.7080  -35.5620 C.3   342  PHE342      0.1771
     35  C         -1.2720  -36.8910  -35.7520 C.2   342  PHE342      0.2620
     36  O         -2.3650  -37.4320  -35.9730 O.2   342  PHE342     -0.2715
     37  CB         0.4920  -38.2610  -36.8980 C.3   342  PHE342      0.0574
     38  CG         1.8850  -38.8260  -36.8500 C.ar  342  PHE342     -0.0200
     39  CD1        2.1090  -40.1240  -36.4060 C.ar  342  PHE342     -0.0042
     40  CD2        2.9690  -38.0610  -37.2480 C.ar  342  PHE342     -0.0042
     41  CE1        3.3870  -40.6470  -36.3630 C.ar  342  PHE342     -0.0003
     42  CE2        4.2480  -38.5720  -37.1970 C.ar  342  PHE342     -0.0003
     43  CZ         4.4610  -39.8690  -36.7570 C.ar  342  PHE342     -0.0000
     44  N         -1.1080  -35.5760  -35.6420 N.am  343  SER343     -0.1950
     45  CA        -2.1150  -34.6120  -36.0660 C.3   343  SER343      0.1924
     46  C         -1.4050  -33.4010  -36.6570 C.2   343  SER343      0.2314
     47  O         -0.2510  -33.1340  -36.3270 O.2   343  SER343     -0.2863
     48  CB        -3.0010  -34.1770  -34.9030 C.3   343  SER343      0.2116
     49  OG        -3.9490  -33.2060  -35.3280 O.3   343  SER343     -0.2180
     50  N         -2.0710  -30.5950  -35.8390 N.3   345  ASP345     -0.1225
     51  CA        -2.3120  -29.5290  -34.8720 C.3   345  ASP345      0.1805
     52  C         -1.3330  -29.5000  -33.6910 C.2   345  ASP345      0.2597
     53  O         -1.2660  -28.5040  -32.9670 O.2   345  ASP345     -0.2718
     54  CB        -3.7630  -29.5580  -34.3920 C.3   345  ASP345      0.1424
     55  CG        -4.7630  -29.4610  -35.5390 C.2   345  ASP345      0.3668
     56  OD1       -4.9600  -28.3390  -36.0610 O.co2 345  ASP345     -0.2456
     57  OD2       -5.3620  -30.5040  -35.9040 O.co2 345  ASP345     -0.2456
     58  N         -0.5990  -30.5950  -33.4870 N.am  346  ASN346     -0.1974
     59  CA         0.5600  -30.5960  -32.5930 C.3   346  ASN346      0.1688
     60  C          1.8080  -31.0280  -33.3580 C.2   346  ASN346      0.2292
     61  O          1.7060  -31.4270  -34.5100 O.2   346  ASN346     -0.2864
     62  CB         0.3320  -31.4220  -31.3080 C.3   346  ASN346      0.1181
     63  CG        -0.0490  -32.8840  -31.5700 C.2   346  ASN346      0.2629
     64  OD1        0.7720  -33.6730  -32.0330 O.2   346  ASN346     -0.2716
     65  ND2       -1.2950  -33.2540  -31.2100 N.am  346  ASN346     -0.0877
     66  N          3.3740  -33.5280  -33.4190 N.3   348  SER348     -0.1202
     67  CA         3.4080  -34.9830  -33.4870 C.3   348  SER348      0.2020
     68  C          4.6780  -35.5990  -32.9120 C.2   348  SER348      0.2618
     69  O          5.3380  -36.3920  -33.5690 O.2   348  SER348     -0.2717
     70  CB         3.1810  -35.4460  -34.9180 C.3   348  SER348      0.2103
     71  OG         1.8640  -35.1210  -35.3330 O.3   348  SER348     -0.2182
     72  N          5.0170  -35.2220  -31.6840 N.am  349  LEU349     -0.1979
     73  CA         6.1970  -35.7780  -31.0330 C.3   349  LEU349      0.1596
     74  C          5.9020  -37.1420  -30.4240 C.2   349  LEU349      0.2287
     75  O          5.6650  -37.2760  -29.2250 O.2   349  LEU349     -0.2864
     76  CB         6.7330  -34.8100  -29.9870 C.3   349  LEU349      0.0297
     77  CG         7.4330  -33.6340  -30.6480 C.3   349  LEU349      0.0022
     78  CD1        7.6920  -32.5680  -29.6280 C.3   349  LEU349      0.0001
     79  CD2        8.7230  -34.1050  -31.2870 C.3   349  LEU349      0.0001
     80  N          4.5710  -45.2210  -29.5980 N.3   354  GLU354     -0.1245
     81  CA         3.7780  -44.8130  -30.7570 C.3   354  GLU354      0.1567
     82  C          4.5260  -45.0770  -32.0890 C.2   354  GLU354      0.2260
     83  O          3.9170  -45.3090  -33.1410 O.2   354  GLU354     -0.2867
     84  CB         3.3870  -43.3350  -30.6250 C.3   354  GLU354      0.0388
     85  CG         2.3060  -43.0480  -29.5890 C.3   354  GLU354      0.1160
     86  CD         2.0790  -41.5560  -29.3630 C.2   354  GLU354      0.3649
     87  OE1        3.0550  -40.7770  -29.4190 O.co2 354  GLU354     -0.2457
     88  OE2        0.9220  -41.1570  -29.1230 O.co2 354  GLU354     -0.2457
@<TRIPOS>BOND
     1     4     3    2
     2     3     2    1
     3     1     2    1
     4     5     2    1
     5     5     6    1
     6     8     6   ar
     7     8    10   ar
     8     6     7   ar
     9    10    11   ar
    10     7     9   ar
    11    11     9   ar
    12    11    12    1
    13    13    14    1
    14    14    15    1
    15    17    15   am
    16    17    18    1
    17    21    18    1
    18    15    16    2
    19    18    19    1
    20    40    42   ar
    21    40    38   ar
    22    42    43   ar
    23    37    38    1
    24    37    34    1
    25    38    39   ar
    26    43    41   ar
    27    46    47    2
    28    46    45    1
    29    39    41   ar
    30    45    44    1
    31    45    48    1
    32    56    55   ar
    33    36    35    2
    34    19    20    2
    35    19    22   am
    36    57    55   ar
    37    50    51    1
    38    35    44   am
    39    35    34    1
    40    34    33    1
    41    55    54    1
    42    71    70    1
    43    49    48    1
    44    70    67    1
    45    22    28    1
    46    22    23    1
    47    51    54    1
    48    51    52    1
    49    28    27    1
    50    33    31   am
    51    61    60    2
    52    52    58   am
    53    52    53    2
    54    69    68    2
    55    23    24    1
    56    23    26    1
    57    58    59    1
    58    67    66    1
    59    67    68    1
    60    27    26    1
    61    60    59    1
    62    31    32    2
    63    31    30    1
    64    83    82    2
    65    24    25    2
    66    24    29   am
    67    68    72   am
    68    29    30    1
    69    59    62    1
    70    82    81    1
    71    64    63    2
    72    72    73    1
    73    63    62    1
    74    63    65   am
    75    79    77    1
    76    73    74    1
    77    73    76    1
    78    81    84    1
    79    81    80    1
    80    77    76    1
    81    77    78    1
    82    84    85    1
    83    74    75    2
    84    85    86    1
    85    87    86   ar
    86    86    88   ar
