@<TRIPOS>MOLECULE
tmp/4bdtA01.pdb
 217 218 0 0 0
SMALL
GASTEIGER

@<TRIPOS>ATOM
      1  N        -11.9440  -35.6700  -49.8800 N.3    70  ASP70      -0.1239
      2  CA       -11.1960  -35.8060  -48.6300 C.3    70  ASP70       0.1674
      3  C        -11.4740  -34.6310  -47.6980 C.2    70  ASP70       0.2266
      4  O        -11.0460  -33.5080  -47.9590 O.2    70  ASP70      -0.2867
      5  CB        -9.6950  -35.9030  -48.9250 C.3    70  ASP70       0.1410
      6  CG        -8.8700  -36.2990  -47.7070 C.2    70  ASP70       0.3668
      7  OD1       -9.2340  -35.9310  -46.5680 O.co2  70  ASP70      -0.2456
      8  OD2       -7.8380  -36.9770  -47.8980 O.co2  70  ASP70      -0.2456
      9  N         -5.9420  -28.0170  -47.6660 N.3    79  THR79      -0.1218
     10  CA        -6.5660  -29.3140  -47.8720 C.3    79  THR79       0.1862
     11  C         -7.5890  -29.2010  -48.9900 C.2    79  THR79       0.2287
     12  O         -7.8770  -30.1840  -49.6820 O.2    79  THR79      -0.2866
     13  CB        -7.2110  -29.8550  -46.5650 C.3    79  THR79       0.1770
     14  OG1       -7.1830  -31.2920  -46.5520 O.3    79  THR79      -0.2211
     15  CG2       -8.6370  -29.3540  -46.4160 C.3    79  THR79       0.0375
     16  N         -6.5710  -29.2510  -53.1020 N.3    82  TRP82      -0.1241
     17  CA        -6.6670  -30.4480  -53.9350 C.3    82  TRP82       0.1605
     18  C         -8.1090  -30.8570  -54.1390 C.2    82  TRP82       0.2264
     19  O         -8.3890  -31.7750  -54.9000 O.2    82  TRP82      -0.2867
     20  CB        -5.9210  -31.6180  -53.2910 C.3    82  TRP82       0.0550
     21  CG        -4.6070  -31.2190  -52.7370 C.ar   82  TRP82       0.0003
     22  CD1       -4.3420  -30.8110  -51.4570 C.ar   82  TRP82       0.0946
     23  CD2       -3.3670  -31.1630  -53.4410 C.ar   82  TRP82       0.0152
     24  NE1       -3.0090  -30.5070  -51.3250 N.ar   82  TRP82      -0.2442
     25  CE2       -2.3880  -30.7170  -52.5290 C.ar   82  TRP82       0.0810
     26  CE3       -2.9860  -31.4510  -54.7510 C.ar   82  TRP82       0.0012
     27  CZ2       -1.0510  -30.5540  -52.8910 C.ar   82  TRP82       0.0191
     28  CZ3       -1.6620  -31.2800  -55.1070 C.ar   82  TRP82       0.0001
     29  CH2       -0.7090  -30.8370  -54.1790 C.ar   82  TRP82       0.0015
     30  N         -2.1600  -36.6010  -60.0950 N.3   116  GLY116     -0.1210
     31  CA        -2.1650  -37.6590  -59.0930 C.3   116  GLY116      0.1956
     32  C         -3.3930  -37.6140  -58.1950 C.2   116  GLY116      0.2612
     33  O         -4.3330  -36.8670  -58.4680 O.2   116  GLY116     -0.2717
     34  N         -3.3880  -38.4140  -57.1260 N.am  117  GLY117     -0.1942
     35  CA        -4.5170  -38.4890  -56.2050 C.3   117  GLY117      0.2014
     36  C         -4.9870  -39.9120  -55.9380 C.2   117  GLY117      0.2639
     37  O         -6.1960  -40.1730  -55.8390 O.2   117  GLY117     -0.2714
     38  N         -4.0200  -40.8300  -55.8570 N.am  118  GLY118     -0.1954
     39  CA        -4.2450  -42.2260  -55.5110 C.3   118  GLY118      0.1869
     40  C         -5.1400  -43.0570  -56.4140 C.2   118  GLY118      0.2309
     41  O         -5.5180  -44.1730  -56.0450 O.2   118  GLY118     -0.2863
     42  N         -8.0040  -42.3720  -56.7690 N.3   120  TYR120     -0.1227
     43  CA        -9.3170  -42.1500  -56.1610 C.3   120  TYR120      0.1736
     44  C         -9.7780  -40.6990  -56.3090 C.2   120  TYR120      0.2596
     45  O        -10.9670  -40.4200  -56.1790 O.2   120  TYR120     -0.2718
     46  CB        -9.3710  -42.6050  -54.6840 C.3   120  TYR120      0.0548
     47  CG        -8.5930  -41.7420  -53.6850 C.ar  120  TYR120     -0.0200
     48  CD1       -9.1450  -40.5860  -53.1260 C.ar  120  TYR120     -0.0009
     49  CD2       -7.3170  -42.1000  -53.2850 C.ar  120  TYR120     -0.0009
     50  CE1       -8.4260  -39.8100  -52.2090 C.ar  120  TYR120      0.0417
     51  CE2       -6.6030  -41.3300  -52.3800 C.ar  120  TYR120      0.0417
     52  CZ        -7.1510  -40.1960  -51.8410 C.ar  120  TYR120      0.1957
     53  OH        -6.3890  -39.4720  -50.9440 O.3   120  TYR120     -0.2866
     54  N         -8.8460  -39.7820  -56.5820 N.am  121  SER121     -0.1952
     55  CA        -9.1900  -38.3640  -56.7030 C.3   121  SER121      0.1924
     56  C         -8.3190  -37.6380  -57.7200 C.2   121  SER121      0.2314
     57  O         -7.3090  -38.1770  -58.1700 O.2   121  SER121     -0.2863
     58  CB        -9.0480  -37.6640  -55.3480 C.3   121  SER121      0.2116
     59  OG        -7.6840  -37.5820  -54.9520 O.3   121  SER121     -0.2180
     60  N         -2.8160  -26.6700  -61.3450 N.3   129  TYR129     -0.1241
     61  CA        -2.5190  -27.3340  -62.6120 C.3   129  TYR129      0.1605
     62  C         -2.8220  -26.4310  -63.8020 C.2   129  TYR129      0.2264
     63  O         -3.0380  -26.9160  -64.9120 O.2   129  TYR129     -0.2867
     64  CB        -3.3270  -28.6230  -62.7570 C.3   129  TYR129      0.0534
     65  CG        -3.0900  -29.6550  -61.6800 C.ar  129  TYR129     -0.0201
     66  CD1       -1.8270  -29.8510  -61.1360 C.ar  129  TYR129     -0.0009
     67  CD2       -4.1400  -30.4420  -61.2100 C.ar  129  TYR129     -0.0009
     68  CE1       -1.6210  -30.7980  -60.1510 C.ar  129  TYR129      0.0417
     69  CE2       -3.9440  -31.3840  -60.2310 C.ar  129  TYR129      0.0417
     70  CZ        -2.6860  -31.5590  -59.7010 C.ar  129  TYR129      0.1957
     71  OH        -2.4920  -32.5020  -58.7160 O.3   129  TYR129     -0.2866
     72  N          2.5370  -36.5300  -61.4760 N.3   198  GLU198     -0.1231
     73  CA         3.0100  -36.5640  -60.1100 C.3   198  GLU198      0.1699
     74  C          2.1030  -37.5140  -59.3560 C.2   198  GLU198      0.2593
     75  O          0.9220  -37.6350  -59.6790 O.2   198  GLU198     -0.2718
     76  CB         2.9920  -35.1540  -59.5060 C.3   198  GLU198      0.0402
     77  CG         3.5660  -35.0450  -58.1010 C.3   198  GLU198      0.1161
     78  CD         2.5380  -35.3640  -57.0190 C.2   198  GLU198      0.3649
     79  OE1        1.3170  -35.3480  -57.3150 O.co2 198  GLU198     -0.2457
     80  OE2        2.9570  -35.6410  -55.8710 O.co2 198  GLU198     -0.2457
     81  N          2.6630  -38.1990  -58.3670 N.am  199  SER199     -0.1938
     82  CA         1.9100  -39.1590  -57.5670 C.3   199  SER199      0.2055
     83  C          1.4320  -40.3260  -58.4320 C.2   199  SER199      0.2642
     84  O          2.2310  -40.9340  -59.1460 O.2   199  SER199     -0.2714
     85  CB         0.7390  -38.4840  -56.8390 C.3   199  SER199      0.2130
     86  OG         0.3520  -39.2530  -55.7110 O.3   199  SER199     -0.2179
     87  N          0.1410  -40.6440  -58.3590 N.am  200  ALA200     -0.1977
     88  CA        -0.4300  -41.6910  -59.2020 C.3   200  ALA200      0.1597
     89  C         -0.2850  -41.2910  -60.6690 C.2   200  ALA200      0.2287
     90  O         -0.1180  -42.1380  -61.5460 O.2   200  ALA200     -0.2864
     91  CB        -1.8920  -41.9320  -58.8520 C.3   200  ALA200      0.0319
     92  N          1.4590  -49.3140  -53.8240 N.3   232  TRP232     -0.1241
     93  CA         0.0980  -48.8270  -53.8180 C.3   232  TRP232      0.1605
     94  C         -0.4270  -48.6420  -55.2300 C.2   232  TRP232      0.2264
     95  O         -1.6130  -48.3820  -55.4120 O.2   232  TRP232     -0.2867
     96  CB         0.0850  -47.4840  -53.1390 C.3   232  TRP232      0.0550
     97  CG         1.1350  -46.6380  -53.7090 C.ar  232  TRP232      0.0003
     98  CD1        2.4380  -46.5460  -53.3020 C.ar  232  TRP232      0.0946
     99  CD2        1.0060  -45.7880  -54.8360 C.ar  232  TRP232      0.0152
    100  NE1        3.1240  -45.6630  -54.1020 N.ar  232  TRP232     -0.2442
    101  CE2        2.2630  -45.1860  -55.0530 C.ar  232  TRP232      0.0810
    102  CE3       -0.0550  -45.4630  -55.6790 C.ar  232  TRP232      0.0012
    103  CZ2        2.4820  -44.2860  -56.0800 C.ar  232  TRP232      0.0191
    104  CZ3        0.1670  -44.5700  -56.6910 C.ar  232  TRP232      0.0001
    105  CH2        1.4220  -43.9910  -56.8870 C.ar  232  TRP232      0.0015
    106  N         -1.4910  -44.7350  -47.0080 N.3   291  PHE291     -0.1241
    107  CA        -0.9270  -44.7520  -48.3780 C.3   291  PHE291      0.1605
    108  C         -1.3340  -46.0180  -49.1460 C.2   291  PHE291      0.2264
    109  O         -0.4960  -46.6700  -49.7820 O.2   291  PHE291     -0.2867
    110  CB         0.6080  -44.6340  -48.3400 C.3   291  PHE291      0.0534
    111  CG         1.2200  -43.9470  -49.5380 C.ar  291  PHE291     -0.0203
    112  CD1        0.7340  -44.1620  -50.8260 C.ar  291  PHE291     -0.0042
    113  CD2        2.2960  -43.0880  -49.3700 C.ar  291  PHE291     -0.0042
    114  CE1        1.3050  -43.5300  -51.9150 C.ar  291  PHE291     -0.0003
    115  CE2        2.8650  -42.4490  -50.4550 C.ar  291  PHE291     -0.0003
    116  CZ         2.3730  -42.6710  -51.7260 C.ar  291  PHE291     -0.0000
    117  N         -5.0090  -47.4860  -51.4670 N.3   293  PHE293     -0.1241
    118  CA        -6.1890  -46.9820  -52.1670 C.3   293  PHE293      0.1605
    119  C         -6.9780  -48.1510  -52.7200 C.2   293  PHE293      0.2264
    120  O         -6.3880  -49.1370  -53.1440 O.2   293  PHE293     -0.2867
    121  CB        -5.7600  -46.0830  -53.3190 C.3   293  PHE293      0.0534
    122  CG        -4.6150  -45.1870  -52.9870 C.ar  293  PHE293     -0.0203
    123  CD1       -4.8250  -43.9970  -52.3420 C.ar  293  PHE293     -0.0042
    124  CD2       -3.3230  -45.5370  -53.3140 C.ar  293  PHE293     -0.0042
    125  CE1       -3.7700  -43.1600  -52.0250 C.ar  293  PHE293     -0.0003
    126  CE2       -2.2570  -44.7010  -52.9960 C.ar  293  PHE293     -0.0003
    127  CZ        -2.4880  -43.5110  -52.3530 C.ar  293  PHE293     -0.0000
    128  N          2.9040  -36.3260  -44.6280 N.3   333  TYR333     -0.1227
    129  CA         1.4770  -35.9970  -44.5110 C.3   333  TYR333      0.1736
    130  C          0.5730  -37.2090  -44.2040 C.2   333  TYR333      0.2595
    131  O         -0.4500  -37.0780  -43.5270 O.2   333  TYR333     -0.2718
    132  CB         1.0000  -35.1630  -45.7330 C.3   333  TYR333      0.0548
    133  CG         0.0280  -35.8230  -46.7150 C.ar  333  TYR333     -0.0200
    134  CD1       -1.3170  -35.9910  -46.3900 C.ar  333  TYR333     -0.0009
    135  CD2        0.4440  -36.2260  -47.9940 C.ar  333  TYR333     -0.0009
    136  CE1       -2.2130  -36.5780  -47.2820 C.ar  333  TYR333      0.0417
    137  CE2       -0.4570  -36.8140  -48.9040 C.ar  333  TYR333      0.0417
    138  CZ        -1.7890  -36.9850  -48.5340 C.ar  333  TYR333      0.1957
    139  OH        -2.7240  -37.5630  -49.3790 O.3   333  TYR333     -0.2866
    140  N          0.9690  -38.3880  -44.6690 N.am  334  PHE334     -0.1976
    141  CA         0.1030  -39.5600  -44.5760 C.3   334  PHE334      0.1639
    142  C         -0.1630  -40.0370  -43.1420 C.2   334  PHE334      0.2290
    143  O         -1.2140  -40.6120  -42.8530 O.2   334  PHE334     -0.2864
    144  CB         0.6730  -40.6950  -45.4220 C.3   334  PHE334      0.0560
    145  CG         0.5620  -40.4580  -46.8840 C.ar  334  PHE334     -0.0200
    146  CD1       -0.6340  -40.6980  -47.5470 C.ar  334  PHE334     -0.0042
    147  CD2        1.6450  -39.9750  -47.6040 C.ar  334  PHE334     -0.0042
    148  CE1       -0.7470  -40.4670  -48.9170 C.ar  334  PHE334     -0.0003
    149  CE2        1.5430  -39.7430  -48.9680 C.ar  334  PHE334     -0.0003
    150  CZ         0.3460  -39.9920  -49.6270 C.ar  334  PHE334     -0.0000
    151  N         -3.3720  -39.8470  -41.0530 N.3   337  TYR337     -0.1241
    152  CA        -4.5240  -40.6480  -41.4490 C.3   337  TYR337      0.1605
    153  C         -4.6230  -41.9410  -40.6580 C.2   337  TYR337      0.2264
    154  O         -5.1710  -42.9370  -41.1470 O.2   337  TYR337     -0.2867
    155  CB        -4.5320  -40.9130  -42.9650 C.3   337  TYR337      0.0534
    156  CG        -4.9240  -39.6870  -43.7710 C.ar  337  TYR337     -0.0201
    157  CD1       -6.2570  -39.3940  -44.0290 C.ar  337  TYR337     -0.0009
    158  CD2       -3.9600  -38.8020  -44.2380 C.ar  337  TYR337     -0.0009
    159  CE1       -6.6160  -38.2650  -44.7460 C.ar  337  TYR337      0.0417
    160  CE2       -4.3110  -37.6690  -44.9560 C.ar  337  TYR337      0.0417
    161  CZ        -5.6380  -37.4060  -45.2110 C.ar  337  TYR337      0.1957
    162  OH        -5.9820  -36.2770  -45.9310 O.3   337  TYR337     -0.2866
    163  N          0.5510  -26.1330  -43.8490 N.3   435  TRP435     -0.1241
    164  CA         0.7450  -27.3070  -43.0080 C.3   435  TRP435      0.1605
    165  C          1.9020  -27.1060  -42.0210 C.2   435  TRP435      0.2264
    166  O          2.8530  -26.3710  -42.3140 O.2   435  TRP435     -0.2867
    167  CB         0.9960  -28.5480  -43.8670 C.3   435  TRP435      0.0550
    168  CG        -0.1060  -28.8450  -44.8260 C.ar  435  TRP435      0.0003
    169  CD1       -0.2070  -28.4110  -46.1070 C.ar  435  TRP435      0.0946
    170  CD2       -1.2660  -29.6560  -44.5840 C.ar  435  TRP435      0.0152
    171  NE1       -1.3560  -28.8900  -46.6800 N.ar  435  TRP435     -0.2442
    172  CE2       -2.0240  -29.6600  -45.7660 C.ar  435  TRP435      0.0810
    173  CE3       -1.7360  -30.3750  -43.4820 C.ar  435  TRP435      0.0012
    174  CZ2       -3.2290  -30.3540  -45.8810 C.ar  435  TRP435      0.0191
    175  CZ3       -2.9320  -31.0590  -43.6000 C.ar  435  TRP435      0.0001
    176  CH2       -3.6650  -31.0430  -44.7920 C.ar  435  TRP435      0.0015
    177  N          5.9250  -31.5350  -41.1410 N.3   439  MET439     -0.1245
    178  CA         5.7060  -32.1410  -42.4550 C.3   439  MET439      0.1570
    179  C          6.7780  -31.7650  -43.5050 C.2   439  MET439      0.2261
    180  O          6.9600  -32.4850  -44.4870 O.2   439  MET439     -0.2867
    181  CB         4.3060  -31.8320  -42.9770 C.3   439  MET439      0.0387
    182  CG         3.2050  -32.4840  -42.1910 C.3   439  MET439      0.0595
    183  SD         1.6060  -32.0920  -42.9130 S.3   439  MET439     -0.1393
    184  CE         0.5120  -33.1690  -42.0040 C.3   439  MET439      0.0692
    185  N          6.1160  -31.5560  -48.1550 N.3   442  PRO442     -0.2102
    186  CA         5.3690  -32.8090  -48.2870 C.3   442  PRO442      0.1504
    187  C          4.9490  -33.1640  -49.7340 C.2   442  PRO442      0.2576
    188  O          4.8780  -32.2940  -50.6140 O.2   442  PRO442     -0.2718
    189  CB         4.1420  -32.5860  -47.3750 C.3   442  PRO442      0.0282
    190  CG         4.1910  -31.0970  -46.9500 C.3   442  PRO442      0.0208
    191  CD         5.2430  -30.4290  -47.8000 C.3   442  PRO442      0.0893
    192  N          4.7130  -34.4620  -49.9420 N.am  443  HIS443     -0.1962
    193  CA         4.1380  -35.0510  -51.1520 C.3   443  HIS443      0.1787
    194  C          3.2230  -34.0880  -51.9000 C.2   443  HIS443      0.2621
    195  O          2.1210  -33.7850  -51.4390 O.2   443  HIS443     -0.2715
    196  CB         3.3440  -36.3050  -50.7460 C.3   443  HIS443      0.0785
    197  CG         2.9470  -37.2050  -51.8840 C.ar  443  HIS443      0.0821
    198  ND1        3.8580  -37.9370  -52.6170 N.ar  443  HIS443     -0.2267
    199  CD2        1.7250  -37.5420  -52.3690 C.ar  443  HIS443      0.1154
    200  CE1        3.2200  -38.6600  -53.5210 C.ar  443  HIS443      0.1986
    201  NE2        1.9230  -38.4400  -53.3890 N.ar  443  HIS443     -0.2212
    202  N          3.7010  -33.5950  -53.0420 N.am  444  GLY444     -0.1940
    203  CA         2.8680  -32.8470  -53.9620 C.3   444  GLY444      0.2014
    204  C          3.1040  -31.3580  -53.9540 C.2   444  GLY444      0.2638
    205  O          2.3950  -30.6120  -54.6200 O.2   444  GLY444     -0.2714
    206  N          4.1040  -30.9180  -53.2040 N.am  445  TYR445     -0.1973
    207  CA         4.3620  -29.4850  -53.0740 C.3   445  TYR445      0.1639
    208  C          5.5110  -28.9720  -53.9320 C.2   445  TYR445      0.2290
    209  O          6.0370  -27.8800  -53.7090 O.2   445  TYR445     -0.2864
    210  CB         4.4860  -29.0820  -51.6000 C.3   445  TYR445      0.0560
    211  CG         3.1110  -28.8770  -51.0480 C.ar  445  TYR445     -0.0198
    212  CD1        2.4880  -27.6500  -51.1680 C.ar  445  TYR445     -0.0009
    213  CD2        2.3940  -29.9290  -50.4970 C.ar  445  TYR445     -0.0009
    214  CE1        1.2040  -27.4530  -50.7090 C.ar  445  TYR445      0.0417
    215  CE2        1.0980  -29.7400  -50.0310 C.ar  445  TYR445      0.0417
    216  CZ         0.5140  -28.4960  -50.1480 C.ar  445  TYR445      0.1957
    217  OH        -0.7640  -28.2690  -49.7180 O.3   445  TYR445     -0.2866
@<TRIPOS>BOND
     1    63    62    2
     2    62    61    1
     3    64    61    1
     4    64    65    1
     5    61    60    1
     6    65    67   ar
     7    65    66   ar
     8    90    89    2
     9    72    73    1
    10    67    69   ar
    11    66    68   ar
    12    89    88    1
    13    69    70   ar
    14    68    70   ar
    15    73    76    1
    16    73    74    1
    17    30    31    1
    18    70    71    1
    19    75    74    2
    20    76    77    1
    21    74    81   am
    22    88    91    1
    23    88    87    1
    24    84    83    2
    25    31    32    1
    26    33    32    2
    27    83    87   am
    28    83    82    1
    29    81    82    1
    30    32    34   am
    31    57    56    2
    32    77    78    1
    33    56    55    1
    34    82    85    1
    35    79    78   ar
    36    34    35    1
    37    78    80   ar
    38   105   104   ar
    39   105   103   ar
    40    85    86    1
    41    42    43    1
    42    55    54    1
    43    55    58    1
    44   104   102   ar
    45    54    44   am
    46    40    41    2
    47    40    39    1
    48    44    45    2
    49    44    43    1
    50    35    36    1
    51    43    46    1
    52   103   101   ar
    53    36    38   am
    54    36    37    2
    55    38    39    1
    56   102    99   ar
    57    95    94    2
    58    58    59    1
    59    94    93    1
    60    28    26   ar
    61    28    29   ar
    62   101    99   ar
    63   101   100   ar
    64    19    18    2
    65    99    97   ar
    66    26    23   ar
    67    46    47    1
    68   205   204    2
    69    29    27   ar
    70    18    17    1
    71   100    98   ar
    72   203   204    1
    73   203   202    1
    74   204   206   am
    75    17    20    1
    76    17    16    1
    77   208   209    2
    78   208   207    1
    79    92    93    1
    80    93    96    1
    81    97    98   ar
    82    97    96    1
    83    47    49   ar
    84    47    48   ar
    85   200   201   ar
    86   200   198   ar
    87    23    21   ar
    88    23    25   ar
    89   201   199   ar
    90   121   122    1
    91   121   118    1
    92   124   126   ar
    93   124   122   ar
    94    20    21    1
    95    49    51   ar
    96   206   207    1
    97   120   119    2
    98    48    50   ar
    99   207   210    1
   100   202   194   am
   101   126   127   ar
   102   122   123   ar
   103    27    25   ar
   104    21    22   ar
   105   119   118    1
   106   198   197   ar
   107    25    24   ar
   108    51    52   ar
   109   199   197   ar
   110   127   125   ar
   111   123   125   ar
   112    50    52   ar
   113   118   117    1
   114   114   116   ar
   115   114   112   ar
   116   194   195    2
   117   194   193    1
   118   197   196    1
   119    52    53    1
   120   116   115   ar
   121   210   211    1
   122    22    24   ar
   123   212   211   ar
   124   212   214   ar
   125   193   196    1
   126   193   192    1
   127   211   213   ar
   128   112   111   ar
   129   214   216   ar
   130   188   187    2
   131   213   215   ar
   132   115   113   ar
   133   216   215   ar
   134   216   217    1
   135   192   187   am
   136     1     2    1
   137   109   108    2
   138   187   186    1
   139    12    11    2
   140   150   149   ar
   141   150   148   ar
   142   111   113   ar
   143   111   110    1
   144   139   138    1
   145   108   107    1
   146    11    10    1
   147   149   147   ar
   148     5     2    1
   149     5     6    1
   150   148   146   ar
   151   137   138   ar
   152   137   135   ar
   153     2     3    1
   154   138   136   ar
   155   107   110    1
   156   107   106    1
   157   186   185    1
   158   186   189    1
   159   185   191    1
   160   135   133   ar
   161     4     3    2
   162     8     6   ar
   163    10     9    1
   164    10    13    1
   165   191   190    1
   166     6     7   ar
   167   147   145   ar
   168   146   145   ar
   169   189   190    1
   170   136   134   ar
   171   145   144    1
   172   133   134   ar
   173   133   132    1
   174   171   169   ar
   175   171   172   ar
   176    13    14    1
   177    13    15    1
   178   169   168   ar
   179   162   161    1
   180   174   172   ar
   181   174   176   ar
   182   172   170   ar
   183   132   129    1
   184   144   141    1
   185   161   160   ar
   186   161   159   ar
   187   160   158   ar
   188   168   170   ar
   189   168   167    1
   190   176   175   ar
   191   159   157   ar
   192   140   141    1
   193   140   130   am
   194   128   129    1
   195   170   173   ar
   196   141   142    1
   197   129   130    1
   198   180   179    2
   199   158   156   ar
   200   130   131    2
   201   157   156   ar
   202   167   164    1
   203   163   164    1
   204   156   155    1
   205   175   173   ar
   206   179   178    1
   207   142   143    2
   208   164   165    1
   209   181   178    1
   210   181   182    1
   211   155   152    1
   212   183   182    1
   213   183   184    1
   214   178   177    1
   215   166   165    2
   216   152   151    1
   217   152   153    1
   218   154   153    2
