@<TRIPOS>MOLECULE
tmp/4bdvB00.pdb
 121 113 0 0 0
SMALL
GASTEIGER

@<TRIPOS>ATOM
      1  N        -18.6210  -34.1350   59.0610 N.3    48  LEU48      -0.1245
      2  CA       -18.9660  -35.5430   59.3200 C.3    48  LEU48       0.1561
      3  C        -19.4410  -35.7760   60.7570 C.2    48  LEU48       0.2260
      4  O        -20.6490  -35.8820   61.0130 O.2    48  LEU48      -0.2867
      5  CB       -17.7690  -36.4730   59.0210 C.3    48  LEU48       0.0270
      6  CG       -17.2370  -36.7920   57.6160 C.3    48  LEU48       0.0019
      7  CD1      -18.3760  -36.9770   56.6130 C.3    48  LEU48       0.0001
      8  CD2      -16.2210  -35.7360   57.1830 C.3    48  LEU48       0.0001
      9  N        -12.3650  -45.3570   52.7880 N.3   157  HIS157     -0.1241
     10  CA       -13.2080  -44.1710   52.7770 C.3   157  HIS157      0.1621
     11  C        -13.8940  -43.8300   54.1110 C.2   157  HIS157      0.2264
     12  O        -14.9940  -43.2780   54.1150 O.2   157  HIS157     -0.2867
     13  CB       -14.2540  -44.3360   51.6780 C.3   157  HIS157      0.0745
     14  CG       -14.9440  -43.0650   51.3180 C.ar  157  HIS157      0.0817
     15  ND1      -16.1020  -42.6500   51.9380 N.ar  157  HIS157     -0.2268
     16  CD2      -14.6290  -42.1030   50.4180 C.ar  157  HIS157      0.1154
     17  CE1      -16.4780  -41.4910   51.4280 C.ar  157  HIS157      0.1986
     18  NE2      -15.6040  -41.1400   50.5000 N.ar  157  HIS157     -0.2212
     19  N        -21.2380  -46.0460   54.9620 N.3   161  VAL161     -0.1231
     20  CA       -21.3120  -45.0590   53.8660 C.3   161  VAL161      0.1692
     21  C        -22.7330  -44.8120   53.3260 C.2   161  VAL161      0.2593
     22  O        -23.0660  -43.6920   52.9480 O.2   161  VAL161     -0.2718
     23  CB       -20.2970  -45.3520   52.7050 C.3   161  VAL161      0.0266
     24  CG1      -20.7850  -46.4620   51.7720 C.3   161  VAL161      0.0020
     25  CG2      -19.9290  -44.0760   51.9400 C.3   161  VAL161      0.0020
     26  N        -23.5590  -45.8510   53.3050 N.am  162  THR162     -0.1939
     27  CA       -24.8760  -45.7940   52.6490 C.3   162  THR162      0.2028
     28  C        -26.0480  -45.3680   53.5520 C.2   162  THR162      0.2642
     29  O        -27.2230  -45.3100   53.1320 O.2   162  THR162     -0.2714
     30  CB       -25.2020  -47.1350   52.0020 C.3   162  THR162      0.1808
     31  OG1      -24.6680  -48.1840   52.8190 O.3   162  THR162     -0.2208
     32  CG2      -24.5780  -47.1900   50.6280 C.3   162  THR162      0.0379
     33  N        -25.7140  -45.0740   54.7980 N.am  163  VAL163     -0.1963
     34  CA       -26.6540  -44.4780   55.7060 C.3   163  VAL163      0.1727
     35  C        -25.8380  -43.4800   56.5040 C.2   163  VAL163      0.2616
     36  O        -24.6170  -43.6720   56.6780 O.2   163  VAL163     -0.2715
     37  CB       -27.2750  -45.5290   56.6320 C.3   163  VAL163      0.0290
     38  CG1      -27.1310  -46.9410   56.0360 C.3   163  VAL163      0.0023
     39  CG2      -26.6660  -45.4440   58.0310 C.3   163  VAL163      0.0023
     40  N        -26.4880  -42.4020   56.9430 N.am  164  GLN164     -0.1977
     41  CA       -25.8450  -41.4580   57.8400 C.3   164  GLN164      0.1601
     42  C        -26.0770  -42.0110   59.2380 C.2   164  GLN164      0.2287
     43  O        -27.2050  -42.3640   59.6050 O.2   164  GLN164     -0.2864
     44  CB       -26.3760  -40.0350   57.6510 C.3   164  GLN164      0.0394
     45  CG       -26.1420  -39.4710   56.2470 C.3   164  GLN164      0.0908
     46  CD       -27.2240  -38.4770   55.7830 C.2   164  GLN164      0.2608
     47  OE1      -28.3920  -38.8360   55.5980 O.2   164  GLN164     -0.2717
     48  NE2      -26.8240  -37.2240   55.5660 N.am  164  GLN164     -0.0878
     49  N        -33.6460  -38.6530   52.0190 N.3   211  ASP211     -0.1225
     50  CA       -33.6930  -40.0100   51.5080 C.3   211  ASP211      0.1805
     51  C        -33.0040  -40.8500   52.5660 C.2   211  ASP211      0.2597
     52  O        -33.6700  -41.4170   53.4340 O.2   211  ASP211     -0.2718
     53  CB       -32.9720  -40.1560   50.1570 C.3   211  ASP211      0.1424
     54  CG       -32.6710  -38.8160   49.4870 C.2   211  ASP211      0.3668
     55  OD1      -33.4880  -37.8670   49.5840 O.co2 211  ASP211     -0.2456
     56  OD2      -31.6000  -38.7210   48.8480 O.co2 211  ASP211     -0.2456
     57  N        -31.6660  -40.8510   52.5210 N.am  212  GLN212     -0.1979
     58  CA       -30.8130  -41.7510   53.3030 C.3   212  GLN212      0.1601
     59  C        -31.4240  -42.0770   54.6590 C.2   212  GLN212      0.2287
     60  O        -31.7980  -41.1920   55.4220 O.2   212  GLN212     -0.2864
     61  CB       -29.3870  -41.2050   53.4240 C.3   212  GLN212      0.0394
     62  CG       -28.9310  -40.4760   52.1630 C.3   212  GLN212      0.0908
     63  CD       -27.4450  -40.6300   51.8480 C.2   212  GLN212      0.2608
     64  OE1      -26.7920  -41.5330   52.3640 O.2   212  GLN212     -0.2717
     65  NE2      -26.9080  -39.7530   50.9800 N.am  212  GLN212     -0.0878
     66  N        -32.3680  -32.6100   48.8670 N.3   293  ASN293     -0.1240
     67  CA       -31.3860  -32.2230   47.8480 C.3   293  ASN293      0.1653
     68  C        -31.9060  -32.3590   46.4280 C.2   293  ASN293      0.2266
     69  O        -31.1540  -32.1760   45.4640 O.2   293  ASN293     -0.2867
     70  CB       -29.9880  -32.8370   48.0380 C.3   293  ASN293      0.1155
     71  CG       -30.0130  -34.3360   48.1430 C.2   293  ASN293      0.2627
     72  OD1      -31.0820  -34.9700   48.1080 O.2   293  ASN293     -0.2716
     73  ND2      -28.8230  -34.9230   48.2860 N.am  293  ASN293     -0.0877
     74  N        -31.4290  -28.3090   44.8040 N.3   296  GLN296     -0.1245
     75  CA       -30.2380  -27.5000   44.5260 C.3   296  GLN296      0.1566
     76  C        -30.7800  -26.3540   43.6470 C.2   296  GLN296      0.2260
     77  O        -31.6630  -26.5880   42.8070 O.2   296  GLN296     -0.2867
     78  CB       -29.1210  -28.3130   43.8140 C.3   296  GLN296      0.0367
     79  CG       -27.9830  -28.8520   44.6990 C.3   296  GLN296      0.0905
     80  CD       -26.6760  -29.1950   43.9460 C.2   296  GLN296      0.2608
     81  OE1      -26.2670  -28.5060   43.0030 O.2   296  GLN296     -0.2717
     82  NE2      -26.0060  -30.2580   44.3880 N.am  296  GLN296     -0.0878
     83  N        -16.6970  -35.1560   53.2460 N.3   392  ASN392     -0.1240
     84  CA       -16.5670  -36.5120   53.7410 C.3   392  ASN392      0.1653
     85  C        -15.1040  -36.9670   53.9060 C.2   392  ASN392      0.2266
     86  O        -14.1600  -36.3630   53.3530 O.2   392  ASN392     -0.2867
     87  CB       -17.4580  -37.5150   52.9620 C.3   392  ASN392      0.1155
     88  CG       -17.3710  -37.3370   51.4600 C.2   392  ASN392      0.2627
     89  OD1      -16.3160  -36.9900   50.9580 O.2   392  ASN392     -0.2716
     90  ND2      -18.4630  -37.5730   50.7270 N.am  392  ASN392     -0.0877
     91  N        -10.8820  -30.6420   53.0200 N.3   398  MET398     -0.1245
     92  CA       -11.1160  -31.0180   51.6300 C.3   398  MET398      0.1570
     93  C        -10.6580  -29.9760   50.6440 C.2   398  MET398      0.2261
     94  O        -11.0820  -28.8020   50.7010 O.2   398  MET398     -0.2867
     95  CB       -12.5540  -31.4150   51.3370 C.3   398  MET398      0.0387
     96  CG       -12.5840  -32.5770   50.3700 C.3   398  MET398      0.0595
     97  SD       -13.7690  -32.3980   49.0300 S.3   398  MET398     -0.1393
     98  CE       -13.1600  -33.6800   47.8920 C.3   398  MET398      0.0692
     99  N        -19.2430  -30.2980   44.1980 N.3   413  ILE413     -0.1245
    100  CA       -20.4030  -30.4240   45.1140 C.3   413  ILE413      0.1561
    101  C        -19.9150  -30.5750   46.5500 C.2   413  ILE413      0.2260
    102  O        -18.8770  -31.2040   46.7900 O.2   413  ILE413     -0.2867
    103  CB       -21.4810  -31.5120   44.7350 C.3   413  ILE413      0.0252
    104  CG1      -20.8980  -32.6700   43.8980 C.3   413  ILE413      0.0019
    105  CG2      -22.7080  -30.8760   44.0580 C.3   413  ILE413      0.0019
    106  CD1      -21.8170  -33.8740   43.7530 C.3   413  ILE413      0.0001
    107  N        -20.3640  -32.3850   49.5020 N.3   415  ASN415     -0.1226
    108  CA       -20.7870  -33.8130   49.5450 C.3   415  ASN415      0.1770
    109  C        -21.7580  -34.0250   50.6600 C.2   415  ASN415      0.2439
    110  O        -22.9120  -34.3990   50.3760 O.2   415  ASN415     -0.2733
    111  CB       -19.6070  -34.8080   49.7110 C.3   415  ASN415      0.1168
    112  CG       -18.2520  -34.2520   49.2710 C.2   415  ASN415      0.2627
    113  OD1      -17.6550  -34.7400   48.3040 O.2   415  ASN415     -0.2716
    114  ND2      -17.7390  -33.2630   50.0070 N.am  415  ASN415     -0.0877
    115  N        -21.2550  -33.8310   51.9170 N.am  416  PRO416     -0.2729
    116  CA       -22.0010  -33.2360   53.0270 C.3   416  PRO416      0.1401
    117  C        -22.0660  -31.7130   52.7720 C.2   416  PRO416      0.2269
    118  O        -21.0620  -31.1030   52.3910 O.2   416  PRO416     -0.2865
    119  CB       -21.1420  -33.5660   54.2530 C.3   416  PRO416      0.0296
    120  CG       -19.7510  -33.6940   53.7210 C.3   416  PRO416      0.0237
    121  CD       -19.9080  -34.2720   52.3500 C.3   416  PRO416      0.0939
@<TRIPOS>BOND
     1    77    76    2
     2    81    80    2
     3    76    75    1
     4   106   104    1
     5    78    75    1
     6    78    79    1
     7   104   103    1
     8    80    82   am
     9    80    79    1
    10   105   103    1
    11    99   100    1
    12    75    74    1
    13   103   100    1
    14   100   101    1
    15    69    68    2
    16    68    67    1
    17   101   102    2
    18    67    70    1
    19    67    66    1
    20    98    97    1
    21    70    71    1
    22    72    71    2
    23    71    73   am
    24   113   112    2
    25    56    54   ar
    26    97    96    1
    27   112   111    1
    28   112   114   am
    29    54    55   ar
    30    54    53    1
    31   107   108    1
    32   108   111    1
    33   108   109    1
    34    53    50    1
    35    96    95    1
    36   110   109    2
    37    16    18   ar
    38    16    14   ar
    39    18    17   ar
    40    32    30    1
    41    93    94    2
    42    93    92    1
    43   109   115   am
    44    90    88   am
    45    89    88    2
    46    65    63   am
    47    14    13    1
    48    14    15   ar
    49    95    92    1
    50    17    15   ar
    51    88    87    1
    52    50    49    1
    53    50    51    1
    54    92    91    1
    55    13    10    1
    56    24    23    1
    57    63    62    1
    58    63    64    2
    59   115   121    1
    60   115   116    1
    61    25    23    1
    62    30    27    1
    63    30    31    1
    64    62    61    1
    65   121   120    1
    66   118   117    2
    67    57    51   am
    68    57    58    1
    69    51    52    2
    70    27    26    1
    71    27    28    1
    72    23    20    1
    73   117   116    1
    74    10     9    1
    75    10    11    1
    76    22    21    2
    77    87    84    1
    78   116   119    1
    79    29    28    2
    80    83    84    1
    81    58    61    1
    82    58    59    1
    83    26    21   am
    84    21    20    1
    85    86    85    2
    86    28    33   am
    87   120   119    1
    88    84    85    1
    89    20    19    1
    90    11    12    2
    91    59    60    2
    92    33    34    1
    93    48    46   am
    94    47    46    2
    95    34    35    1
    96    34    37    1
    97    46    45    1
    98    38    37    1
    99    45    44    1
   100    35    36    2
   101    35    40   am
   102     7     6    1
   103    37    39    1
   104    40    41    1
   105     8     6    1
   106     6     5    1
   107    44    41    1
   108    41    42    1
   109     5     2    1
   110     1     2    1
   111    42    43    2
   112     2     3    1
   113     3     4    2
