@<TRIPOS>MOLECULE
tmp/4bdzA00.pdb
 92 86 0 0 0
SMALL
GASTEIGER

@<TRIPOS>ATOM
      1  N        -35.6730   32.2400  -10.1790 N.3   121  ASP121     -0.1225
      2  CA       -35.3420   31.9380  -11.5830 C.3   121  ASP121      0.1805
      3  C        -33.8280   31.8710  -11.7560 C.2   121  ASP121      0.2597
      4  O        -33.0960   32.4110  -10.9290 O.2   121  ASP121     -0.2718
      5  CB       -35.8940   33.0380  -12.4730 C.3   121  ASP121      0.1424
      6  CG       -35.7830   32.7220  -13.9290 C.2   121  ASP121      0.3668
      7  OD1      -35.8760   31.5540  -14.3250 O.co2 121  ASP121     -0.2456
      8  OD2      -35.6240   33.6650  -14.7090 O.co2 121  ASP121     -0.2456
      9  N        -33.3480   31.1920  -12.7930 N.am  122  TYR122     -0.1976
     10  CA       -31.9260   31.2170  -13.0830 C.3   122  TYR122      0.1639
     11  C        -31.6380   32.1240  -14.2460 C.2   122  TYR122      0.2290
     12  O        -32.4800   32.2650  -15.1440 O.2   122  TYR122     -0.2864
     13  CB       -31.3960   29.8360  -13.3970 C.3   122  TYR122      0.0560
     14  CG       -31.0620   29.0850  -12.1590 C.ar  122  TYR122     -0.0198
     15  CD1      -29.8340   29.2600  -11.5410 C.ar  122  TYR122     -0.0009
     16  CD2      -31.9900   28.2030  -11.5770 C.ar  122  TYR122     -0.0009
     17  CE1      -29.5260   28.5730  -10.3750 C.ar  122  TYR122      0.0417
     18  CE2      -31.6950   27.5180  -10.4100 C.ar  122  TYR122      0.0417
     19  CZ       -30.4620   27.7150   -9.8220 C.ar  122  TYR122      0.1957
     20  OH       -30.1560   27.0730   -8.6680 O.3   122  TYR122     -0.2866
     21  N        -40.9630   29.4390  -12.7780 N.3   178  ASP178     -0.1239
     22  CA       -41.2720   28.7870  -14.0470 C.3   178  ASP178      0.1674
     23  C        -41.1110   27.2780  -13.8680 C.2   178  ASP178      0.2266
     24  O        -40.6660   26.8080  -12.8110 O.2   178  ASP178     -0.2867
     25  CB       -40.4040   29.3110  -15.2130 C.3   178  ASP178      0.1410
     26  CG       -38.8940   29.0260  -15.0450 C.2   178  ASP178      0.3668
     27  OD1      -38.4930   27.9240  -14.5770 O.co2 178  ASP178     -0.2456
     28  OD2      -38.0910   29.9230  -15.4140 O.co2 178  ASP178     -0.2456
     29  N        -38.9390   25.2710  -14.9300 N.3   180  GLY180     -0.1225
     30  CA       -37.5800   24.7540  -15.1230 C.3   180  GLY180      0.1811
     31  C        -37.3080   23.4560  -14.3760 C.2   180  GLY180      0.2280
     32  O        -37.8650   23.2140  -13.2950 O.2   180  GLY180     -0.2866
     33  N        -43.9510   27.7830  -20.7330 N.3   205  TYR205     -0.1241
     34  CA       -43.3880   28.7430  -21.6840 C.3   205  TYR205      0.1605
     35  C        -44.0670   30.1180  -21.6540 C.2   205  TYR205      0.2264
     36  O        -44.6130   30.5910  -22.6650 O.2   205  TYR205     -0.2867
     37  CB       -43.3910   28.1570  -23.0790 C.3   205  TYR205      0.0534
     38  CG       -42.7880   26.7920  -23.1160 C.ar  205  TYR205     -0.0201
     39  CD1      -41.4060   26.6320  -23.2410 C.ar  205  TYR205     -0.0009
     40  CD2      -43.5980   25.6450  -23.0270 C.ar  205  TYR205     -0.0009
     41  CE1      -40.8320   25.3670  -23.2830 C.ar  205  TYR205      0.0417
     42  CE2      -43.0440   24.3770  -23.0550 C.ar  205  TYR205      0.0417
     43  CZ       -41.6570   24.2430  -23.1860 C.ar  205  TYR205      0.1957
     44  OH       -41.0870   22.9950  -23.2170 O.3   205  TYR205     -0.2866
     45  N        -42.7090   33.3120  -19.5580 N.3   207  PRO207     -0.2102
     46  CA       -41.8880   33.9570  -18.5480 C.3   207  PRO207      0.1504
     47  C        -42.4590   35.2880  -18.0380 C.2   207  PRO207      0.2575
     48  O        -42.1270   35.6920  -16.9270 O.2   207  PRO207     -0.2718
     49  CB       -40.5420   34.1160  -19.2460 C.3   207  PRO207      0.0282
     50  CG       -40.8730   34.1360  -20.6930 C.3   207  PRO207      0.0208
     51  CD       -42.0170   33.2080  -20.8530 C.3   207  PRO207      0.0893
     52  N        -43.3280   35.9400  -18.8110 N.am  208  GLN208     -0.1980
     53  CA       -44.0880   37.0830  -18.3090 C.3   208  GLN208      0.1601
     54  C        -44.6970   36.7770  -16.9410 C.2   208  GLN208      0.2287
     55  O        -44.8980   37.6900  -16.1090 O.2   208  GLN208     -0.2864
     56  CB       -45.2220   37.4510  -19.2500 C.3   208  GLN208      0.0394
     57  CG       -44.7940   37.8770  -20.6300 C.3   208  GLN208      0.0908
     58  CD       -44.6660   36.7130  -21.5940 C.2   208  GLN208      0.2608
     59  OE1      -43.8560   35.7970  -21.4010 O.2   208  GLN208     -0.2717
     60  NE2      -45.4600   36.7520  -22.6530 N.am  208  GLN208     -0.0878
     61  N        -42.6080   37.6460  -14.4000 N.3   211  GLY211     -0.1225
     62  CA       -42.1650   38.9970  -14.7300 C.3   211  GLY211      0.1811
     63  C        -41.4000   39.7620  -13.6420 C.2   211  GLY211      0.2280
     64  O        -40.4900   40.5330  -13.9510 O.2   211  GLY211     -0.2866
     65  N        -38.0430   38.2040  -13.6570 N.3   214  GLU214     -0.1245
     66  CA       -37.4810   38.2900  -14.9990 C.3   214  GLU214      0.1567
     67  C        -36.9540   39.6570  -15.1540 C.2   214  GLU214      0.2260
     68  O        -35.7820   39.8190  -15.4960 O.2   214  GLU214     -0.2867
     69  CB       -38.4950   37.9880  -16.0830 C.3   214  GLU214      0.0388
     70  CG       -38.8580   36.5170  -16.1180 C.3   214  GLU214      0.1160
     71  CD       -37.7010   35.6150  -16.5040 C.2   214  GLU214      0.3649
     72  OE1      -36.5000   36.0260  -16.5460 O.co2 214  GLU214     -0.2457
     73  OE2      -38.0180   34.4470  -16.7690 O.co2 214  GLU214     -0.2457
     74  N        -33.7920   40.3260  -13.4240 N.3   217  ASN217     -0.1240
     75  CA       -32.6830   39.7660  -14.1790 C.3   217  ASN217      0.1653
     76  C        -32.1020   40.7980  -15.1460 C.2   217  ASN217      0.2266
     77  O        -30.8710   40.9530  -15.2460 O.2   217  ASN217     -0.2867
     78  CB       -33.1300   38.5340  -14.9670 C.3   217  ASN217      0.1155
     79  CG       -33.4800   37.3640  -14.0770 C.2   217  ASN217      0.2627
     80  OD1      -33.1090   37.3470  -12.9160 O.2   217  ASN217     -0.2716
     81  ND2      -34.1930   36.3770  -14.6180 N.am  217  ASN217     -0.0877
     82  N        -41.1840   23.7660  -28.8910 N.3   322  ARG322     -0.1245
     83  CA       -39.9220   23.8830  -29.5850 C.3   322  ARG322      0.1563
     84  C        -40.0620   23.1820  -30.9490 C.2   322  ARG322      0.2260
     85  O        -39.5540   22.0720  -31.1460 O.2   322  ARG322     -0.2867
     86  CB       -38.7790   23.3430  -28.7150 C.3   322  ARG322      0.0307
     87  CG       -38.5510   24.2180  -27.4780 C.3   322  ARG322      0.0489
     88  CD       -37.6390   25.3750  -27.8970 C.3   322  ARG322      0.2205
     89  NE       -37.2580   26.1290  -26.6560 N.pl3 322  ARG322     -0.0865
     90  CZ       -38.0730   27.0380  -26.1210 C.cat 322  ARG322      0.5346
     91  NH1      -39.2230   27.4200  -26.6700 N.pl3 322  ARG322      0.1354
     92  NH2      -37.8040   27.4840  -24.8780 N.pl3 322  ARG322      0.1354
@<TRIPOS>BOND
     1    85    84    2
     2    84    83    1
     3    83    82    1
     4    83    86    1
     5    86    87    1
     6    88    87    1
     7    88    89    1
     8    91    90    1
     9    89    90    2
    10    90    92    1
    11    41    39   ar
    12    41    43   ar
    13    39    38   ar
    14    44    43    1
    15    43    42   ar
    16    38    37    1
    17    38    40   ar
    18    37    34    1
    19    42    40   ar
    20    36    35    2
    21    60    58   am
    22    34    35    1
    23    34    33    1
    24    58    59    2
    25    58    57    1
    26    51    50    1
    27    51    45    1
    28    50    49    1
    29    57    56    1
    30    45    46    1
    31    56    53    1
    32    49    46    1
    33    52    53    1
    34    52    47   am
    35    46    47    1
    36    53    54    1
    37    47    48    2
    38    54    55    2
    39    73    71   ar
    40    72    71   ar
    41    71    70    1
    42    70    69    1
    43    69    66    1
    44    68    67    2
    45    28    26   ar
    46    77    76    2
    47    25    26    1
    48    25    22    1
    49    67    66    1
    50    76    75    1
    51    12    11    2
    52    30    29    1
    53    30    31    1
    54    26    27   ar
    55    66    65    1
    56    78    75    1
    57    78    79    1
    58    62    61    1
    59    62    63    1
    60     8     6   ar
    61    81    79   am
    62    31    32    2
    63     7     6   ar
    64    11    10    1
    65    75    74    1
    66    79    80    2
    67    22    23    1
    68    22    21    1
    69    64    63    2
    70     6     5    1
    71    23    24    2
    72    13    10    1
    73    13    14    1
    74    10     9    1
    75     9     3   am
    76     5     2    1
    77    14    16   ar
    78    14    15   ar
    79     3     2    1
    80     3     4    2
    81     2     1    1
    82    16    18   ar
    83    15    17   ar
    84    18    19   ar
    85    17    19   ar
    86    19    20    1
