@<TRIPOS>MOLECULE
tmp/4be0A00.pdb
 81 76 0 0 0
SMALL
GASTEIGER

@<TRIPOS>ATOM
      1  N        -35.5650   32.3940  -10.1950 N.3   121  ASP121     -0.1225
      2  CA       -35.2530   32.0490  -11.5690 C.3   121  ASP121      0.1805
      3  C        -33.7610   31.9430  -11.7780 C.2   121  ASP121      0.2597
      4  O        -32.9880   32.4340  -10.9610 O.2   121  ASP121     -0.2718
      5  CB       -35.8400   33.0950  -12.5240 C.3   121  ASP121      0.1424
      6  CG       -35.7050   32.6920  -13.9580 C.2   121  ASP121      0.3668
      7  OD1      -35.6800   31.4730  -14.2350 O.co2 121  ASP121     -0.2456
      8  OD2      -35.6110   33.5930  -14.8050 O.co2 121  ASP121     -0.2456
      9  N        -33.3480   31.2930  -12.8580 N.am  122  TYR122     -0.1976
     10  CA       -31.9250   31.2570  -13.1960 C.3   122  TYR122      0.1639
     11  C        -31.5860   32.1890  -14.3310 C.2   122  TYR122      0.2290
     12  O        -32.4110   32.4000  -15.2200 O.2   122  TYR122     -0.2864
     13  CB       -31.4800   29.8510  -13.5360 C.3   122  TYR122      0.0560
     14  CG       -31.0900   29.1060  -12.2960 C.ar  122  TYR122     -0.0198
     15  CD1      -29.8580   29.3520  -11.6700 C.ar  122  TYR122     -0.0009
     16  CD2      -31.9560   28.1640  -11.7150 C.ar  122  TYR122     -0.0009
     17  CE1      -29.4920   28.6650  -10.5090 C.ar  122  TYR122      0.0417
     18  CE2      -31.6010   27.4740  -10.5560 C.ar  122  TYR122      0.0417
     19  CZ       -30.3700   27.7350   -9.9590 C.ar  122  TYR122      0.1957
     20  OH       -30.0330   27.0930   -8.8060 O.3   122  TYR122     -0.2866
     21  N        -40.8430   29.4710  -12.6100 N.3   178  ASP178     -0.1239
     22  CA       -41.2500   28.9130  -13.8930 C.3   178  ASP178      0.1674
     23  C        -41.0450   27.4030  -13.8210 C.2   178  ASP178      0.2266
     24  O        -40.6220   26.8760  -12.7800 O.2   178  ASP178     -0.2867
     25  CB       -40.4490   29.5160  -15.0540 C.3   178  ASP178      0.1410
     26  CG       -38.9510   29.2000  -14.9870 C.2   178  ASP178      0.3668
     27  OD1      -38.5690   28.0890  -14.5280 O.co2 178  ASP178     -0.2456
     28  OD2      -38.1500   30.0830  -15.3950 O.co2 178  ASP178     -0.2456
     29  N        -38.7740   25.3810  -14.9540 N.3   180  GLY180     -0.1225
     30  CA       -37.4230   24.8420  -15.1720 C.3   180  GLY180      0.1811
     31  C        -37.1840   23.5030  -14.4820 C.2   180  GLY180      0.2280
     32  O        -37.8170   23.1880  -13.4690 O.2   180  GLY180     -0.2866
     33  N        -43.7550   27.7330  -20.8100 N.3   205  TYR205     -0.1241
     34  CA       -43.2510   28.6500  -21.8710 C.3   205  TYR205      0.1605
     35  C        -43.9290   30.0270  -21.8490 C.2   205  TYR205      0.2264
     36  O        -44.5490   30.4570  -22.8370 O.2   205  TYR205     -0.2867
     37  CB       -43.3560   27.9900  -23.2530 C.3   205  TYR205      0.0534
     38  CG       -42.8630   26.5710  -23.2220 C.ar  205  TYR205     -0.0201
     39  CD1      -41.5010   26.3030  -23.2580 C.ar  205  TYR205     -0.0009
     40  CD2      -43.7580   25.4970  -23.0910 C.ar  205  TYR205     -0.0009
     41  CE1      -41.0230   25.0030  -23.2030 C.ar  205  TYR205      0.0417
     42  CE2      -43.3010   24.1870  -23.0250 C.ar  205  TYR205      0.0417
     43  CZ       -41.9200   23.9520  -23.0850 C.ar  205  TYR205      0.1957
     44  OH       -41.4170   22.6760  -23.0180 O.3   205  TYR205     -0.2866
     45  N        -42.4860   33.2200  -19.7850 N.3   207  PRO207     -0.2102
     46  CA       -41.6640   33.9260  -18.7900 C.3   207  PRO207      0.1504
     47  C        -42.2880   35.2230  -18.2340 C.2   207  PRO207      0.2575
     48  O        -41.9900   35.6010  -17.0960 O.2   207  PRO207     -0.2718
     49  CB       -40.3480   34.1920  -19.5270 C.3   207  PRO207      0.0282
     50  CG       -40.6100   33.9200  -20.9830 C.3   207  PRO207      0.0208
     51  CD       -41.7340   32.9370  -21.0280 C.3   207  PRO207      0.0893
     52  N        -43.1640   35.8820  -18.9900 N.am  208  GLN208     -0.1980
     53  CA       -43.8840   37.0430  -18.4650 C.3   208  GLN208      0.1601
     54  C        -44.5020   36.7490  -17.0820 C.2   208  GLN208      0.2287
     55  O        -44.6070   37.6480  -16.2190 O.2   208  GLN208     -0.2864
     56  CB       -44.9800   37.4840  -19.4250 C.3   208  GLN208      0.0394
     57  CG       -44.4790   37.8830  -20.8070 C.3   208  GLN208      0.0908
     58  CD       -44.4730   36.7330  -21.8130 C.2   208  GLN208      0.2608
     59  OE1      -43.8480   35.6750  -21.5990 O.2   208  GLN208     -0.2717
     60  NE2      -45.1820   36.9330  -22.9210 N.am  208  GLN208     -0.0878
     61  N        -42.4940   37.5840  -14.6070 N.3   211  GLY211     -0.1225
     62  CA       -42.1640   39.0090  -14.8060 C.3   211  GLY211      0.1811
     63  C        -41.3740   39.7380  -13.7020 C.2   211  GLY211      0.2280
     64  O        -40.3820   40.4230  -13.9970 O.2   211  GLY211     -0.2866
     65  N        -37.8750   38.2000  -13.7830 N.3   214  GLU214     -0.1245
     66  CA       -37.2590   38.3580  -15.1120 C.3   214  GLU214      0.1567
     67  C        -36.8030   39.7750  -15.2580 C.2   214  GLU214      0.2260
     68  O        -35.6920   40.0220  -15.7380 O.2   214  GLU214     -0.2867
     69  CB       -38.2300   38.0450  -16.2480 C.3   214  GLU214      0.0388
     70  CG       -38.7050   36.6140  -16.2540 C.3   214  GLU214      0.1160
     71  CD       -37.5970   35.6330  -16.5430 C.2   214  GLU214      0.3649
     72  OE1      -36.3870   35.9760  -16.4790 O.co2 214  GLU214     -0.2457
     73  OE2      -37.9390   34.4820  -16.8370 O.co2 214  GLU214     -0.2457
     74  N        -33.7080   40.3950  -13.5220 N.3   217  ASN217     -0.1240
     75  CA       -32.6210   39.8220  -14.3000 C.3   217  ASN217      0.1653
     76  C        -32.0470   40.8620  -15.2560 C.2   217  ASN217      0.2266
     77  O        -30.8360   41.0160  -15.3430 O.2   217  ASN217     -0.2867
     78  CB       -33.0880   38.5990  -15.0880 C.3   217  ASN217      0.1155
     79  CG       -33.4020   37.4340  -14.1980 C.2   217  ASN217      0.2627
     80  OD1      -32.9900   37.4210  -13.0360 O.2   217  ASN217     -0.2716
     81  ND2      -34.1320   36.4460  -14.7250 N.am  217  ASN217     -0.0877
@<TRIPOS>BOND
     1    39    38   ar
     2    39    41   ar
     3    37    38    1
     4    37    34    1
     5    38    40   ar
     6    41    43   ar
     7    40    42   ar
     8    43    42   ar
     9    43    44    1
    10    60    58   am
    11    36    35    2
    12    34    35    1
    13    34    33    1
    14    58    59    2
    15    58    57    1
    16    51    50    1
    17    51    45    1
    18    50    49    1
    19    57    56    1
    20    45    46    1
    21    49    46    1
    22    56    53    1
    23    52    53    1
    24    52    47   am
    25    46    47    1
    26    53    54    1
    27    47    48    2
    28    54    55    2
    29    73    71   ar
    30    71    72   ar
    31    71    70    1
    32    70    69    1
    33    69    66    1
    34    68    67    2
    35    28    26   ar
    36    77    76    2
    37    67    66    1
    38    76    75    1
    39    12    11    2
    40    30    29    1
    41    30    31    1
    42    66    65    1
    43    78    75    1
    44    78    79    1
    45    25    26    1
    46    25    22    1
    47    26    27   ar
    48    62    61    1
    49    62    63    1
    50     8     6   ar
    51    81    79   am
    52    31    32    2
    53    11    10    1
    54    75    74    1
    55     7     6   ar
    56    79    80    2
    57    64    63    2
    58     6     5    1
    59    22    23    1
    60    22    21    1
    61    23    24    2
    62    13    10    1
    63    13    14    1
    64    10     9    1
    65     9     3   am
    66     5     2    1
    67    14    16   ar
    68    14    15   ar
    69     3     2    1
    70     3     4    2
    71    16    18   ar
    72    15    17   ar
    73     2     1    1
    74    18    19   ar
    75    17    19   ar
    76    19    20    1
