@<TRIPOS>MOLECULE
tmp/4be2A00.pdb
 81 76 0 0 0
SMALL
GASTEIGER

@<TRIPOS>ATOM
      1  N        -35.5380   32.2370  -10.2590 N.3   121  ASP121     -0.1225
      2  CA       -35.2190   31.9340  -11.6330 C.3   121  ASP121      0.1805
      3  C        -33.7270   31.7990  -11.7860 C.2   121  ASP121      0.2597
      4  O        -32.9730   32.2480  -10.9260 O.2   121  ASP121     -0.2718
      5  CB       -35.7350   33.0560  -12.5570 C.3   121  ASP121      0.1424
      6  CG       -35.7090   32.6480  -14.0020 C.2   121  ASP121      0.3668
      7  OD1      -35.8060   31.4290  -14.2450 O.co2 121  ASP121     -0.2456
      8  OD2      -35.5710   33.5130  -14.8930 O.co2 121  ASP121     -0.2456
      9  N        -33.3020   31.1750  -12.8770 N.am  122  TYR122     -0.1976
     10  CA       -31.8830   31.1130  -13.1970 C.3   122  TYR122      0.1639
     11  C        -31.5380   32.0310  -14.3390 C.2   122  TYR122      0.2290
     12  O        -32.3240   32.2140  -15.2670 O.2   122  TYR122     -0.2864
     13  CB       -31.4490   29.6910  -13.5200 C.3   122  TYR122      0.0560
     14  CG       -31.0900   28.9230  -12.2740 C.ar  122  TYR122     -0.0198
     15  CD1      -29.8620   29.1430  -11.6310 C.ar  122  TYR122     -0.0009
     16  CD2      -31.9730   27.9860  -11.7190 C.ar  122  TYR122     -0.0009
     17  CE1      -29.5170   28.4400  -10.4830 C.ar  122  TYR122      0.0417
     18  CE2      -31.6290   27.2690  -10.5780 C.ar  122  TYR122      0.0417
     19  CZ       -30.4070   27.5220   -9.9590 C.ar  122  TYR122      0.1957
     20  OH       -30.0650   26.8680   -8.8200 O.3   122  TYR122     -0.2866
     21  N        -40.7690   29.2970  -12.6530 N.3   178  ASP178     -0.1239
     22  CA       -41.1640   28.6970  -13.9230 C.3   178  ASP178      0.1674
     23  C        -40.9530   27.2020  -13.8030 C.2   178  ASP178      0.2266
     24  O        -40.6050   26.7040  -12.7180 O.2   178  ASP178     -0.2867
     25  CB       -40.3660   29.2870  -15.1150 C.3   178  ASP178      0.1410
     26  CG       -38.8540   29.0750  -15.0080 C.2   178  ASP178      0.3668
     27  OD1      -38.4220   28.0230  -14.4540 O.co2 178  ASP178     -0.2456
     28  OD2      -38.0880   29.9770  -15.4870 O.co2 178  ASP178     -0.2456
     29  N        -38.5730   25.2970  -15.0290 N.3   180  GLY180     -0.1225
     30  CA       -37.1950   24.7780  -15.0940 C.3   180  GLY180      0.1811
     31  C        -37.0680   23.4410  -14.3470 C.2   180  GLY180      0.2280
     32  O        -37.7900   23.1910  -13.3500 O.2   180  GLY180     -0.2866
     33  N        -43.6230   27.6740  -20.7410 N.3   205  TYR205     -0.1241
     34  CA       -43.1170   28.5540  -21.7980 C.3   205  TYR205      0.1605
     35  C        -43.7290   29.9450  -21.7860 C.2   205  TYR205      0.2264
     36  O        -44.1820   30.4170  -22.7960 O.2   205  TYR205     -0.2867
     37  CB       -43.3020   27.8760  -23.1570 C.3   205  TYR205      0.0534
     38  CG       -42.6130   26.5220  -23.1930 C.ar  205  TYR205     -0.0201
     39  CD1      -41.2580   26.4240  -23.4490 C.ar  205  TYR205     -0.0009
     40  CD2      -43.3180   25.3520  -22.9410 C.ar  205  TYR205     -0.0009
     41  CE1      -40.6070   25.1890  -23.4650 C.ar  205  TYR205      0.0417
     42  CE2      -42.6890   24.1110  -22.9510 C.ar  205  TYR205      0.0417
     43  CZ       -41.3270   24.0370  -23.2110 C.ar  205  TYR205      0.1957
     44  OH       -40.6870   22.8030  -23.2400 O.3   205  TYR205     -0.2866
     45  N        -42.4440   33.1470  -19.6920 N.3   207  PRO207     -0.2102
     46  CA       -41.6270   33.8440  -18.6880 C.3   207  PRO207      0.1504
     47  C        -42.2570   35.1070  -18.1340 C.2   207  PRO207      0.2575
     48  O        -41.9040   35.5200  -17.0300 O.2   207  PRO207     -0.2718
     49  CB       -40.3330   34.1640  -19.4490 C.3   207  PRO207      0.0282
     50  CG       -40.7080   34.0350  -20.9060 C.3   207  PRO207      0.0208
     51  CD       -41.6710   32.8880  -20.9220 C.3   207  PRO207      0.0893
     52  N        -43.1800   35.7260  -18.8600 N.am  208  GLN208     -0.1980
     53  CA       -43.8800   36.8870  -18.2980 C.3   208  GLN208      0.1601
     54  C        -44.5250   36.5920  -16.9240 C.2   208  GLN208      0.2287
     55  O        -44.7050   37.5100  -16.0880 O.2   208  GLN208     -0.2864
     56  CB       -44.9410   37.4010  -19.2520 C.3   208  GLN208      0.0394
     57  CG       -44.4070   37.8200  -20.6150 C.3   208  GLN208      0.0908
     58  CD       -44.4140   36.6680  -21.6160 C.2   208  GLN208      0.2608
     59  OE1      -43.7820   35.6180  -21.4150 O.2   208  GLN208     -0.2717
     60  NE2      -45.1690   36.8470  -22.6840 N.am  208  GLN208     -0.0878
     61  N        -42.4910   37.4160  -14.3710 N.3   211  GLY211     -0.1225
     62  CA       -42.0680   38.8080  -14.6970 C.3   211  GLY211      0.1811
     63  C        -41.3460   39.6040  -13.6000 C.2   211  GLY211      0.2280
     64  O        -40.4060   40.3750  -13.8940 O.2   211  GLY211     -0.2866
     65  N        -37.8200   38.0320  -13.6860 N.3   214  GLU214     -0.1245
     66  CA       -37.2530   38.2360  -15.0240 C.3   214  GLU214      0.1567
     67  C        -36.8150   39.6860  -15.1510 C.2   214  GLU214      0.2260
     68  O        -35.7490   39.9840  -15.6910 O.2   214  GLU214     -0.2867
     69  CB       -38.2640   37.9020  -16.1290 C.3   214  GLU214      0.0388
     70  CG       -38.6770   36.4310  -16.2020 C.3   214  GLU214      0.1160
     71  CD       -37.4960   35.5060  -16.4790 C.2   214  GLU214      0.3649
     72  OE1      -36.3220   35.9610  -16.5450 O.co2 214  GLU214     -0.2457
     73  OE2      -37.7050   34.2950  -16.6280 O.co2 214  GLU214     -0.2457
     74  N        -33.6750   40.2390  -13.4380 N.3   217  ASN217     -0.1240
     75  CA       -32.5800   39.6180  -14.2050 C.3   217  ASN217      0.1653
     76  C        -32.0020   40.6310  -15.1910 C.2   217  ASN217      0.2266
     77  O        -30.7800   40.7510  -15.3250 O.2   217  ASN217     -0.2867
     78  CB       -33.0750   38.3770  -14.9570 C.3   217  ASN217      0.1155
     79  CG       -33.3940   37.2190  -14.0230 C.2   217  ASN217      0.2627
     80  OD1      -33.0770   37.2780  -12.8340 O.2   217  ASN217     -0.2716
     81  ND2      -34.0150   36.1630  -14.5510 N.am  217  ASN217     -0.0877
@<TRIPOS>BOND
     1    41    39   ar
     2    41    43   ar
     3    39    38   ar
     4    44    43    1
     5    43    42   ar
     6    38    37    1
     7    38    40   ar
     8    37    34    1
     9    42    40   ar
    10    36    35    2
    11    60    58   am
    12    34    35    1
    13    34    33    1
    14    58    59    2
    15    58    57    1
    16    51    50    1
    17    51    45    1
    18    50    49    1
    19    57    56    1
    20    45    46    1
    21    49    46    1
    22    56    53    1
    23    52    53    1
    24    52    47   am
    25    46    47    1
    26    53    54    1
    27    47    48    2
    28    54    55    2
    29    73    71   ar
    30    72    71   ar
    31    71    70    1
    32    70    69    1
    33    69    66    1
    34    68    67    2
    35    28    26   ar
    36    77    76    2
    37    12    11    2
    38    76    75    1
    39    67    66    1
    40    25    26    1
    41    25    22    1
    42    30    29    1
    43    30    31    1
    44    66    65    1
    45    26    27   ar
    46    78    75    1
    47    78    79    1
    48     8     6   ar
    49    62    61    1
    50    62    63    1
    51    81    79   am
    52    31    32    2
    53    11    10    1
    54     7     6   ar
    55    75    74    1
    56    79    80    2
    57     6     5    1
    58    22    23    1
    59    22    21    1
    60    64    63    2
    61    23    24    2
    62    13    10    1
    63    13    14    1
    64    10     9    1
    65     9     3   am
    66     5     2    1
    67    14    16   ar
    68    14    15   ar
    69     3     2    1
    70     3     4    2
    71    16    18   ar
    72     2     1    1
    73    15    17   ar
    74    18    19   ar
    75    17    19   ar
    76    19    20    1
