@<TRIPOS>MOLECULE
tmp/4be3A00.pdb
 91 84 0 0 0
SMALL
GASTEIGER

@<TRIPOS>ATOM
      1  N          1.1520   96.4790   17.0900 N.3    15  LYS15      -0.1301
      2  CA         0.2910   95.4350   16.5710 C.3    15  LYS15       0.1247
      3  C         -0.2780   94.7510   17.8480 C.3    15  LYS15       0.2009
      4  O          0.1960   95.0980   19.0090 O.3    15  LYS15      -0.2188
      5  CB         1.0780   94.4210   15.7900 C.3    15  LYS15       0.0218
      6  CG         2.1400   93.7070   16.6260 C.3    15  LYS15       0.0031
      7  CD         3.0490   92.8310   15.7900 C.3    15  LYS15       0.0205
      8  CE         4.0120   93.7140   14.9670 C.3    15  LYS15       0.1093
      9  NZ         5.1310   92.7910   14.5390 N.3    15  LYS15      -0.1314
     10  N         -1.8380   90.9510   19.7640 N.3    17  LEU17      -0.1245
     11  CA        -2.3300   89.5550   19.7390 C.3    17  LEU17       0.1561
     12  C         -3.4620   89.5740   20.8030 C.2    17  LEU17       0.2260
     13  O         -3.2120   90.0540   21.9620 O.2    17  LEU17      -0.2867
     14  CB        -1.1850   88.6100   20.1290 C.3    17  LEU17       0.0270
     15  CG        -1.6600   87.1620   20.4950 C.3    17  LEU17       0.0019
     16  CD1       -2.4120   86.6110   19.2110 C.3    17  LEU17       0.0001
     17  CD2       -0.3700   86.4500   20.7830 C.3    17  LEU17       0.0001
     18  N         -4.4200   87.9530   15.5030 N.3    23  HIS23      -0.1241
     19  CA        -3.3370   88.9330   15.3130 C.3    23  HIS23       0.1621
     20  C         -3.8240   90.0720   14.5220 C.2    23  HIS23       0.2264
     21  O         -4.5660   89.8750   13.5030 O.2    23  HIS23      -0.2867
     22  CB        -2.1610   88.3430   14.5570 C.3    23  HIS23       0.0745
     23  CG        -1.3300   87.3450   15.3840 C.ar   23  HIS23       0.0817
     24  ND1       -0.1740   87.7300   16.0320 N.ar   23  HIS23      -0.2268
     25  CD2       -1.4430   85.9750   15.5440 C.ar   23  HIS23       0.1154
     26  CE1        0.3700   86.6330   16.6470 C.ar   23  HIS23       0.1986
     27  NE2       -0.3900   85.5660   16.3240 N.ar   23  HIS23      -0.2212
     28  N          0.4410   82.4730   21.8110 N.3    58  SER58      -0.1217
     29  CA         1.4270   82.6780   20.7920 C.3    58  SER58       0.1889
     30  C          2.3030   81.4110   20.7290 C.2    58  SER58       0.2288
     31  O          2.3110   80.5520   21.6550 O.2    58  SER58      -0.2866
     32  CB         2.2730   83.9220   21.2250 C.3    58  SER58       0.2089
     33  OG         2.9730   83.5750   22.4610 O.3    58  SER58      -0.2183
     34  N          5.4210   81.2510   21.0420 N.3    60  THR60      -0.1218
     35  CA         6.5390   81.4480   21.9820 C.3    60  THR60       0.1862
     36  C          6.1220   81.2170   23.4810 C.2    60  THR60       0.2287
     37  O          6.9670   81.3060   24.4060 O.2    60  THR60      -0.2866
     38  CB         7.0070   82.9210   21.8730 C.3    60  THR60       0.1770
     39  OG1        5.8670   83.8520   22.0070 O.3    60  THR60      -0.2211
     40  CG2        7.7920   83.1740   20.5300 C.3    60  THR60       0.0375
     41  N         -2.5370   85.9900   26.0960 N.3    65  ARG65      -0.1245
     42  CA        -2.3800   87.4720   26.3500 C.3    65  ARG65       0.1563
     43  C         -3.4040   88.2170   25.4650 C.2    65  ARG65       0.2260
     44  O         -3.8110   87.6680   24.4340 O.2    65  ARG65      -0.2867
     45  CB        -0.9450   87.9220   25.9700 C.3    65  ARG65       0.0307
     46  CG        -0.6790   87.9260   24.4430 C.3    65  ARG65       0.0489
     47  CD         0.8150   88.0820   24.1480 C.3    65  ARG65       0.2205
     48  NE         1.5060   86.7730   24.3960 N.pl3  65  ARG65      -0.0865
     49  CZ         2.7590   86.7060   24.7880 C.cat  65  ARG65       0.5346
     50  NH1        3.3840   87.8530   25.2110 N.pl3  65  ARG65       0.1354
     51  NH2        3.4190   85.5520   24.8080 N.pl3  65  ARG65       0.1354
     52  N          6.6500   94.9780   29.0130 N.3   109  GLN109     -0.1245
     53  CA         7.8240   94.1880   28.9230 C.3   109  GLN109      0.1566
     54  C          8.7330   94.7900   27.8450 C.2   109  GLN109      0.2260
     55  O          8.2450   95.6160   27.0320 O.2   109  GLN109     -0.2867
     56  CB         7.5540   92.7830   28.3730 C.3   109  GLN109      0.0367
     57  CG         6.2450   92.2540   28.3180 C.3   109  GLN109      0.0905
     58  CD         6.1780   90.8660   27.6420 C.2   109  GLN109      0.2608
     59  OE1        5.1020   90.3970   27.3530 O.2   109  GLN109     -0.2717
     60  NE2        7.3080   90.2690   27.3660 N.am  109  GLN109     -0.0878
     61  N         10.7110   92.6200   25.0100 N.3   111  HIS111     -0.1241
     62  CA        10.8760   91.2460   24.5720 C.3   111  HIS111      0.1621
     63  C         11.8860   91.1930   23.4590 C.2   111  HIS111      0.2264
     64  O         11.8530   92.0580   22.5470 O.2   111  HIS111     -0.2867
     65  CB         9.4900   90.8490   24.0850 C.3   111  HIS111      0.0745
     66  CG         9.4260   89.4760   23.5120 C.ar  111  HIS111      0.0817
     67  ND1        9.4230   88.3940   24.2920 N.ar  111  HIS111     -0.2268
     68  CD2        9.4410   89.0340   22.2050 C.ar  111  HIS111      0.1154
     69  CE1        9.4380   87.2460   23.4980 C.ar  111  HIS111      0.1986
     70  NE2        9.4220   87.6450   22.2280 N.ar  111  HIS111     -0.2212
     71  N         11.8140   94.8350   21.5060 N.3   255  TYR255     -0.1241
     72  CA        10.7730   95.7820   21.3460 C.3   255  TYR255      0.1605
     73  C          9.8840   95.8020   22.5790 C.2   255  TYR255      0.2264
     74  O          9.9400   94.8290   23.3840 O.2   255  TYR255     -0.2867
     75  CB         9.9080   95.4960   20.0990 C.3   255  TYR255      0.0534
     76  CG         9.3320   94.0930   20.0540 C.ar  255  TYR255     -0.0201
     77  CD1       10.0460   93.0700   19.4370 C.ar  255  TYR255     -0.0009
     78  CD2        8.0330   93.8080   20.5680 C.ar  255  TYR255     -0.0009
     79  CE1        9.4870   91.7870   19.3170 C.ar  255  TYR255      0.0417
     80  CE2        7.4840   92.5400   20.4740 C.ar  255  TYR255      0.0417
     81  CZ         8.2250   91.5270   19.8650 C.ar  255  TYR255      0.1957
     82  OH         7.7220   90.2540   19.7460 O.3   255  TYR255     -0.2866
     83  N          6.3530   95.7170   24.8260 N.3   257  LYS257     -0.1245
     84  CA         4.9830   95.1980   24.7730 C.3   257  LYS257      0.1561
     85  C          4.2050   95.7250   25.9730 C.2   257  LYS257      0.2260
     86  O          4.8090   96.0760   27.0110 O.2   257  LYS257     -0.2867
     87  CB         4.9950   93.6370   24.9060 C.3   257  LYS257      0.0271
     88  CG         5.8990   93.0100   23.8070 C.3   257  LYS257      0.0035
     89  CD         5.6010   91.4700   23.6640 C.3   257  LYS257      0.0206
     90  CE         4.2740   91.4680   22.8670 C.3   257  LYS257      0.1093
     91  NZ         3.5350   90.1800   22.9300 N.3   257  LYS257     -0.1314
@<TRIPOS>BOND
     1    21    20    2
     2    20    19    1
     3     9     8    1
     4    22    19    1
     5    22    23    1
     6     8     7    1
     7    19    18    1
     8    23    25   ar
     9    23    24   ar
    10    25    27   ar
    11     5     2    1
    12     5     6    1
    13     7     6    1
    14    24    26   ar
    15    27    26   ar
    16     2     1    1
    17     2     3    1
    18     3     4    1
    19    16    15    1
    20    79    77   ar
    21    79    81   ar
    22    77    76   ar
    23    11    10    1
    24    11    14    1
    25    11    12    1
    26    82    81    1
    27    81    80   ar
    28    76    75    1
    29    76    78   ar
    30    75    72    1
    31    14    15    1
    32    80    78   ar
    33    15    17    1
    34    40    38    1
    35    30    29    1
    36    30    31    2
    37    29    32    1
    38    29    28    1
    39    12    13    2
    40    34    35    1
    41    32    33    1
    42    72    71    1
    43    72    73    1
    44    38    35    1
    45    38    39    1
    46    35    36    1
    47    68    70   ar
    48    68    66   ar
    49    70    69   ar
    50    64    63    2
    51    73    74    2
    52    90    91    1
    53    90    89    1
    54    63    62    1
    55    36    37    2
    56    69    67   ar
    57    66    65    1
    58    66    67   ar
    59    89    88    1
    60    88    87    1
    61    65    62    1
    62    47    48    1
    63    47    46    1
    64    48    49    2
    65    44    43    2
    66    46    45    1
    67    62    61    1
    68    84    83    1
    69    84    87    1
    70    84    85    1
    71    49    51    1
    72    49    50    1
    73    43    42    1
    74    45    42    1
    75    85    86    2
    76    41    42    1
    77    55    54    2
    78    59    58    2
    79    60    58   am
    80    58    57    1
    81    54    53    1
    82    57    56    1
    83    56    53    1
    84    53    52    1
