@<TRIPOS>MOLECULE
tmp/4be4A02.pdb
 92 89 0 0 0
SMALL
GASTEIGER

@<TRIPOS>ATOM
      1  N        -17.6960   67.7200  -28.8330 N.3    81  ASN81      -0.1225
      2  CA       -17.1820   67.3360  -30.1400 C.3    81  ASN81       0.1785
      3  C        -17.2390   65.8470  -30.5200 C.2    81  ASN81       0.2597
      4  O        -17.6600   65.4790  -31.6100 O.2    81  ASN81      -0.2718
      5  CB       -15.7230   67.7690  -30.1270 C.3    81  ASN81       0.1169
      6  CG       -15.1950   68.0010  -31.4680 C.2    81  ASN81       0.2627
      7  OD1      -15.9240   68.4240  -32.3500 O.2    81  ASN81      -0.2716
      8  ND2      -13.9150   67.7200  -31.6590 N.am   81  ASN81      -0.0877
      9  N        -16.7970   64.9930  -29.6100 N.am   82  LEU82      -0.1980
     10  CA       -16.6600   63.5680  -29.8810 C.3    82  LEU82       0.1596
     11  C        -17.9860   62.8200  -29.7960 C.2    82  LEU82       0.2287
     12  O        -18.0220   61.5850  -29.8310 O.2    82  LEU82      -0.2864
     13  CB       -15.6360   62.9450  -28.9240 C.3    82  LEU82       0.0297
     14  CG       -14.1590   63.0830  -29.3170 C.3    82  LEU82       0.0022
     15  CD1      -13.7720   64.5180  -29.6270 C.3    82  LEU82       0.0001
     16  CD2      -13.2620   62.5300  -28.2300 C.3    82  LEU82       0.0001
     17  N         -3.4840   58.1480  -26.0750 N.3   444  TYR444     -0.1227
     18  CA        -3.4190   59.2690  -27.0170 C.3   444  TYR444      0.1736
     19  C         -4.4660   60.3700  -26.8080 C.2   444  TYR444      0.2595
     20  O         -4.4800   61.3430  -27.5530 O.2   444  TYR444     -0.2718
     21  CB        -3.4720   58.7680  -28.4640 C.3   444  TYR444      0.0548
     22  CG        -4.4460   57.6300  -28.6840 C.ar  444  TYR444     -0.0200
     23  CD1       -5.8190   57.8400  -28.6420 C.ar  444  TYR444     -0.0009
     24  CD2       -3.9900   56.3460  -28.9310 C.ar  444  TYR444     -0.0009
     25  CE1       -6.7060   56.7980  -28.8490 C.ar  444  TYR444      0.0417
     26  CE2       -4.8650   55.3000  -29.1250 C.ar  444  TYR444      0.0417
     27  CZ        -6.2180   55.5300  -29.0900 C.ar  444  TYR444      0.1957
     28  OH        -7.0840   54.4780  -29.2970 O.3   444  TYR444     -0.2866
     29  N         -5.3280   60.2360  -25.8010 N.am  445  ASP445     -0.1974
     30  CA        -6.2390   61.3350  -25.4630 C.3   445  ASP445      0.1709
     31  C         -6.0270   61.9140  -24.0620 C.2   445  ASP445      0.2293
     32  O         -6.9330   62.4990  -23.4600 O.2   445  ASP445     -0.2864
     33  CB        -7.6960   60.9690  -25.7360 C.3   445  ASP445      0.1436
     34  CG        -8.1160   61.3410  -27.1550 C.2   445  ASP445      0.3671
     35  OD1       -8.2390   62.5560  -27.4320 O.co2 445  ASP445     -0.2456
     36  OD2       -8.3000   60.4360  -27.9970 O.co2 445  ASP445     -0.2456
     37  N         -7.9210   64.9420  -21.9270 N.3   448  PHE448     -0.1241
     38  CA        -9.3260   65.1840  -22.2210 C.3   448  PHE448      0.1605
     39  C        -10.0550   65.3480  -20.9020 C.2   448  PHE448      0.2264
     40  O        -10.1240   64.4130  -20.1070 O.2   448  PHE448     -0.2867
     41  CB        -9.9610   64.0630  -23.0470 C.3   448  PHE448      0.0534
     42  CG       -11.2810   64.4530  -23.6580 C.ar  448  PHE448     -0.0203
     43  CD1      -12.4440   64.4600  -22.8970 C.ar  448  PHE448     -0.0042
     44  CD2      -11.3580   64.8470  -24.9930 C.ar  448  PHE448     -0.0042
     45  CE1      -13.6690   64.8420  -23.4570 C.ar  448  PHE448     -0.0003
     46  CE2      -12.5820   65.2300  -25.5630 C.ar  448  PHE448     -0.0003
     47  CZ       -13.7360   65.2280  -24.7890 C.ar  448  PHE448     -0.0000
     48  N        -11.8900   56.5420  -33.4110 N.3   460  LEU460     -0.1231
     49  CA       -11.4160   57.7220  -34.1320 C.3   460  LEU460      0.1693
     50  C        -10.0440   57.5160  -34.7690 C.2   460  LEU460      0.2591
     51  O         -9.6350   58.2470  -35.6700 O.2   460  LEU460     -0.2718
     52  CB       -11.3460   58.9150  -33.1840 C.3   460  LEU460      0.0284
     53  CG       -12.6850   59.3650  -32.6130 C.3   460  LEU460      0.0019
     54  CD1      -12.4970   60.5970  -31.7320 C.3   460  LEU460      0.0001
     55  CD2      -13.6850   59.6210  -33.7390 C.3   460  LEU460      0.0001
     56  N         -9.3360   56.5120  -34.2840 N.am  461  GLN461     -0.1979
     57  CA        -7.9340   56.3480  -34.5920 C.3   461  GLN461      0.1601
     58  C         -7.7320   55.3020  -35.7080 C.2   461  GLN461      0.2287
     59  O         -6.6300   55.1280  -36.2280 O.2   461  GLN461     -0.2864
     60  CB        -7.2160   55.9500  -33.3000 C.3   461  GLN461      0.0394
     61  CG        -5.8200   56.4760  -33.1600 C.3   461  GLN461      0.0908
     62  CD        -5.7490   57.9730  -32.9230 C.2   461  GLN461      0.2608
     63  OE1       -4.8640   58.6290  -33.4500 O.2   461  GLN461     -0.2717
     64  NE2       -6.6490   58.5120  -32.1060 N.am  461  GLN461     -0.0878
     65  N         -4.6280   59.6690  -39.3420 N.3   467  LEU467     -0.1231
     66  CA        -4.5810   60.9910  -38.7490 C.3   467  LEU467      0.1678
     67  C         -3.1490   61.5060  -38.7710 C.2   467  LEU467      0.2434
     68  O         -2.2050   60.7190  -38.8570 O.2   467  LEU467     -0.2733
     69  CB        -5.0940   60.9160  -37.3090 C.3   467  LEU467      0.0284
     70  CG        -6.4840   60.3000  -37.1780 C.3   467  LEU467      0.0019
     71  CD1       -6.9780   60.3910  -35.7430 C.3   467  LEU467      0.0001
     72  CD2       -7.4610   60.9660  -38.1570 C.3   467  LEU467      0.0001
     73  N         -2.9790   62.8340  -38.6970 N.am  468  PRO468     -0.2718
     74  CA        -1.6290   63.4090  -38.6540 C.3   468  PRO468      0.1535
     75  C         -0.9890   63.2780  -37.2660 C.2   468  PRO468      0.2598
     76  O         -0.7040   64.2780  -36.5960 O.2   468  PRO468     -0.2715
     77  CB        -1.8660   64.8810  -39.0140 C.3   468  PRO468      0.0310
     78  CG        -3.2690   65.1500  -38.5740 C.3   468  PRO468      0.0237
     79  CD        -4.0280   63.8680  -38.7860 C.3   468  PRO468      0.0939
     80  N         -0.7660   62.0360  -36.8500 N.am  469  ASN469     -0.1973
     81  CA        -0.1050   61.7430  -35.5890 C.3   469  ASN469      0.1688
     82  C          0.7210   60.4650  -35.6710 C.2   469  ASN469      0.2292
     83  O          0.9020   59.9090  -36.7480 O.2   469  ASN469     -0.2864
     84  CB        -1.1330   61.6250  -34.4700 C.3   469  ASN469      0.1181
     85  CG        -2.0400   60.4300  -34.6360 C.2   469  ASN469      0.2629
     86  OD1       -1.8620   59.5950  -35.5280 O.2   469  ASN469     -0.2716
     87  ND2       -3.0180   60.3310  -33.7580 N.am  469  ASN469     -0.0877
     88  N         -0.1860   59.8310  -28.3500 N.3   512  ALA512     -0.1245
     89  CA        -0.5130   60.5120  -29.6080 C.3   512  ALA512      0.1562
     90  C          0.6800   60.6690  -30.5730 C.2   512  ALA512      0.2260
     91  O          0.5140   60.5730  -31.7990 O.2   512  ALA512     -0.2867
     92  CB        -1.1800   61.8830  -29.3270 C.3   512  ALA512      0.0290
@<TRIPOS>BOND
     1    65    66    1
     2    77    74    1
     3    77    78    1
     4    68    67    2
     5    79    73    1
     6    79    78    1
     7    67    66    1
     8    67    73   am
     9    66    69    1
    10    73    74    1
    11    74    75    1
    12    72    70    1
    13    69    70    1
    14    75    80   am
    15    75    76    2
    16    70    71    1
    17    80    81    1
    18    83    82    2
    19    59    58    2
    20    58    57    1
    21    82    81    1
    22    51    50    2
    23    81    84    1
    24    86    85    2
    25    50    56   am
    26    50    49    1
    27    85    84    1
    28    85    87   am
    29    57    56    1
    30    57    60    1
    31    49    48    1
    32    49    52    1
    33    55    53    1
    34    63    62    2
    35    60    61    1
    36    52    53    1
    37    61    62    1
    38    62    64   am
    39    53    54    1
    40     7     6    2
    41    91    90    2
    42     8     6   am
    43     4     3    2
    44     6     5    1
    45    90    89    1
    46     3     2    1
    47     3     9   am
    48     2     5    1
    49     2     1    1
    50    10    11    1
    51    10     9    1
    52    10    13    1
    53    12    11    2
    54    15    14    1
    55    89    92    1
    56    89    88    1
    57    14    13    1
    58    14    16    1
    59    28    27    1
    60    26    27   ar
    61    26    24   ar
    62    27    25   ar
    63    24    22   ar
    64    25    23   ar
    65    22    23   ar
    66    22    21    1
    67    21    18    1
    68    36    34   ar
    69    20    19    2
    70    35    34   ar
    71    34    33    1
    72    18    19    1
    73    18    17    1
    74    19    29   am
    75    29    30    1
    76    33    30    1
    77    46    44   ar
    78    46    47   ar
    79    30    31    1
    80    44    42   ar
    81    47    45   ar
    82    31    32    2
    83    42    41    1
    84    42    43   ar
    85    45    43   ar
    86    41    38    1
    87    38    37    1
    88    38    39    1
    89    39    40    2
