@<TRIPOS>MOLECULE
tmp/4be9B02.pdb
 120 112 0 0 0
SMALL
GASTEIGER

@<TRIPOS>ATOM
      1  N         30.6500   -2.8920   46.5340 N.3   123  GLY123     -0.1210
      2  CA        29.4040   -3.4050   47.0730 C.3   123  GLY123      0.1956
      3  C         29.4800   -4.8480   47.5460 C.2   123  GLY123      0.2611
      4  O         28.4600   -5.5500   47.5860 O.2   123  GLY123     -0.2717
      5  N         30.6830   -5.2880   47.9150 N.am  124  PHE124     -0.1976
      6  CA        30.9030   -6.6700   48.3550 C.3   124  PHE124      0.1639
      7  C         30.5070   -7.6830   47.2790 C.2   124  PHE124      0.2290
      8  O         30.3390   -8.8750   47.5630 O.2   124  PHE124     -0.2864
      9  CB        30.1400   -6.9640   49.6530 C.3   124  PHE124      0.0560
     10  CG        30.5660   -6.1020   50.8120 C.ar  124  PHE124     -0.0200
     11  CD1       31.6950   -6.4260   51.5520 C.ar  124  PHE124     -0.0042
     12  CD2       29.8470   -4.9600   51.1530 C.ar  124  PHE124     -0.0042
     13  CE1       32.0990   -5.6310   52.6300 C.ar  124  PHE124     -0.0003
     14  CE2       30.2440   -4.1570   52.2320 C.ar  124  PHE124     -0.0003
     15  CZ        31.3710   -4.4950   52.9680 C.ar  124  PHE124     -0.0000
     16  N         34.0700    2.9340   50.1010 N.3   208  SER208     -0.1202
     17  CA        32.7890    2.2370   50.0300 C.3   208  SER208      0.2020
     18  C         32.8280    0.8980   50.7900 C.2   208  SER208      0.2618
     19  O         33.0570    0.8780   52.0060 O.2   208  SER208     -0.2717
     20  CB        32.3760    2.0390   48.5650 C.3   208  SER208      0.2103
     21  OG        30.9770    1.8270   48.4650 O.3   208  SER208     -0.2182
     22  N         32.6100   -0.2150   50.0910 N.am  209  ALA209     -0.1979
     23  CA        32.6700   -1.5320   50.7400 C.3   209  ALA209      0.1597
     24  C         34.0090   -1.7440   51.4510 C.2   209  ALA209      0.2287
     25  O         34.0710   -2.4180   52.4850 O.2   209  ALA209     -0.2864
     26  CB        32.4240   -2.6480   49.7330 C.3   209  ALA209      0.0319
     27  N         33.7790    0.2740   54.7110 N.3   212  ILE212     -0.1245
     28  CA        32.9700   -0.4840   55.6520 C.3   212  ILE212      0.1561
     29  C         33.8030   -1.6330   56.2340 C.2   212  ILE212      0.2260
     30  O         33.6840   -1.9600   57.4220 O.2   212  ILE212     -0.2867
     31  CB        31.7010   -1.0310   54.9670 C.3   212  ILE212      0.0252
     32  CG1       30.7770    0.1360   54.5930 C.3   212  ILE212      0.0019
     33  CG2       30.9790   -2.0260   55.8930 C.3   212  ILE212      0.0019
     34  CD1       29.9640   -0.0770   53.3060 C.3   212  ILE212      0.0001
     35  N         27.4070   -0.6180   59.2960 N.3   244  VAL244     -0.1245
     36  CA        26.2340   -1.0350   58.5300 C.3   244  VAL244      0.1561
     37  C         25.3750   -1.9630   59.3760 C.2   244  VAL244      0.2260
     38  O         25.6960   -3.1450   59.5270 O.2   244  VAL244     -0.2867
     39  CB        26.6190   -1.7490   57.2200 C.3   244  VAL244      0.0252
     40  CG1       25.3530   -2.2030   56.4590 C.3   244  VAL244      0.0019
     41  CG2       27.4840   -0.8390   56.3390 C.3   244  VAL244      0.0019
     42  N         23.9660   -4.9060   42.6330 N.3   295  ILE295     -0.1245
     43  CA        23.9680   -3.4850   42.9380 C.3   295  ILE295      0.1561
     44  C         23.5190   -2.6410   41.7420 C.2   295  ILE295      0.2260
     45  O         22.8100   -1.6500   41.9060 O.2   295  ILE295     -0.2867
     46  CB        25.3470   -3.0060   43.4350 C.3   295  ILE295      0.0252
     47  CG1       25.2140   -1.6420   44.1190 C.3   295  ILE295      0.0019
     48  CG2       26.3230   -2.9070   42.2780 C.3   295  ILE295      0.0019
     49  CD1       26.5070   -1.1190   44.7000 C.3   295  ILE295      0.0001
     50  N         21.0570   -0.3340   46.6820 N.3   301  ILE301     -0.1245
     51  CA        21.8100   -0.4890   47.9300 C.3   301  ILE301      0.1561
     52  C         21.3470   -1.6360   48.8370 C.2   301  ILE301      0.2260
     53  O         22.0350   -1.9830   49.8060 O.2   301  ILE301     -0.2867
     54  CB        21.7930    0.8280   48.7590 C.3   301  ILE301      0.0252
     55  CG1       22.8320    1.8150   48.2340 C.3   301  ILE301      0.0019
     56  CG2       22.0620    0.5550   50.2360 C.3   301  ILE301      0.0019
     57  CD1       22.9760    3.0390   49.1240 C.3   301  ILE301      0.0001
     58  N         21.7550   -4.7150   49.3370 N.3   303  LEU303     -0.1245
     59  CA        22.7070   -5.6820   48.8010 C.3   303  LEU303      0.1561
     60  C         22.3170   -7.1410   49.0430 C.2   303  LEU303      0.2260
     61  O         21.7890   -7.4840   50.1020 O.2   303  LEU303     -0.2867
     62  CB        24.0920   -5.4240   49.3990 C.3   303  LEU303      0.0270
     63  CG        24.7640   -4.1150   48.9910 C.3   303  LEU303      0.0019
     64  CD1       26.1600   -4.0290   49.6030 C.3   303  LEU303      0.0001
     65  CD2       24.8210   -4.0110   47.4690 C.3   303  LEU303      0.0001
     66  N         26.7820   -8.8990   51.6590 N.3   306  LEU306     -0.1245
     67  CA        27.4170   -7.9570   52.5850 C.3   306  LEU306      0.1561
     68  C         27.7880   -8.6870   53.8790 C.2   306  LEU306      0.2260
     69  O         27.2960   -9.7930   54.1370 O.2   306  LEU306     -0.2867
     70  CB        26.4920   -6.7880   52.9230 C.3   306  LEU306      0.0270
     71  CG        25.3710   -7.1310   53.9070 C.3   306  LEU306      0.0019
     72  CD1       24.8590   -5.8820   54.6180 C.3   306  LEU306      0.0001
     73  CD2       24.2350   -7.8430   53.1880 C.3   306  LEU306      0.0001
     74  N         23.1110    5.9090   43.2380 N.3   344  PHE344     -0.1241
     75  CA        22.2560    4.8020   43.6740 C.3   344  PHE344      0.1605
     76  C         20.7730    5.0810   43.5050 C.2   344  PHE344      0.2264
     77  O         19.9350    4.1860   43.6720 O.2   344  PHE344     -0.2867
     78  CB        22.6200    4.4100   45.1110 C.3   344  PHE344      0.0534
     79  CG        24.0740    4.0720   45.2650 C.ar  344  PHE344     -0.0203
     80  CD1       24.5910    2.9230   44.6800 C.ar  344  PHE344     -0.0042
     81  CD2       24.9360    4.9230   45.9420 C.ar  344  PHE344     -0.0042
     82  CE1       25.9410    2.6110   44.7900 C.ar  344  PHE344     -0.0003
     83  CE2       26.2850    4.6240   46.0570 C.ar  344  PHE344     -0.0003
     84  CZ        26.7910    3.4640   45.4820 C.ar  344  PHE344     -0.0000
     85  N         23.0860    5.6460   54.4340 N.3   414  THR414     -0.1203
     86  CA        24.1020    4.6290   54.2090 C.3   414  THR414      0.1994
     87  C         25.5110    5.1260   54.5160 C.2   414  THR414      0.2617
     88  O         26.3470    4.3700   55.0020 O.2   414  THR414     -0.2717
     89  CB        24.0770    4.1470   52.7470 C.3   414  THR414      0.1784
     90  OG1       22.7280    3.8390   52.3610 O.3   414  THR414     -0.2211
     91  CG2       24.9760    2.9240   52.5690 C.3   414  THR414      0.0376
     92  N         25.7700    6.3960   54.2300 N.am  415  PHE415     -0.1975
     93  CA        27.1320    6.9140   54.2770 C.3   415  PHE415      0.1639
     94  C         27.2670    8.1650   55.1460 C.2   415  PHE415      0.2290
     95  O         27.9390    8.1620   56.1840 O.2   415  PHE415     -0.2864
     96  CB        27.6030    7.2710   52.8610 C.3   415  PHE415      0.0560
     97  CG        27.6420    6.1030   51.9000 C.ar  415  PHE415     -0.0200
     98  CD1       28.6650    5.1630   51.9630 C.ar  415  PHE415     -0.0042
     99  CD2       26.6650    5.9590   50.9150 C.ar  415  PHE415     -0.0042
    100  CE1       28.7070    4.0870   51.0730 C.ar  415  PHE415     -0.0003
    101  CE2       26.6990    4.8890   50.0180 C.ar  415  PHE415     -0.0003
    102  CZ        27.7250    3.9500   50.0970 C.ar  415  PHE415     -0.0000
    103  N         29.4880    9.2190   44.4670 N.3   453  HIS453     -0.1241
    104  CA        30.1830    8.1000   45.0800 C.3   453  HIS453      0.1621
    105  C         31.3680    7.6200   44.2410 C.2   453  HIS453      0.2264
    106  O         31.2480    7.3940   43.0280 O.2   453  HIS453     -0.2867
    107  CB        29.1870    6.9560   45.2980 C.3   453  HIS453      0.0745
    108  CG        29.7030    5.8470   46.1600 C.ar  453  HIS453      0.0817
    109  ND1       29.8820    5.9810   47.5190 N.ar  453  HIS453     -0.2268
    110  CD2       30.0530    4.5750   45.8530 C.ar  453  HIS453      0.1154
    111  CE1       30.3280    4.8390   48.0150 C.ar  453  HIS453      0.1986
    112  NE2       30.4410    3.9710   47.0270 N.ar  453  HIS453     -0.2212
    113  N         19.8130   -3.9020   57.7350 N.3   537  ILE537     -0.1245
    114  CA        19.5310   -4.4190   56.4020 C.3   537  ILE537      0.1561
    115  C         19.7230   -5.9410   56.3490 C.2   537  ILE537      0.2260
    116  O         20.1080   -6.5780   57.3420 O.2   537  ILE537     -0.2867
    117  CB        20.4540   -3.7570   55.3650 C.3   537  ILE537      0.0252
    118  CG1       19.9040   -3.9270   53.9430 C.3   537  ILE537      0.0019
    119  CG2       21.8710   -4.3080   55.4920 C.3   537  ILE537      0.0019
    120  CD1       18.8700   -2.8780   53.5350 C.3   537  ILE537      0.0001
@<TRIPOS>BOND
     1    44    45    2
     2    44    43    1
     3    48    46    1
     4    42    43    1
     5    43    46    1
     6   106   105    2
     7    74    75    1
     8    46    47    1
     9    76    77    2
    10    76    75    1
    11    75    78    1
    12    47    49    1
    13   105   104    1
    14   103   104    1
    15    80    82   ar
    16    80    79   ar
    17    82    84   ar
    18   104   107    1
    19    78    79    1
    20    79    81   ar
    21   107   108    1
    22    84    83   ar
    23   110   108   ar
    24   110   112   ar
    25    81    83   ar
    26   108   109   ar
    27     1     2    1
    28    50    51    1
    29   112   111   ar
    30     2     3    1
    31     7     8    2
    32     7     6    1
    33    65    63    1
    34   109   111   ar
    35     3     4    2
    36     3     5   am
    37     5     6    1
    38    51    54    1
    39    51    52    1
    40    55    54    1
    41    55    57    1
    42     6     9    1
    43    21    20    1
    44    20    17    1
    45    54    56    1
    46    59    60    1
    47    59    58    1
    48    59    62    1
    49    52    53    2
    50    63    62    1
    51    63    64    1
    52    60    61    2
    53     9    10    1
    54    26    23    1
    55   101   102   ar
    56   101    99   ar
    57    17    16    1
    58    17    18    1
    59    22    23    1
    60    22    18   am
    61   102   100   ar
    62    23    24    1
    63    18    19    2
    64    10    12   ar
    65    10    11   ar
    66    99    97   ar
    67   100    98   ar
    68    12    14   ar
    69    24    25    2
    70    11    13   ar
    71    66    67    1
    72    97    98   ar
    73    97    96    1
    74    14    15   ar
    75    90    89    1
    76    91    89    1
    77    67    70    1
    78    67    68    1
    79    13    15   ar
    80    89    86    1
    81    96    93    1
    82    70    71    1
    83    73    71    1
    84    34    32    1
    85   120   118    1
    86    68    69    2
    87    71    72    1
    88   118   117    1
    89    86    85    1
    90    86    87    1
    91    92    93    1
    92    92    87   am
    93    93    94    1
    94    87    88    2
    95    32    31    1
    96    27    28    1
    97    31    28    1
    98    31    33    1
    99    94    95    2
   100   117   119    1
   101   117   114    1
   102    28    29    1
   103    29    30    2
   104    41    39    1
   105   115   114    1
   106   115   116    2
   107   114   113    1
   108    40    39    1
   109    39    36    1
   110    36    35    1
   111    36    37    1
   112    37    38    2
