@<TRIPOS>MOLECULE
tmp/4be9B03.pdb
 99 95 0 0 0
SMALL
GASTEIGER

@<TRIPOS>ATOM
      1  N         36.6290   -1.1930   47.1120 N.3   121  GLY121     -0.1210
      2  CA        35.1930   -1.3210   47.2830 C.3   121  GLY121      0.1956
      3  C         34.4910   -1.7430   46.0000 C.2   121  GLY121      0.2612
      4  O         34.9760   -1.4800   44.8980 O.2   121  GLY121     -0.2717
      5  N         33.3450   -2.3990   46.1450 N.am  122  GLY122     -0.1956
      6  CA        32.5310   -2.8050   45.0110 C.3   122  GLY122      0.1869
      7  C         31.2670   -3.4790   45.5080 C.2   122  GLY122      0.2309
      8  O         30.8640   -4.5200   44.9820 O.2   122  GLY122     -0.2863
      9  N         31.7850   -6.9730   43.7270 N.3   126  LEU126     -0.1245
     10  CA        32.8250   -6.8570   42.7110 C.3   126  LEU126      0.1561
     11  C         34.0160   -6.0880   43.2560 C.2   126  LEU126      0.2260
     12  O         34.0230   -5.6760   44.4220 O.2   126  LEU126     -0.2867
     13  CB        32.2710   -6.1450   41.4680 C.3   126  LEU126      0.0270
     14  CG        31.7100   -4.7400   41.6960 C.3   126  LEU126      0.0019
     15  CD1       32.8130   -3.6790   41.5640 C.3   126  LEU126      0.0001
     16  CD2       30.5500   -4.4470   40.7460 C.3   126  LEU126      0.0001
     17  N         43.1410   -2.4780   39.3890 N.3   131  TYR131     -0.1227
     18  CA        43.1370   -1.0960   38.9130 C.3   131  TYR131      0.1736
     19  C         43.2800   -0.0920   40.0530 C.2   131  TYR131      0.2595
     20  O         42.8150    1.0440   39.9630 O.2   131  TYR131     -0.2718
     21  CB        41.8900   -0.7930   38.0680 C.3   131  TYR131      0.0548
     22  CG        40.5870   -1.2940   38.6510 C.ar  131  TYR131     -0.0200
     23  CD1       39.8690   -0.5290   39.5610 C.ar  131  TYR131     -0.0009
     24  CD2       40.0640   -2.5260   38.2760 C.ar  131  TYR131     -0.0009
     25  CE1       38.6680   -0.9810   40.0910 C.ar  131  TYR131      0.0417
     26  CE2       38.8630   -2.9880   38.8000 C.ar  131  TYR131      0.0417
     27  CZ        38.1690   -2.2100   39.7070 C.ar  131  TYR131      0.1957
     28  OH        36.9750   -2.6590   40.2310 O.3   131  TYR131     -0.2866
     29  N         43.9260   -0.5210   41.1280 N.am  132  TYR132     -0.1976
     30  CA        44.2990    0.3950   42.1900 C.3   132  TYR132      0.1639
     31  C         45.8140    0.3890   42.3240 C.2   132  TYR132      0.2290
     32  O         46.3820   -0.3450   43.1410 O.2   132  TYR132     -0.2864
     33  CB        43.6160    0.0190   43.5050 C.3   132  TYR132      0.0560
     34  CG        42.1180    0.2180   43.4700 C.ar  132  TYR132     -0.0198
     35  CD1       41.5610    1.4860   43.6280 C.ar  132  TYR132     -0.0009
     36  CD2       41.2580   -0.8570   43.2720 C.ar  132  TYR132     -0.0009
     37  CE1       40.1810    1.6750   43.5980 C.ar  132  TYR132      0.0417
     38  CE2       39.8790   -0.6780   43.2410 C.ar  132  TYR132      0.0417
     39  CZ        39.3490    0.5910   43.4040 C.ar  132  TYR132      0.1957
     40  OH        37.9860    0.7750   43.3720 O.3   132  TYR132     -0.2866
     41  N         37.5690    2.2980   50.5130 N.3   207  GLU207     -0.1245
     42  CA        36.4960    3.1420   49.9920 C.3   207  GLU207      0.1567
     43  C         35.2100    2.3190   49.8070 C.2   207  GLU207      0.2260
     44  O         35.2550    1.1440   49.4240 O.2   207  GLU207     -0.2867
     45  CB        36.9260    3.8080   48.6840 C.3   207  GLU207      0.0388
     46  CG        35.8980    4.7720   48.0980 C.3   207  GLU207      0.1160
     47  CD        34.9620    4.1110   47.0910 C.2   207  GLU207      0.3649
     48  OE1       35.3090    3.0240   46.5720 O.co2 207  GLU207     -0.2457
     49  OE2       33.8770    4.6790   46.8140 O.co2 207  GLU207     -0.2457
     50  N         23.9660   -4.9060   42.6330 N.3   295  ILE295     -0.1245
     51  CA        23.9680   -3.4850   42.9380 C.3   295  ILE295      0.1561
     52  C         23.5190   -2.6410   41.7420 C.2   295  ILE295      0.2260
     53  O         22.8100   -1.6500   41.9060 O.2   295  ILE295     -0.2867
     54  CB        25.3470   -3.0060   43.4350 C.3   295  ILE295      0.0252
     55  CG1       25.2140   -1.6420   44.1190 C.3   295  ILE295      0.0019
     56  CG2       26.3230   -2.9070   42.2780 C.3   295  ILE295      0.0019
     57  CD1       26.5070   -1.1190   44.7000 C.3   295  ILE295      0.0001
     58  N         24.3350    8.2720   42.4920 N.3   343  LEU343     -0.1231
     59  CA        24.5560    7.0900   41.6640 C.3   343  LEU343      0.1693
     60  C         23.5080    6.0150   41.9680 C.2   343  LEU343      0.2592
     61  O         23.0450    5.3110   41.0670 O.2   343  LEU343     -0.2718
     62  CB        25.9600    6.5530   41.9350 C.3   343  LEU343      0.0284
     63  CG        26.8350    5.9530   40.8340 C.3   343  LEU343      0.0019
     64  CD1       27.1550    6.9610   39.7380 C.3   343  LEU343      0.0001
     65  CD2       28.1190    5.4190   41.4540 C.3   343  LEU343      0.0001
     66  N         23.1110    5.9090   43.2380 N.am  344  PHE344     -0.1976
     67  CA        22.2560    4.8020   43.6740 C.3   344  PHE344      0.1639
     68  C         20.7730    5.0810   43.5050 C.2   344  PHE344      0.2290
     69  O         19.9350    4.1860   43.6720 O.2   344  PHE344     -0.2864
     70  CB        22.6200    4.4100   45.1110 C.3   344  PHE344      0.0560
     71  CG        24.0740    4.0720   45.2650 C.ar  344  PHE344     -0.0200
     72  CD1       24.5910    2.9230   44.6800 C.ar  344  PHE344     -0.0042
     73  CD2       24.9360    4.9230   45.9420 C.ar  344  PHE344     -0.0042
     74  CE1       25.9410    2.6110   44.7900 C.ar  344  PHE344     -0.0003
     75  CE2       26.2850    4.6240   46.0570 C.ar  344  PHE344     -0.0003
     76  CZ        26.7910    3.4640   45.4820 C.ar  344  PHE344     -0.0000
     77  N         29.4880    9.2190   44.4670 N.3   453  HIS453     -0.1226
     78  CA        30.1830    8.1000   45.0800 C.3   453  HIS453      0.1752
     79  C         31.3680    7.6200   44.2410 C.2   453  HIS453      0.2595
     80  O         31.2480    7.3940   43.0280 O.2   453  HIS453     -0.2718
     81  CB        29.1870    6.9560   45.2980 C.3   453  HIS453      0.0759
     82  CG        29.7030    5.8470   46.1600 C.ar  453  HIS453      0.0818
     83  ND1       29.8820    5.9810   47.5190 N.ar  453  HIS453     -0.2268
     84  CD2       30.0530    4.5750   45.8530 C.ar  453  HIS453      0.1154
     85  CE1       30.3280    4.8390   48.0150 C.ar  453  HIS453      0.1986
     86  NE2       30.4410    3.9710   47.0270 N.ar  453  HIS453     -0.2212
     87  N         32.5120    7.4640   44.8990 N.am  454  ALA454     -0.1980
     88  CA        33.7160    6.9230   44.2700 C.3   454  ALA454      0.1597
     89  C         34.5060    7.9540   43.4660 C.2   454  ALA454      0.2287
     90  O         35.5220    7.6090   42.8680 O.2   454  ALA454     -0.2864
     91  CB        33.3800    5.6970   43.3970 C.3   454  ALA454      0.0319
     92  N         38.2240    8.1280   44.1760 N.3   457  ILE457     -0.1245
     93  CA        39.1880    7.2310   43.5520 C.3   457  ILE457      0.1561
     94  C         40.0020    8.0120   42.5250 C.2   457  ILE457      0.2260
     95  O         41.2300    7.9050   42.4730 O.2   457  ILE457     -0.2867
     96  CB        38.5070    6.0160   42.8880 C.3   457  ILE457      0.0252
     97  CG1       37.8240    5.1480   43.9510 C.3   457  ILE457      0.0019
     98  CG2       39.5180    5.1980   42.0800 C.3   457  ILE457      0.0019
     99  CD1       38.7110    4.8240   45.1500 C.3   457  ILE457      0.0001
@<TRIPOS>BOND
     1    21    22    1
     2    21    18    1
     3    24    22   ar
     4    24    26   ar
     5    22    23   ar
     6    26    27   ar
     7    18    17    1
     8    18    19    1
     9    23    25   ar
    10    27    25   ar
    11    27    28    1
    12    64    63    1
    13    20    19    2
    14    19    29   am
    15    16    14    1
    16    63    65    1
    17    63    62    1
    18    61    60    2
    19    29    30    1
    20    13    14    1
    21    13    10    1
    22    15    14    1
    23    59    62    1
    24    59    60    1
    25    59    58    1
    26    52    53    2
    27    52    51    1
    28    60    66   am
    29    98    96    1
    30    30    31    1
    31    30    33    1
    32    56    54    1
    33    31    32    2
    34    95    94    2
    35    94    93    1
    36    50    51    1
    37    10    11    1
    38    10     9    1
    39    90    89    2
    40    96    93    1
    41    96    97    1
    42    51    54    1
    43    80    79    2
    44    66    67    1
    45    38    36   ar
    46    38    39   ar
    47    11    12    2
    48    36    34   ar
    49    40    39    1
    50    91    88    1
    51    39    37   ar
    52    54    55    1
    53    89    88    1
    54    34    33    1
    55    34    35   ar
    56    68    69    2
    57    68    67    1
    58    93    92    1
    59    37    35   ar
    60    67    70    1
    61    97    99    1
    62    55    57    1
    63    79    87   am
    64    79    78    1
    65    88    87    1
    66    77    78    1
    67    72    74   ar
    68    72    71   ar
    69    74    76   ar
    70     4     3    2
    71     8     7    2
    72     6     7    1
    73     6     5    1
    74    78    81    1
    75    70    71    1
    76    71    73   ar
    77    81    82    1
    78    76    75   ar
    79    84    82   ar
    80    84    86   ar
    81    73    75   ar
    82     3     5   am
    83     3     2    1
    84    82    83   ar
    85    48    47   ar
    86    49    47   ar
    87    86    85   ar
    88    47    46    1
    89     1     2    1
    90    83    85   ar
    91    46    45    1
    92    45    42    1
    93    44    43    2
    94    43    42    1
    95    42    41    1
