@<TRIPOS>MOLECULE
tmp/4be9A04.pdb
 92 89 0 0 0
SMALL
GASTEIGER

@<TRIPOS>ATOM
      1  N         31.8380    1.2620   10.4330 N.3   122  GLY122     -0.1210
      2  CA        30.4080    1.1900   10.6380 C.3   122  GLY122      0.1956
      3  C         30.0540    1.6290   12.0490 C.2   122  GLY122      0.2612
      4  O         30.8290    1.4350   12.9820 O.2   122  GLY122     -0.2717
      5  N         28.8730    2.2100   12.2120 N.am  123  GLY123     -0.1956
      6  CA        28.4170    2.6670   13.5160 C.3   123  GLY123      0.1869
      7  C         26.9920    3.1860   13.4420 C.2   123  GLY123      0.2309
      8  O         26.6160    4.1420   14.1380 O.2   123  GLY123     -0.2863
      9  N         27.6300    6.7200   15.0990 N.3   127  LEU127     -0.1245
     10  CA        28.8840    6.7440   15.8120 C.3   127  LEU127      0.1561
     11  C         29.9270    6.0200   14.9810 C.2   127  LEU127      0.2260
     12  O         29.6190    5.4450   13.9260 O.2   127  LEU127     -0.2867
     13  CB        28.7390    6.0450   17.1710 C.3   127  LEU127      0.0270
     14  CG        28.4130    4.5600   17.0390 C.3   127  LEU127      0.0019
     15  CD1       29.6960    3.7130   17.0490 C.3   127  LEU127      0.0001
     16  CD2       27.4200    4.1170   18.1500 C.3   127  LEU127      0.0001
     17  N         39.9040    3.3180   16.1340 N.3   132  TYR132     -0.1227
     18  CA        40.1360    1.9520   16.6070 C.3   132  TYR132      0.1736
     19  C         40.1070    0.9260   15.4950 C.2   132  TYR132      0.2595
     20  O         39.8140   -0.2440   15.7370 O.2   132  TYR132     -0.2718
     21  CB        39.1830    1.5460   17.7440 C.3   132  TYR132      0.0548
     22  CG        37.7410    1.9710   17.5750 C.ar  132  TYR132     -0.0200
     23  CD1       36.8360    1.1790   16.8820 C.ar  132  TYR132     -0.0009
     24  CD2       37.2780    3.1560   18.1390 C.ar  132  TYR132     -0.0009
     25  CE1       35.5190    1.5560   16.7470 C.ar  132  TYR132      0.0417
     26  CE2       35.9590    3.5450   18.0000 C.ar  132  TYR132      0.0417
     27  CZ        35.0860    2.7460   17.3050 C.ar  132  TYR132      0.1957
     28  OH        33.7680    3.1260   17.1660 O.3   132  TYR132     -0.2866
     29  N         40.4440    1.3640   14.2830 N.am  133  TYR133     -0.1976
     30  CA        40.6110    0.4550   13.1480 C.3   133  TYR133      0.1639
     31  C         42.0240    0.5990   12.6070 C.2   133  TYR133      0.2290
     32  O         42.2670    1.3290   11.6240 O.2   133  TYR133     -0.2864
     33  CB        39.5880    0.7710   12.0430 C.3   133  TYR133      0.0560
     34  CG        38.1630    0.4810   12.4770 C.ar  133  TYR133     -0.0198
     35  CD1       37.6600   -0.8200   12.4680 C.ar  133  TYR133     -0.0009
     36  CD2       37.3410    1.4950   12.9380 C.ar  133  TYR133     -0.0009
     37  CE1       36.3570   -1.0890   12.8820 C.ar  133  TYR133      0.0417
     38  CE2       36.0300    1.2350   13.3470 C.ar  133  TYR133      0.0417
     39  CZ        35.5500   -0.0530   13.3220 C.ar  133  TYR133      0.1957
     40  OH        34.2610   -0.3140   13.7340 O.3   133  TYR133     -0.2866
     41  N         32.1050   -2.2070    6.9680 N.3   208  GLU208     -0.1245
     42  CA        31.2870   -3.1540    7.7160 C.3   208  GLU208      0.1567
     43  C         30.0640   -2.3860    8.2140 C.2   208  GLU208      0.2260
     44  O         30.1940   -1.2560    8.6570 O.2   208  GLU208     -0.2867
     45  CB        32.0910   -3.7410    8.8960 C.3   208  GLU208      0.0388
     46  CG        31.3380   -4.7920    9.7380 C.3   208  GLU208      0.1160
     47  CD        30.5250   -4.1720   10.8710 C.2   208  GLU208      0.3649
     48  OE1       30.8530   -3.0310   11.2890 O.co2 208  GLU208     -0.2457
     49  OE2       29.5590   -4.8230   11.3600 O.co2 208  GLU208     -0.2457
     50  N         26.3640   -9.4980   14.7230 N.3   454  HIS454     -0.1226
     51  CA        26.7550   -8.3430   13.9240 C.3   454  HIS454      0.1752
     52  C         28.0780   -7.7730   14.4350 C.2   454  HIS454      0.2595
     53  O         28.2570   -7.6120   15.6360 O.2   454  HIS454     -0.2718
     54  CB        25.6620   -7.2810   14.0340 C.3   454  HIS454      0.0759
     55  CG        25.7880   -6.1750   13.0400 C.ar  454  HIS454      0.0818
     56  ND1       25.5710   -6.3530   11.6910 N.ar  454  HIS454     -0.2268
     57  CD2       26.0820   -4.8580   13.2030 C.ar  454  HIS454      0.1154
     58  CE1       25.7320   -5.2020   11.0620 C.ar  454  HIS454      0.1986
     59  NE2       26.0380   -4.2780   11.9630 N.ar  454  HIS454     -0.2212
     60  N         29.0050   -7.4940   13.5250 N.am  455  ALA455     -0.1980
     61  CA        30.3090   -6.9000   13.8740 C.3   455  ALA455      0.1597
     62  C         31.3500   -7.8800   14.4340 C.2   455  ALA455      0.2287
     63  O         32.4750   -7.4680   14.7600 O.2   455  ALA455     -0.2864
     64  CB        30.1410   -5.7140   14.8070 C.3   455  ALA455      0.0319
     65  N         34.7760   -7.8230   12.8490 N.3   458  ILE458     -0.1231
     66  CA        35.8050   -6.8420   13.1950 C.3   458  ILE458      0.1692
     67  C         36.9060   -7.5550   13.9660 C.2   458  ILE458      0.2591
     68  O         38.1010   -7.2990   13.7840 O.2   458  ILE458     -0.2718
     69  CB        35.2500   -5.6710   14.0300 C.3   458  ILE458      0.0266
     70  CG1       34.1890   -4.9330   13.2220 C.3   458  ILE458      0.0019
     71  CG2       36.3950   -4.7140   14.4420 C.3   458  ILE458      0.0020
     72  CD1       34.6900   -4.4760   11.8540 C.3   458  ILE458      0.0001
     73  N         36.5030   -8.4790   14.8220 N.am  459  LEU459     -0.1980
     74  CA        37.4840   -9.2170   15.5980 C.3   459  LEU459      0.1596
     75  C         38.1290  -10.2850   14.7540 C.2   459  LEU459      0.2287
     76  O         39.3560  -10.3620   14.6660 O.2   459  LEU459     -0.2864
     77  CB        36.8230   -9.8750   16.8030 C.3   459  LEU459      0.0297
     78  CG        36.2800   -8.9220   17.8560 C.3   459  LEU459      0.0022
     79  CD1       35.4210   -9.7130   18.8360 C.3   459  LEU459      0.0001
     80  CD2       37.4340   -8.2510   18.5750 C.3   459  LEU459      0.0001
     81  N         40.9030   -7.8410   12.6440 N.3   463  TYR463     -0.1241
     82  CA        42.0240   -8.0290   13.5780 C.3   463  TYR463      0.1605
     83  C         42.5770   -9.4570   13.6400 C.2   463  TYR463      0.2264
     84  O         43.6030   -9.6940   14.2730 O.2   463  TYR463     -0.2867
     85  CB        41.6640   -7.5520   14.9970 C.3   463  TYR463      0.0534
     86  CG        41.6650   -6.0490   15.1170 C.ar  463  TYR463     -0.0201
     87  CD1       42.8590   -5.3310   15.0590 C.ar  463  TYR463     -0.0009
     88  CD2       40.4790   -5.3400   15.2700 C.ar  463  TYR463     -0.0009
     89  CE1       42.8710   -3.9410   15.1670 C.ar  463  TYR463      0.0417
     90  CE2       40.4840   -3.9410   15.3690 C.ar  463  TYR463      0.0417
     91  CZ        41.6830   -3.2550   15.3120 C.ar  463  TYR463      0.1957
     92  OH        41.7040   -1.8790   15.4070 O.3   463  TYR463     -0.2866
@<TRIPOS>BOND
     1    41    42    1
     2    42    43    1
     3    42    45    1
     4    43    44    2
     5    45    46    1
     6    46    47    1
     7     1     2    1
     8     2     3    1
     9    47    48   ar
    10    47    49   ar
    11    58    56   ar
    12    58    59   ar
    13    32    31    2
    14    56    55   ar
    15    72    70    1
    16    59    57   ar
    17    33    34    1
    18    33    30    1
    19     3     5   am
    20     3     4    2
    21     5     6    1
    22    35    34   ar
    23    35    37   ar
    24    34    36   ar
    25    31    30    1
    26    81    82    1
    27    65    66    1
    28    37    39   ar
    29    36    38   ar
    30    55    57   ar
    31    55    54    1
    32    30    29    1
    33    66    67    1
    34    66    69    1
    35    70    69    1
    36    39    38   ar
    37    39    40    1
    38     7     6    1
    39     7     8    2
    40    60    61    1
    41    60    52   am
    42    82    83    1
    43    82    85    1
    44    83    84    2
    45    68    67    2
    46    61    62    1
    47    61    64    1
    48    51    54    1
    49    51    52    1
    50    51    50    1
    51    12    11    2
    52    67    73   am
    53    69    71    1
    54    29    19   am
    55    62    63    2
    56    52    53    2
    57    76    75    2
    58    75    74    1
    59    73    74    1
    60    11    10    1
    61    85    86    1
    62    87    86   ar
    63    87    89   ar
    64     9    10    1
    65    86    88   ar
    66    89    91   ar
    67    88    90   ar
    68    91    90   ar
    69    91    92    1
    70    19    20    2
    71    19    18    1
    72    74    77    1
    73    10    13    1
    74    17    18    1
    75    18    21    1
    76    25    23   ar
    77    25    27   ar
    78    77    78    1
    79    23    22   ar
    80    14    15    1
    81    14    13    1
    82    14    16    1
    83    28    27    1
    84    27    26   ar
    85    22    21    1
    86    22    24   ar
    87    78    80    1
    88    78    79    1
    89    26    24   ar
