@<TRIPOS>MOLECULE
tmp/4be9A03.pdb
 197 188 0 0 0
SMALL
GASTEIGER

@<TRIPOS>ATOM
      1  N         26.1970    2.5440   12.5930 N.3   124  GLY124     -0.1210
      2  CA        24.7870    2.8550   12.4690 C.3   124  GLY124      0.1956
      3  C         24.5350    4.2760   12.0140 C.2   124  GLY124      0.2611
      4  O         23.4680    4.8210   12.2910 O.2   124  GLY124     -0.2717
      5  N         25.5110    4.8620   11.3150 N.am  125  PHE125     -0.1976
      6  CA        25.4390    6.2490   10.8580 C.3   125  PHE125      0.1639
      7  C         25.2840    7.2360   12.0220 C.2   125  PHE125      0.2290
      8  O         24.9100    8.4040   11.8250 O.2   125  PHE125     -0.2864
      9  CB        24.3120    6.4290    9.8100 C.3   125  PHE125      0.0560
     10  CG        24.5160    5.6000    8.5560 C.ar  125  PHE125     -0.0200
     11  CD1       25.4900    5.9530    7.6300 C.ar  125  PHE125     -0.0042
     12  CD2       23.7790    4.4380    8.3380 C.ar  125  PHE125     -0.0042
     13  CE1       25.7030    5.1750    6.4780 C.ar  125  PHE125     -0.0003
     14  CE2       23.9890    3.6520    7.1870 C.ar  125  PHE125     -0.0003
     15  CZ        24.9480    4.0290    6.2640 C.ar  125  PHE125     -0.0000
     16  N         28.8800   -2.9800    8.0920 N.3   209  SER209     -0.1202
     17  CA        27.6590   -2.3770    8.6170 C.3   209  SER209      0.2020
     18  C         27.3290   -1.0620    7.9200 C.2   209  SER209      0.2618
     19  O         27.1640   -1.0290    6.7000 O.2   209  SER209     -0.2717
     20  CB        27.7830   -2.1900   10.1320 C.3   209  SER209      0.2103
     21  OG        26.5050   -2.0470   10.7350 O.3   209  SER209     -0.2182
     22  N         27.2600    0.0380    8.6660 N.am  210  ALA210     -0.1979
     23  CA        27.0030    1.3210    8.0020 C.3   210  ALA210      0.1597
     24  C         28.0880    1.6340    6.9570 C.2   210  ALA210      0.2287
     25  O         27.8320    2.3130    5.9530 O.2   210  ALA210     -0.2864
     26  CB        26.9330    2.4190    9.0160 C.3   210  ALA210      0.0319
     27  N         27.1030   -0.5140    3.8210 N.3   213  ILE213     -0.1245
     28  CA        26.0670    0.2530    3.1460 C.3   213  ILE213      0.1561
     29  C         26.7130    1.4400    2.4070 C.2   213  ILE213      0.2260
     30  O         26.3510    1.7630    1.2790 O.2   213  ILE213     -0.2867
     31  CB        25.0300    0.7370    4.1950 C.3   213  ILE213      0.0252
     32  CG1       24.3180   -0.4850    4.8040 C.3   213  ILE213      0.0019
     33  CG2       24.0240    1.7210    3.5740 C.3   213  ILE213      0.0019
     34  CD1       23.6010   -0.1930    6.1700 C.3   213  ILE213      0.0001
     35  N         22.1710   -2.5340    0.0770 N.3   244  VAL244     -0.1231
     36  CA        21.0460   -1.7090   -0.3370 C.3   244  VAL244      0.1692
     37  C         20.1270   -1.4410    0.8540 C.2   244  VAL244      0.2592
     38  O         19.6970   -2.3710    1.5360 O.2   244  VAL244     -0.2718
     39  CB        20.2650   -2.3780   -1.5090 C.3   244  VAL244      0.0266
     40  CG1       18.9230   -1.7020   -1.7510 C.3   244  VAL244      0.0020
     41  CG2       21.1110   -2.3420   -2.7710 C.3   244  VAL244      0.0020
     42  N         19.8600   -0.1650    1.1240 N.am  245  VAL245     -0.1966
     43  CA        18.9120    0.2120    2.1800 C.3   245  VAL245      0.1712
     44  C         17.8170    1.0730    1.5630 C.2   245  VAL245      0.2458
     45  O         17.9780    2.2900    1.3930 O.2   245  VAL245     -0.2730
     46  CB        19.5890    0.9670    3.3500 C.3   245  VAL245      0.0289
     47  CG1       18.5330    1.4550    4.3690 C.3   245  VAL245      0.0023
     48  CG2       20.6220    0.0800    4.0510 C.3   245  VAL245      0.0023
     49  N         16.6970    0.4360    1.1990 N.am  246  PRO246     -0.2727
     50  CA        15.6000    1.2090    0.6180 C.3   246  PRO246      0.1402
     51  C         15.2050    2.2720    1.6320 C.2   246  PRO246      0.2269
     52  O         15.1240    1.9700    2.8260 O.2   246  PRO246     -0.2865
     53  CB        14.4840    0.1740    0.4510 C.3   246  PRO246      0.0296
     54  CG        15.2140   -1.1750    0.4120 C.3   246  PRO246      0.0237
     55  CD        16.3570   -0.9880    1.3820 C.3   246  PRO246      0.0939
     56  N         20.3200    4.0730   18.1900 N.3   296  ILE296     -0.1245
     57  CA        20.3170    2.6590   17.8510 C.3   296  ILE296      0.1561
     58  C         20.2990    1.7900   19.1050 C.2   296  ILE296      0.2260
     59  O         19.7370    0.6920   19.0900 O.2   296  ILE296     -0.2867
     60  CB        21.5340    2.3000   16.9480 C.3   296  ILE296      0.0252
     61  CG1       21.3530    0.9410   16.2720 C.3   296  ILE296      0.0019
     62  CG2       22.8350    2.3840   17.7360 C.3   296  ILE296      0.0019
     63  CD1       22.4470    0.6330   15.2360 C.3   296  ILE296      0.0001
     64  N         17.0470   -0.7190   14.9940 N.3   302  ILE302     -0.1245
     65  CA        17.5220   -0.3730   13.6550 C.3   302  ILE302      0.1561
     66  C         16.6340    0.5490   12.8150 C.2   302  ILE302      0.2260
     67  O         16.9750    0.8710   11.6770 O.2   302  ILE302     -0.2867
     68  CB        18.0280   -1.5990   12.8750 C.3   302  ILE302      0.0252
     69  CG1       16.9630   -2.6750   12.7440 C.3   302  ILE302      0.0019
     70  CG2       19.2340   -2.2090   13.6010 C.3   302  ILE302      0.0019
     71  CD1       17.5630   -3.9880   12.2880 C.3   302  ILE302      0.0001
     72  N         16.5920    3.6580   12.2750 N.3   304  LEU304     -0.1245
     73  CA        17.5250    4.7290   12.5850 C.3   304  LEU304      0.1561
     74  C         16.9540    6.1360   12.4040 C.2   304  LEU304      0.2260
     75  O         16.1760    6.3900   11.4740 O.2   304  LEU304     -0.2867
     76  CB        18.7710    4.5900   11.7150 C.3   304  LEU304      0.0270
     77  CG        19.5080    3.2480   11.7780 C.3   304  LEU304      0.0019
     78  CD1       20.6770    3.2660   10.7720 C.3   304  LEU304      0.0001
     79  CD2       20.0020    3.0320   13.1930 C.3   304  LEU304      0.0001
     80  N         20.5490    8.2960    8.6450 N.3   307  LEU307     -0.1245
     81  CA        21.0550    7.3840    7.6210 C.3   307  LEU307      0.1561
     82  C         20.9920    8.0980    6.2800 C.2   307  LEU307      0.2260
     83  O         20.3870    9.1810    6.1690 O.2   307  LEU307     -0.2867
     84  CB        20.2500    6.0760    7.5800 C.3   307  LEU307      0.0270
     85  CG        18.8570    6.1370    6.9370 C.3   307  LEU307      0.0019
     86  CD1       18.2940    4.7460    6.7220 C.3   307  LEU307      0.0001
     87  CD2       17.9020    6.9530    7.7810 C.3   307  LEU307      0.0001
     88  N         20.2430   -6.6490   17.6820 N.3   345  PHE345     -0.1241
     89  CA        19.2070   -5.6260   17.5080 C.3   345  PHE345      0.1605
     90  C         17.8440   -6.0340   18.0470 C.2   345  PHE345      0.2264
     91  O         16.9080   -5.2290   18.0680 O.2   345  PHE345     -0.2867
     92  CB        19.0930   -5.2730   16.0200 C.3   345  PHE345      0.0534
     93  CG        20.4020   -4.8220   15.4230 C.ar  345  PHE345     -0.0203
     94  CD1       20.9790   -3.6290   15.8320 C.ar  345  PHE345     -0.0042
     95  CD2       21.0750   -5.6020   14.4920 C.ar  345  PHE345     -0.0042
     96  CE1       22.2110   -3.1970   15.3080 C.ar  345  PHE345     -0.0003
     97  CE2       22.3090   -5.1750   13.9580 C.ar  345  PHE345     -0.0003
     98  CZ        22.8700   -3.9740   14.3740 C.ar  345  PHE345     -0.0000
     99  N          9.1460    1.6590   11.4350 N.3   366  TYR366     -0.1227
    100  CA         9.9900    1.2480   10.3190 C.3   366  TYR366      0.1736
    101  C          9.4270    1.6490    8.9690 C.2   366  TYR366      0.2595
    102  O          9.9520    2.5500    8.3220 O.2   366  TYR366     -0.2718
    103  CB        10.2450   -0.2610   10.3490 C.3   366  TYR366      0.0548
    104  CG        11.1840   -0.7140   11.4610 C.ar  366  TYR366     -0.0200
    105  CD1       10.7950   -0.6730   12.7940 C.ar  366  TYR366     -0.0009
    106  CD2       12.4650   -1.1730   11.1710 C.ar  366  TYR366     -0.0009
    107  CE1       11.6610   -1.0920   13.8210 C.ar  366  TYR366      0.0417
    108  CE2       13.3260   -1.5990   12.1730 C.ar  366  TYR366      0.0417
    109  CZ        12.9280   -1.5480   13.4960 C.ar  366  TYR366      0.1957
    110  OH        13.8070   -1.9650   14.4830 O.3   366  TYR366     -0.2866
    111  N          8.3480    0.9930    8.5580 N.am  367  PHE367     -0.1976
    112  CA         7.9190    1.0330    7.1620 C.3   367  PHE367      0.1639
    113  C          6.5830    1.7460    6.9610 C.2   367  PHE367      0.2290
    114  O          5.5140    1.1330    7.1070 O.2   367  PHE367     -0.2864
    115  CB         7.8520   -0.4010    6.6310 C.3   367  PHE367      0.0560
    116  CG         9.0970   -1.2140    6.9370 C.ar  367  PHE367     -0.0200
    117  CD1       10.3480   -0.7640    6.5290 C.ar  367  PHE367     -0.0042
    118  CD2        9.0170   -2.4170    7.6360 C.ar  367  PHE367     -0.0042
    119  CE1       11.5080   -1.5070    6.8090 C.ar  367  PHE367     -0.0003
    120  CE2       10.1630   -3.1720    7.9150 C.ar  367  PHE367     -0.0003
    121  CZ        11.4130   -2.7120    7.5020 C.ar  367  PHE367     -0.0000
    122  N         15.9700   -8.9050    6.8840 N.3   414  MET414     -0.1230
    123  CA        15.4440   -7.8480    6.0310 C.3   414  MET414      0.1702
    124  C         16.4940   -6.7730    5.8070 C.2   414  MET414      0.2593
    125  O         16.5180   -6.1290    4.7610 O.2   414  MET414     -0.2718
    126  CB        14.1510   -7.2520    6.5960 C.3   414  MET414      0.0401
    127  CG        14.3370   -6.4070    7.8350 C.3   414  MET414      0.0596
    128  SD        12.7330   -5.9620    8.5490 S.3   414  MET414     -0.1393
    129  CE        13.2780   -4.7620    9.7770 C.3   414  MET414      0.0692
    130  N         17.3860   -6.6110    6.7730 N.am  415  THR415     -0.1939
    131  CA        18.3180   -5.4860    6.7490 C.3   415  THR415      0.2028
    132  C         19.6310   -5.8620    6.1010 C.2   415  THR415      0.2642
    133  O         20.2480   -5.0500    5.4080 O.2   415  THR415     -0.2714
    134  CB        18.5830   -4.9830    8.1710 C.3   415  THR415      0.1808
    135  OG1       17.3290   -4.7070    8.8130 O.3   415  THR415     -0.2208
    136  CG2       19.4580   -3.7260    8.1540 C.3   415  THR415      0.0379
    137  N         20.0370   -7.1090    6.3100 N.am  416  PHE416     -0.1973
    138  CA        21.3590   -7.5630    5.9120 C.3   416  PHE416      0.1639
    139  C         21.3260   -8.8150    5.0290 C.2   416  PHE416      0.2290
    140  O         21.6250   -8.7790    3.8310 O.2   416  PHE416     -0.2864
    141  CB        22.1740   -7.8690    7.1770 C.3   416  PHE416      0.0560
    142  CG        22.3660   -6.6700    8.0850 C.ar  416  PHE416     -0.0200
    143  CD1       23.2010   -5.6350    7.7050 C.ar  416  PHE416     -0.0042
    144  CD2       21.7090   -6.5790    9.3090 C.ar  416  PHE416     -0.0042
    145  CE1       23.3870   -4.5260    8.5200 C.ar  416  PHE416     -0.0003
    146  CE2       21.8960   -5.4840   10.1320 C.ar  416  PHE416     -0.0003
    147  CZ        22.7370   -4.4500    9.7400 C.ar  416  PHE416     -0.0000
    148  N         18.5590   -9.1380    2.2370 N.3   419  ALA419     -0.1245
    149  CA        18.7720   -7.9430    1.4360 C.3   419  ALA419      0.1562
    150  C         19.9930   -8.1930    0.5590 C.2   419  ALA419      0.2260
    151  O         20.0070   -7.8330   -0.6080 O.2   419  ALA419     -0.2867
    152  CB        18.9900   -6.7130    2.3240 C.3   419  ALA419      0.0290
    153  N         26.3640   -9.4980   14.7230 N.3   454  HIS454     -0.1241
    154  CA        26.7550   -8.3430   13.9240 C.3   454  HIS454      0.1621
    155  C         28.0780   -7.7730   14.4350 C.2   454  HIS454      0.2264
    156  O         28.2570   -7.6120   15.6360 O.2   454  HIS454     -0.2867
    157  CB        25.6620   -7.2810   14.0340 C.3   454  HIS454      0.0745
    158  CG        25.7880   -6.1750   13.0400 C.ar  454  HIS454      0.0817
    159  ND1       25.5710   -6.3530   11.6910 N.ar  454  HIS454     -0.2268
    160  CD2       26.0820   -4.8580   13.2030 C.ar  454  HIS454      0.1154
    161  CE1       25.7320   -5.2020   11.0620 C.ar  454  HIS454      0.1986
    162  NE2       26.0380   -4.2780   11.9630 N.ar  454  HIS454     -0.2212
    163  N         10.4370  -10.6190    0.3310 N.3   529  LEU529     -0.1245
    164  CA        11.2230   -9.3920    0.3880 C.3   529  LEU529      0.1561
    165  C         11.5810   -8.9410   -1.0280 C.2   529  LEU529      0.2260
    166  O         11.4320   -7.7670   -1.3770 O.2   529  LEU529     -0.2867
    167  CB        12.4960   -9.6380    1.1960 C.3   529  LEU529      0.0270
    168  CG        13.3440   -8.4210    1.5330 C.3   529  LEU529      0.0019
    169  CD1       12.6560   -7.5630    2.5920 C.3   529  LEU529      0.0001
    170  CD2       14.7290   -8.8720    1.9980 C.3   529  LEU529      0.0001
    171  N         10.1820   -5.3410   -2.4090 N.3   533  ILE533     -0.1245
    172  CA        11.2630   -4.5330   -1.8300 C.3   533  ILE533      0.1561
    173  C         10.8630   -3.0790   -1.5320 C.2   533  ILE533      0.2260
    174  O         11.2400   -2.5140   -0.4950 O.2   533  ILE533     -0.2867
    175  CB        12.5270   -4.5900   -2.7200 C.3   533  ILE533      0.0252
    176  CG1       13.7030   -3.9040   -2.0280 C.3   533  ILE533      0.0019
    177  CG2       12.2440   -4.0350   -4.1160 C.3   533  ILE533      0.0019
    178  CD1       14.2180   -4.6980   -0.8400 C.3   533  ILE533      0.0001
    179  N          9.6120   -1.7800    1.8460 N.3   536  PHE536     -0.1241
    180  CA        10.5190   -1.7670    2.9920 C.3   536  PHE536      0.1605
    181  C         11.3730   -0.5110    3.0660 C.2   536  PHE536      0.2264
    182  O         12.3900   -0.4960    3.7610 O.2   536  PHE536     -0.2867
    183  CB        11.4000   -3.0160    3.0070 C.3   536  PHE536      0.0534
    184  CG        10.6220   -4.2790    3.2060 C.ar  536  PHE536     -0.0203
    185  CD1       10.3030   -4.7160    4.4840 C.ar  536  PHE536     -0.0042
    186  CD2       10.1760   -5.0120    2.1190 C.ar  536  PHE536     -0.0042
    187  CE1        9.5610   -5.8780    4.6700 C.ar  536  PHE536     -0.0003
    188  CE2        9.4290   -6.1760    2.3020 C.ar  536  PHE536     -0.0003
    189  CZ         9.1240   -6.6030    3.5740 C.ar  536  PHE536     -0.0000
    190  N         12.7400    2.5710    4.4750 N.3   538  ILE538     -0.1245
    191  CA        12.8080    3.0310    5.8560 C.3   538  ILE538      0.1561
    192  C         12.8260    4.5630    5.9160 C.2   538  ILE538      0.2260
    193  O         12.7600    5.1790    6.9940 O.2   538  ILE538     -0.2867
    194  CB        14.0840    2.5070    6.5380 C.3   538  ILE538      0.0252
    195  CG1       13.9850    2.6510    8.0560 C.3   538  ILE538      0.0019
    196  CG2       15.2990    3.2750    6.0320 C.3   538  ILE538      0.0019
    197  CD1       13.2400    1.5220    8.6990 C.3   538  ILE538      0.0001
@<TRIPOS>BOND
     1   177   175    1
     2    41    39    1
     3   175   176    1
     4   175   172    1
     5   171   172    1
     6   176   178    1
     7   172   173    1
     8    40    39    1
     9   173   174    2
    10    39    36    1
    11   166   165    2
    12   165   164    1
    13   151   150    2
    14    36    35    1
    15    36    37    1
    16   163   164    1
    17   164   167    1
    18    54    53    1
    19    54    55    1
    20    53    50    1
    21   150   149    1
    22    50    49    1
    23    50    51    1
    24    37    42   am
    25    37    38    2
    26    42    43    1
    27   167   168    1
    28    49    55    1
    29    49    44   am
    30    30    29    2
    31    45    44    2
    32   149   148    1
    33   149   152    1
    34   168   170    1
    35   168   169    1
    36    44    43    1
    37    51    52    2
    38   179   180    1
    39   186   188   ar
    40   186   184   ar
    41    43    46    1
    42   188   189   ar
    43    29    28    1
    44   180   183    1
    45   180   181    1
    46   183   184    1
    47   181   182    2
    48    28    27    1
    49    28    31    1
    50   184   185   ar
    51    46    48    1
    52    46    47    1
    53    33    31    1
    54   189   187   ar
    55   140   139    2
    56    31    32    1
    57   190   191    1
    58   185   187   ar
    59   125   124    2
    60    32    34    1
    61   139   138    1
    62   133   132    2
    63   124   123    1
    64   124   130   am
    65   191   192    1
    66   191   194    1
    67   138   137    1
    68   138   141    1
    69   192   193    2
    70    25    24    2
    71   123   126    1
    72   123   122    1
    73   196   194    1
    74   132   137   am
    75   132   131    1
    76    83    82    2
    77    15    13   ar
    78    15    14   ar
    79    82    81    1
    80    13    11   ar
    81   117   119   ar
    82   117   116   ar
    83   194   195    1
    84   126   127    1
    85   115   116    1
    86   115   112    1
    87    19    18    2
    88    86    85    1
    89   131   130    1
    90   131   134    1
    91   119   121   ar
    92    85    84    1
    93    85    87    1
    94   116   118   ar
    95    24    23    1
    96   113   114    2
    97   113   112    1
    98   112   111    1
    99   141   142    1
   100    14    12   ar
   101   121   120   ar
   102    84    81    1
   103    81    80    1
   104    11    10   ar
   105   118   120   ar
   106   143   142   ar
   107   143   145   ar
   108   127   128    1
   109    18    17    1
   110    18    22   am
   111    23    22    1
   112    23    26    1
   113   195   197    1
   114   142   144   ar
   115    16    17    1
   116   136   134    1
   117   134   135    1
   118   102   101    2
   119    12    10   ar
   120   145   147   ar
   121   128   129    1
   122    10     9    1
   123   111   101   am
   124    17    20    1
   125   101   100    1
   126   144   146   ar
   127   147   146   ar
   128     9     6    1
   129    20    21    1
   130   100   103    1
   131   100    99    1
   132   103   104    1
   133    78    77    1
   134     6     5    1
   135     6     7    1
   136   161   159   ar
   137   161   162   ar
   138   106   104   ar
   139   106   108   ar
   140     5     3   am
   141   104   105   ar
   142    75    74    2
   143    67    66    2
   144   159   158   ar
   145    76    77    1
   146    76    73    1
   147    77    79    1
   148     8     7    2
   149   162   160   ar
   150     3     4    2
   151     3     2    1
   152   108   109   ar
   153    72    73    1
   154    71    69    1
   155    74    73    1
   156     2     1    1
   157    69    68    1
   158   105   107   ar
   159    66    65    1
   160    68    70    1
   161    68    65    1
   162   158   160   ar
   163   158   157    1
   164   109   107   ar
   165   109   110    1
   166    65    64    1
   167   154   157    1
   168   154   155    1
   169   154   153    1
   170    97    98   ar
   171    97    95   ar
   172    98    96   ar
   173   155   156    2
   174    95    93   ar
   175    63    61    1
   176    96    94   ar
   177    93    94   ar
   178    93    92    1
   179    92    89    1
   180    61    60    1
   181    60    62    1
   182    60    57    1
   183    89    88    1
   184    89    90    1
   185    57    56    1
   186    57    58    1
   187    90    91    2
   188    59    58    2
