@<TRIPOS>MOLECULE
tmp/4beiH01.pdb
 111 99 0 0 0
SMALL
GASTEIGER

@<TRIPOS>ATOM
      1  N         73.6560   84.2380  -52.2120 N.3    44  LYS44      -0.1231
      2  CA        73.1990   85.4300  -51.4890 C.3    44  LYS44       0.1693
      3  C         71.8530   85.8170  -52.0410 C.2    44  LYS44       0.2592
      4  O         71.7000   86.0160  -53.2420 O.2    44  LYS44      -0.2718
      5  CB        74.1630   86.6030  -51.6130 C.3    44  LYS44       0.0285
      6  CG        73.6490   87.8800  -50.9610 C.3    44  LYS44       0.0035
      7  CD        74.6530   89.0130  -51.0770 C.3    44  LYS44       0.0206
      8  CE        74.1940   90.2810  -50.3740 C.3    44  LYS44       0.1093
      9  NZ        74.9830   91.4740  -50.8070 N.3    44  LYS44      -0.1314
     10  N         70.8770   85.9210  -51.1530 N.am   45  GLY45      -0.1957
     11  CA        69.4880   86.1600  -51.5660 C.3    45  GLY45       0.1869
     12  C         68.8570   87.3500  -50.8720 C.2    45  GLY45       0.2309
     13  O         69.5380   88.1360  -50.2260 O.2    45  GLY45      -0.2863
     14  N         72.0270   84.4700  -46.6780 N.3    50  TYR50      -0.1241
     15  CA        73.3260   84.0260  -47.1400 C.3    50  TYR50       0.1605
     16  C         73.4130   82.5410  -46.8270 C.2    50  TYR50       0.2264
     17  O         73.2820   82.1560  -45.6760 O.2    50  TYR50      -0.2867
     18  CB        74.4710   84.7020  -46.3910 C.3    50  TYR50       0.0534
     19  CG        74.6010   86.1960  -46.5300 C.ar   50  TYR50      -0.0201
     20  CD1       73.8850   87.0490  -45.6970 C.ar   50  TYR50      -0.0009
     21  CD2       75.4900   86.7610  -47.4470 C.ar   50  TYR50      -0.0009
     22  CE1       74.0130   88.4190  -45.8060 C.ar   50  TYR50       0.0417
     23  CE2       75.6290   88.1390  -47.5620 C.ar   50  TYR50       0.0417
     24  CZ        74.8930   88.9630  -46.7420 C.ar   50  TYR50       0.1957
     25  OH        75.0300   90.3310  -46.8290 O.3    50  TYR50      -0.2866
     26  N         71.9010   85.8130  -55.9560 N.3    93  THR93      -0.1218
     27  CA        73.2170   85.8410  -56.5750 C.3    93  THR93       0.1862
     28  C         73.9940   84.6020  -56.1560 C.2    93  THR93       0.2287
     29  O         74.2120   84.3810  -54.9760 O.2    93  THR93      -0.2866
     30  CB        74.0230   87.0790  -56.1490 C.3    93  THR93       0.1770
     31  OG1       73.2230   88.2510  -56.3380 O.3    93  THR93      -0.2211
     32  CG2       75.3050   87.2080  -56.9580 C.3    93  THR93       0.0375
     33  N         83.7340   81.6280  -55.6720 N.3    97  GLN97      -0.1245
     34  CA        84.7500   82.4430  -55.0160 C.3    97  GLN97       0.1566
     35  C         86.0040   81.6410  -54.8290 C.2    97  GLN97       0.2260
     36  O         85.9630   80.5310  -54.3000 O.2    97  GLN97      -0.2867
     37  CB        84.2790   82.9300  -53.6540 C.3    97  GLN97       0.0367
     38  CG        82.8800   83.4920  -53.7040 C.3    97  GLN97       0.0905
     39  CD        82.5510   84.3880  -52.5340 C.2    97  GLN97       0.2608
     40  OE1       83.0650   84.2220  -51.4270 O.2    97  GLN97      -0.2717
     41  NE2       81.6720   85.3450  -52.7770 N.am   97  GLN97      -0.0878
     42  N         86.4610   86.0130  -58.3610 N.3   107  LYS107     -0.1245
     43  CA        85.0600   85.6080  -58.2980 C.3   107  LYS107      0.1561
     44  C         84.3830   85.5390  -59.6430 C.2   107  LYS107      0.2260
     45  O         84.7760   86.2060  -60.5910 O.2   107  LYS107     -0.2867
     46  CB        84.2510   86.5620  -57.4250 C.3   107  LYS107      0.0271
     47  CG        84.7740   86.7180  -56.0090 C.3   107  LYS107      0.0035
     48  CD        83.9060   87.6760  -55.2070 C.3   107  LYS107      0.0206
     49  CE        83.8230   89.0260  -55.8950 C.3   107  LYS107      0.1093
     50  NZ        83.7420   90.1370  -54.9250 N.3   107  LYS107     -0.1314
     51  N         80.1340   85.4500  -60.7920 N.3   109  ASN109     -0.1240
     52  CA        78.7700   85.5110  -60.2840 C.3   109  ASN109      0.1653
     53  C         77.7310   85.2690  -61.3610 C.2   109  ASN109      0.2266
     54  O         77.8550   85.7360  -62.4940 O.2   109  ASN109     -0.2867
     55  CB        78.4810   86.8670  -59.6580 C.3   109  ASN109      0.1155
     56  CG        79.2010   87.1030  -58.3390 C.2   109  ASN109      0.2627
     57  OD1       78.8940   88.0830  -57.6590 O.2   109  ASN109     -0.2716
     58  ND2       80.1340   86.2390  -57.9570 N.am  109  ASN109     -0.0877
     59  N         77.2590   99.7570  -48.4610 N.3   170  VAL170     -0.1245
     60  CA        77.8370   98.8260  -47.4990 C.3   170  VAL170      0.1561
     61  C         79.2170   98.4280  -47.9990 C.2   170  VAL170      0.2260
     62  O         79.3470   97.8860  -49.0810 O.2   170  VAL170     -0.2867
     63  CB        76.9900   97.5550  -47.3320 C.3   170  VAL170      0.0252
     64  CG1       77.5810   96.6690  -46.2440 C.3   170  VAL170      0.0019
     65  CG2       75.5510   97.9190  -46.9980 C.3   170  VAL170      0.0019
     66  N         85.4470   96.7830  -51.7280 N.3   209  GLU209     -0.1245
     67  CA        84.1740   96.5660  -52.4160 C.3   209  GLU209      0.1567
     68  C         83.0370   97.2700  -51.6860 C.2   209  GLU209      0.2260
     69  O         82.7890   97.0200  -50.4970 O.2   209  GLU209     -0.2867
     70  CB        83.8680   95.0790  -52.5260 C.3   209  GLU209      0.0388
     71  CG        82.6620   94.7510  -53.3880 C.3   209  GLU209      0.1160
     72  CD        82.6940   93.3400  -53.9650 C.2   209  GLU209      0.3649
     73  OE1       83.7810   92.9130  -54.4480 O.co2 209  GLU209     -0.2457
     74  OE2       81.6220   92.6790  -53.9280 O.co2 209  GLU209     -0.2457
     75  N         78.9580   97.9050  -51.7550 N.3   211  THR211     -0.1218
     76  CA        77.6570   97.4340  -52.2390 C.3   211  THR211      0.1862
     77  C         76.6460   98.5580  -52.1050 C.2   211  THR211      0.2287
     78  O         76.1670   98.8570  -51.0060 O.2   211  THR211     -0.2866
     79  CB        77.1320   96.2060  -51.4690 C.3   211  THR211      0.1770
     80  OG1       78.0880   95.1470  -51.5190 O.3   211  THR211     -0.2211
     81  CG2       75.8120   95.7080  -52.0600 C.3   211  THR211      0.0375
     82  N         73.2890   99.9720  -52.1200 N.3   213  ASN213     -0.1240
     83  CA        72.0380   99.2980  -51.7820 C.3   213  ASN213      0.1653
     84  C         70.9030  100.2760  -51.5740 C.2   213  ASN213      0.2266
     85  O         70.9860  101.1870  -50.7490 O.2   213  ASN213     -0.2867
     86  CB        72.2230   98.4790  -50.5150 C.3   213  ASN213      0.1155
     87  CG        70.9680   97.7300  -50.1240 C.2   213  ASN213      0.2627
     88  OD1       70.5070   96.8380  -50.8480 O.2   213  ASN213     -0.2716
     89  ND2       70.3820   98.1150  -48.9930 N.am  213  ASN213     -0.0877
     90  N         64.3130   95.6160  -52.3730 N.3   226  GLU226     -0.1245
     91  CA        65.7180   96.0580  -52.4720 C.3   226  GLU226      0.1567
     92  C         66.2110   96.0570  -53.8970 C.2   226  GLU226      0.2260
     93  O         65.7500   95.2840  -54.7270 O.2   226  GLU226     -0.2867
     94  CB        66.6550   95.1030  -51.7410 C.3   226  GLU226      0.0388
     95  CG        66.5960   95.1560  -50.2300 C.3   226  GLU226      0.1160
     96  CD        67.6900   94.3200  -49.5730 C.2   226  GLU226      0.3649
     97  OE1       68.8480   94.4130  -50.0470 O.co2 226  GLU226     -0.2457
     98  OE2       67.3800   93.5820  -48.5820 O.co2 226  GLU226     -0.2457
     99  N         70.3590   96.4680  -55.6660 N.3   228  SER228     -0.1217
    100  CA        71.7660   96.6000  -55.3410 C.3   228  SER228      0.1889
    101  C         72.6820   96.6000  -56.5440 C.2   228  SER228      0.2288
    102  O         72.4360   95.9270  -57.5430 O.2   228  SER228     -0.2866
    103  CB        72.1930   95.4880  -54.3990 C.3   228  SER228      0.2089
    104  OG        71.4530   95.5590  -53.2000 O.3   228  SER228     -0.2183
    105  N         77.1840   97.0860  -57.3350 N.3   230  THR230     -0.1218
    106  CA        78.4850   97.0340  -56.7090 C.3   230  THR230      0.1862
    107  C         79.4820   98.0110  -57.3690 C.2   230  THR230      0.2287
    108  O         79.5280   98.1850  -58.5740 O.2   230  THR230     -0.2866
    109  CB        78.9890   95.5830  -56.4940 C.3   230  THR230      0.1770
    110  OG1       80.4030   95.5300  -56.6890 O.3   230  THR230     -0.2211
    111  CG2       78.2850   94.5760  -57.3860 C.3   230  THR230      0.0375
@<TRIPOS>BOND
     1    54    53    2
     2    53    52    1
     3    51    52    1
     4    45    44    2
     5    52    55    1
     6    55    56    1
     7    44    43    1
     8   108   107    2
     9    42    43    1
    10    56    58   am
    11    56    57    2
    12    43    46    1
    13   102   101    2
    14    46    47    1
    15   111   109    1
    16   107   106    1
    17   105   106    1
    18    32    30    1
    19   106   109    1
    20   110   109    1
    21    27    28    1
    22    27    30    1
    23    27    26    1
    24   101   100    1
    25    31    30    1
    26    28    29    2
    27    47    48    1
    28    49    48    1
    29    49    50    1
    30    33    34    1
    31    99   100    1
    32   100   103    1
    33    34    35    1
    34    34    37    1
    35    35    36    2
    36    93    92    2
    37    73    72   ar
    38   103   104    1
    39    72    74   ar
    40    72    71    1
    41    92    91    1
    42    38    37    1
    43    38    39    1
    44    71    70    1
    45     4     3    2
    46    41    39   am
    47    39    40    2
    48    70    67    1
    49    91    90    1
    50    91    94    1
    51    67    66    1
    52    67    68    1
    53    76    77    1
    54    76    75    1
    55    76    79    1
    56     1     2    1
    57    82    83    1
    58    77    78    2
    59    81    79    1
    60     3     2    1
    61     3    10   am
    62    83    84    1
    63    83    86    1
    64    94    95    1
    65    68    69    2
    66     5     2    1
    67     5     6    1
    68    84    85    2
    69    11    10    1
    70    11    12    1
    71    80    79    1
    72     7     6    1
    73     7     8    1
    74    12    13    2
    75    88    87    2
    76     9     8    1
    77    86    87    1
    78    95    96    1
    79    87    89   am
    80    97    96   ar
    81    96    98   ar
    82    62    61    2
    83    59    60    1
    84    61    60    1
    85    23    21   ar
    86    23    24   ar
    87    60    63    1
    88    21    19   ar
    89    63    65    1
    90    63    64    1
    91    15    16    1
    92    15    14    1
    93    15    18    1
    94    25    24    1
    95    16    17    2
    96    24    22   ar
    97    19    18    1
    98    19    20   ar
    99    22    20   ar
