@<TRIPOS>MOLECULE
tmp/4bekA00.pdb
 111 104 0 0 0
SMALL
GASTEIGER

@<TRIPOS>ATOM
      1  N        -24.7870   46.5830   82.3260 N.3    16  GLY16      -0.1210
      2  CA       -24.5320   46.9140   83.7270 C.3    16  GLY16       0.1956
      3  C        -24.6110   45.7320   84.6700 C.2    16  GLY16       0.2611
      4  O        -24.1310   45.8160   85.7840 O.2    16  GLY16      -0.2717
      5  N        -25.1930   44.6240   84.2100 N.am   17  GLN17      -0.1979
      6  CA       -25.3470   43.4020   85.0170 C.3    17  GLN17       0.1601
      7  C        -24.5100   42.2090   84.5170 C.2    17  GLN17       0.2287
      8  O        -24.8110   41.0650   84.8560 O.2    17  GLN17      -0.2864
      9  CB       -26.8120   42.9490   85.0220 C.3    17  GLN17       0.0394
     10  CG       -27.8170   43.9480   85.5100 C.3    17  GLN17       0.0908
     11  CD       -29.1750   43.3090   85.7580 C.2    17  GLN17       0.2608
     12  OE1      -29.3850   42.1180   85.5040 O.2    17  GLN17      -0.2717
     13  NE2      -30.1000   44.1000   86.2700 N.am   17  GLN17      -0.0878
     14  N        -22.3370   33.7780   84.9890 N.3    35  LEU35      -0.1245
     15  CA       -21.6170   35.0090   84.7880 C.3    35  LEU35       0.1561
     16  C        -20.1310   34.7370   84.5070 C.2    35  LEU35       0.2260
     17  O        -19.4600   33.9930   85.2380 O.2    35  LEU35      -0.2867
     18  CB       -21.7580   35.8980   86.0090 C.3    35  LEU35       0.0270
     19  CG       -21.1670   37.2950   85.8520 C.3    35  LEU35       0.0019
     20  CD1      -22.1110   38.2190   85.0980 C.3    35  LEU35       0.0001
     21  CD2      -20.7850   37.9060   87.1910 C.3    35  LEU35       0.0001
     22  N        -16.5450   35.8890   84.6100 N.3    37  ASP37      -0.1239
     23  CA       -15.8170   36.8230   85.4410 C.3    37  ASP37       0.1674
     24  C        -14.3050   36.5900   85.3920 C.2    37  ASP37       0.2266
     25  O        -13.8160   35.6060   85.9330 O.2    37  ASP37      -0.2867
     26  CB       -16.3240   36.6940   86.8840 C.3    37  ASP37       0.1410
     27  CG       -15.7820   37.7580   87.7880 C.2    37  ASP37       0.3668
     28  OD1      -15.3470   38.8090   87.2960 O.co2  37  ASP37      -0.2456
     29  OD2      -15.7860   37.5560   89.0120 O.co2  37  ASP37      -0.2456
     30  N        -12.2770   38.4540   86.9080 N.3    39  GLY39      -0.1210
     31  CA       -11.8030   39.0340   88.1630 C.3    39  GLY39       0.1956
     32  C        -11.9560   38.1720   89.4020 C.2    39  GLY39       0.2612
     33  O        -11.8480   38.6760   90.5300 O.2    39  GLY39      -0.2717
     34  N        -12.1780   36.8770   89.2210 N.am   40  SER40      -0.1952
     35  CA       -12.2690   35.9520   90.3590 C.3    40  SER40       0.1924
     36  C        -11.9980   34.5510   89.8730 C.2    40  SER40       0.2314
     37  O        -11.8550   34.3430   88.6660 O.2    40  SER40      -0.2863
     38  CB       -13.6360   36.0510   91.0520 C.3    40  SER40       0.2116
     39  OG       -14.6760   35.5560   90.2260 O.3    40  SER40      -0.2180
     40  N        -17.5710   40.3020   99.9600 N.3    76  TYR76      -0.1241
     41  CA       -17.1000   41.3280   99.0300 C.3    76  TYR76       0.1605
     42  C        -17.3010   42.6800   99.7110 C.2    76  TYR76       0.2264
     43  O        -17.6140   42.7170  100.9040 O.2    76  TYR76      -0.2867
     44  CB       -17.9080   41.2830   97.7320 C.3    76  TYR76       0.0534
     45  CG       -17.9210   39.9490   97.0330 C.ar   76  TYR76      -0.0201
     46  CD1      -16.7240   39.3120   96.6850 C.ar   76  TYR76      -0.0009
     47  CD2      -19.1260   39.3310   96.6930 C.ar   76  TYR76      -0.0009
     48  CE1      -16.7190   38.0790   96.0310 C.ar   76  TYR76       0.0417
     49  CE2      -19.1360   38.0970   96.0320 C.ar   76  TYR76       0.0417
     50  CZ       -17.9240   37.4800   95.7040 C.ar   76  TYR76       0.1957
     51  OH       -17.9110   36.2710   95.0450 O.3    76  TYR76      -0.2866
     52  N        -26.0180   39.5750   96.3840 N.3   113  PHE113     -0.1241
     53  CA       -25.1870   38.9150   95.3890 C.3   113  PHE113      0.1605
     54  C        -25.9990   38.6540   94.1280 C.2   113  PHE113      0.2264
     55  O        -25.6720   39.1820   93.0790 O.2   113  PHE113     -0.2867
     56  CB       -24.6020   37.6280   95.9790 C.3   113  PHE113      0.0534
     57  CG       -23.8820   36.7610   94.9820 C.ar  113  PHE113     -0.0203
     58  CD1      -22.5670   37.0430   94.6170 C.ar  113  PHE113     -0.0042
     59  CD2      -24.5100   35.6350   94.4340 C.ar  113  PHE113     -0.0042
     60  CE1      -21.8950   36.2260   93.7080 C.ar  113  PHE113     -0.0003
     61  CE2      -23.8500   34.8170   93.5300 C.ar  113  PHE113     -0.0003
     62  CZ       -22.5410   35.1090   93.1640 C.ar  113  PHE113     -0.0000
     63  N        -29.0160   39.1400   91.5620 N.3   115  ILE115     -0.1245
     64  CA       -29.7330   40.3500   91.2030 C.3   115  ILE115      0.1561
     65  C        -31.1930   40.0200   90.8840 C.2   115  ILE115      0.2260
     66  O        -31.4700   39.1670   90.0530 O.2   115  ILE115     -0.2867
     67  CB       -29.0470   41.1310   90.0230 C.3   115  ILE115      0.0252
     68  CG1      -27.5850   41.4630   90.3470 C.3   115  ILE115      0.0019
     69  CG2      -29.8290   42.4230   89.6960 C.3   115  ILE115      0.0019
     70  CD1      -26.7350   41.8480   89.1200 C.3   115  ILE115      0.0001
     71  N        -29.0260   35.1960   85.4040 N.3   120  TRP120     -0.1241
     72  CA       -27.9340   34.2520   85.7080 C.3   120  TRP120      0.1605
     73  C        -28.0090   33.7240   87.1510 C.2   120  TRP120      0.2264
     74  O        -28.6040   34.3530   88.0000 O.2   120  TRP120     -0.2867
     75  CB       -26.5310   34.8270   85.3720 C.3   120  TRP120      0.0550
     76  CG       -26.2150   36.1310   86.0280 C.ar  120  TRP120      0.0003
     77  CD1      -26.3590   37.3700   85.4790 C.ar  120  TRP120      0.0946
     78  CD2      -25.7130   36.3350   87.3570 C.ar  120  TRP120      0.0152
     79  NE1      -26.0010   38.3330   86.3830 N.ar  120  TRP120     -0.2442
     80  CE2      -25.5880   37.7300   87.5430 C.ar  120  TRP120      0.0810
     81  CE3      -25.3580   35.4770   88.4100 C.ar  120  TRP120      0.0012
     82  CZ2      -25.1200   38.2930   88.7410 C.ar  120  TRP120      0.0191
     83  CZ3      -24.8900   36.0290   89.6020 C.ar  120  TRP120      0.0001
     84  CH2      -24.7750   37.4270   89.7570 C.ar  120  TRP120      0.0015
     85  N        -21.5620   32.0100   88.8340 N.3   123  ILE123     -0.1245
     86  CA       -20.4050   32.7900   88.4500 C.3   123  ILE123      0.1561
     87  C        -19.2060   31.8810   88.1840 C.2   123  ILE123      0.2260
     88  O        -18.9100   30.9610   88.9530 O.2   123  ILE123     -0.2867
     89  CB       -20.0990   33.8530   89.5160 C.3   123  ILE123      0.0252
     90  CG1      -18.8650   34.6740   89.1610 C.3   123  ILE123      0.0019
     91  CG2      -19.9200   33.2170   90.8960 C.3   123  ILE123      0.0019
     92  CD1      -18.8840   36.0160   89.9180 C.3   123  ILE123      0.0001
     93  N        -10.8270   42.9230   84.0400 N.3   221  ASP221     -0.1239
     94  CA       -11.9230   42.2410   84.7560 C.3   221  ASP221      0.1674
     95  C        -13.3190   42.3430   84.0980 C.2   221  ASP221      0.2266
     96  O        -13.9410   43.4010   84.0720 O.2   221  ASP221     -0.2867
     97  CB       -11.9810   42.7260   86.2060 C.3   221  ASP221      0.1410
     98  CG       -13.2270   42.2770   86.9030 C.2   221  ASP221      0.3668
     99  OD1      -13.8360   41.2600   86.4520 O.co2 221  ASP221     -0.2456
    100  OD2      -13.6100   42.9480   87.8950 O.co2 221  ASP221     -0.2456
    101  N        -16.1120   41.0420   85.1180 N.3   223  GLY223     -0.1210
    102  CA       -17.2130   41.0530   86.0690 C.3   223  GLY223      0.1956
    103  C        -17.5330   42.4470   86.5860 C.2   223  GLY223      0.2612
    104  O        -18.5340   42.6210   87.2740 O.2   223  GLY223     -0.2717
    105  N        -16.6730   43.4300   86.2760 N.am  224  THR224     -0.1952
    106  CA       -16.8860   44.8450   86.6470 C.3   224  THR224      0.1897
    107  C        -17.3650   45.6120   85.4280 C.2   224  THR224      0.2313
    108  O        -16.9010   45.3730   84.3270 O.2   224  THR224     -0.2863
    109  CB       -15.5800   45.5020   87.1310 C.3   224  THR224      0.1794
    110  OG1      -15.0500   44.7620   88.2370 O.3   224  THR224     -0.2208
    111  CG2      -15.7870   46.9310   87.5590 C.3   224  THR224      0.0378
@<TRIPOS>BOND
     1     1     2    1
     2     2     3    1
     3    93    94    1
     4    96    95    2
     5    95    94    1
     6     5     3   am
     7     5     6    1
     8   108   107    2
     9    16    15    1
    10    16    17    2
    11     7     8    2
    12     7     6    1
    13    22    23    1
    14     3     4    2
    15    94    97    1
    16    15    14    1
    17    15    18    1
    18     6     9    1
    19     9    10    1
    20    20    19    1
    21   101   102    1
    22    75    72    1
    23    75    76    1
    24    24    23    1
    25    24    25    2
    26    71    72    1
    27   107   106    1
    28    23    26    1
    29    77    76   ar
    30    77    79   ar
    31    12    11    2
    32    10    11    1
    33    72    73    1
    34    11    13   am
    35    19    18    1
    36    19    21    1
    37    76    78   ar
    38   102   103    1
    39    97    98    1
    40   105   103   am
    41   105   106    1
    42    79    80   ar
    43    99    98   ar
    44   103   104    2
    45   106   109    1
    46    26    27    1
    47    98   100   ar
    48    30    31    1
    49   109   111    1
    50   109   110    1
    51    73    74    2
    52    28    27   ar
    53    78    80   ar
    54    78    81   ar
    55    80    82   ar
    56    27    29   ar
    57    31    32    1
    58    87    86    1
    59    87    88    2
    60    81    83   ar
    61    86    85    1
    62    86    89    1
    63    37    36    2
    64    82    84   ar
    65    70    68    1
    66    90    89    1
    67    90    92    1
    68    34    32   am
    69    34    35    1
    70    32    33    2
    71    89    91    1
    72    83    84   ar
    73    69    67    1
    74    36    35    1
    75    67    68    1
    76    67    64    1
    77    66    65    2
    78    39    38    1
    79    35    38    1
    80    65    64    1
    81    64    63    1
    82    55    54    2
    83    62    61   ar
    84    62    60   ar
    85    61    59   ar
    86    60    58   ar
    87    54    53    1
    88    59    57   ar
    89    58    57   ar
    90    57    56    1
    91    51    50    1
    92    53    56    1
    93    53    52    1
    94    50    48   ar
    95    50    49   ar
    96    48    46   ar
    97    49    47   ar
    98    46    45   ar
    99    47    45   ar
   100    45    44    1
   101    44    41    1
   102    41    42    1
   103    41    40    1
   104    42    43    2
