@<TRIPOS>MOLECULE
tmp/4benC00.pdb
 128 121 0 0 0
SMALL
GASTEIGER

@<TRIPOS>ATOM
      1  N         11.4360   70.1940  -20.0130 N.3    48  ALA48      -0.1231
      2  CA        12.6060   69.5250  -19.3800 C.3    48  ALA48       0.1694
      3  C         12.7400   69.9780  -17.9010 C.2    48  ALA48       0.2592
      4  O         11.7440   70.0460  -17.2090 O.2    48  ALA48      -0.2718
      5  CB        13.9310   69.7620  -20.1940 C.3    48  ALA48       0.0304
      6  N         13.9380   70.3080  -17.4130 N.am   49  SER49      -0.1952
      7  CA        14.0790   70.6510  -15.9740 C.3    49  SER49       0.1924
      8  C         13.4630   71.9480  -15.4870 C.2    49  SER49       0.2314
      9  O         13.4700   72.2280  -14.2700 O.2    49  SER49      -0.2863
     10  CB        15.5420   70.6600  -15.5690 C.3    49  SER49       0.2116
     11  OG        16.0140   69.3510  -15.3890 O.3    49  SER49      -0.2180
     12  N         10.9740   72.0120  -12.7070 N.3    52  LYS52      -0.1245
     13  CA        11.3550   72.1680  -11.2840 C.3    52  LYS52       0.1561
     14  C         10.9360   73.5380  -10.7200 C.2    52  LYS52       0.2260
     15  O         10.7860   73.6900   -9.5030 O.2    52  LYS52      -0.2867
     16  CB        12.8710   71.9280  -11.0410 C.3    52  LYS52       0.0271
     17  CG        13.3500   70.4740  -11.2440 C.3    52  LYS52       0.0035
     18  CD        14.8210   70.2810  -10.9560 C.3    52  LYS52       0.0206
     19  CE        15.1850   68.8650  -11.2170 C.3    52  LYS52       0.1093
     20  NZ        15.5040   68.6660  -12.6850 N.3    52  LYS52      -0.1314
     21  N         20.5260   60.7300  -12.5590 N.3   147  TYR147     -0.1241
     22  CA        19.3560   61.5720  -12.7870 C.3   147  TYR147      0.1605
     23  C         18.0340   60.7650  -12.9040 C.2   147  TYR147      0.2264
     24  O         16.9330   61.3490  -12.9160 O.2   147  TYR147     -0.2867
     25  CB        19.5600   62.4850  -13.9990 C.3   147  TYR147      0.0534
     26  CG        19.7490   61.7250  -15.3030 C.ar  147  TYR147     -0.0201
     27  CD1       18.6580   61.2010  -16.0040 C.ar  147  TYR147     -0.0009
     28  CD2       21.0310   61.4950  -15.8060 C.ar  147  TYR147     -0.0009
     29  CE1       18.8410   60.4850  -17.1880 C.ar  147  TYR147      0.0417
     30  CE2       21.2220   60.7960  -16.9890 C.ar  147  TYR147      0.0417
     31  CZ        20.1210   60.2880  -17.6640 C.ar  147  TYR147      0.1957
     32  OH        20.3480   59.5860  -18.8160 O.3   147  TYR147     -0.2866
     33  N         21.7410   72.4580   -9.0620 N.3   297  PHE297     -0.1227
     34  CA        22.2410   71.3600   -9.8680 C.3   297  PHE297      0.1736
     35  C         21.1330   70.5700  -10.5720 C.2   297  PHE297      0.2596
     36  O         21.4070   69.5970  -11.3140 O.2   297  PHE297     -0.2718
     37  CB        23.1730   70.4840   -9.0290 C.3   297  PHE297      0.0547
     38  CG        24.2940   71.2780   -8.3590 C.ar  297  PHE297     -0.0202
     39  CD1       25.3510   71.8030   -9.1130 C.ar  297  PHE297     -0.0042
     40  CD2       24.2730   71.5150   -6.9920 C.ar  297  PHE297     -0.0042
     41  CE1       26.3690   72.5640   -8.5110 C.ar  297  PHE297     -0.0003
     42  CE2       25.2920   72.2750   -6.3850 C.ar  297  PHE297     -0.0003
     43  CZ        26.3440   72.7930   -7.1520 C.ar  297  PHE297     -0.0000
     44  N         19.8800   70.9910  -10.3580 N.am  298  SER298     -0.1952
     45  CA        18.7340   70.3430  -11.0240 C.3   298  SER298      0.1924
     46  C         18.6570   68.8460  -10.6180 C.2   298  SER298      0.2314
     47  O         18.6460   67.9300  -11.4780 O.2   298  SER298     -0.2863
     48  CB        18.8820   70.4900  -12.5510 C.3   298  SER298      0.2116
     49  OG        17.6150   70.5140  -13.1960 O.3   298  SER298     -0.2180
     50  N         16.9810   65.5640   -9.7750 N.3   300  ASN300     -0.1240
     51  CA        15.6570   64.9570  -10.0990 C.3   300  ASN300      0.1653
     52  C         15.0070   64.2490   -8.9060 C.2   300  ASN300      0.2266
     53  O         13.8020   64.4130   -8.6550 O.2   300  ASN300     -0.2867
     54  CB        15.7380   63.9870  -11.2940 C.3   300  ASN300      0.1155
     55  CG        16.0490   64.6960  -12.6310 C.2   300  ASN300      0.2627
     56  OD1       16.0460   65.9370  -12.7240 O.2   300  ASN300     -0.2716
     57  ND2       16.3560   63.8980  -13.6670 N.am  300  ASN300     -0.0877
     58  N         10.9220   67.1220  -14.3660 N.3   348  GLY348     -0.1210
     59  CA        10.9870   67.4390  -15.7910 C.3   348  GLY348      0.1956
     60  C         11.5960   66.3560  -16.6640 C.2   348  GLY348      0.2611
     61  O         11.7440   66.5410  -17.8730 O.2   348  GLY348     -0.2717
     62  N         11.9660   65.2210  -16.0760 N.am  349  LEU349     -0.1979
     63  CA        12.4700   64.0910  -16.8820 C.3   349  LEU349      0.1596
     64  C         11.3950   63.5090  -17.8110 C.2   349  LEU349      0.2287
     65  O         11.6900   63.0940  -18.9550 O.2   349  LEU349     -0.2864
     66  CB        13.0600   62.9960  -15.9750 C.3   349  LEU349      0.0297
     67  CG        13.6530   61.7320  -16.6120 C.3   349  LEU349      0.0022
     68  CD1       14.8050   62.0640  -17.5540 C.3   349  LEU349      0.0001
     69  CD2       14.1380   60.7480  -15.5100 C.3   349  LEU349      0.0001
     70  N         25.9600   76.9740  -10.3360 N.3   392  GLY392     -0.1210
     71  CA        25.2140   75.7630  -10.6910 C.3   392  GLY392      0.1956
     72  C         25.3530   75.4060  -12.1660 C.2   392  GLY392      0.2612
     73  O         26.4440   75.4470  -12.7140 O.2   392  GLY392     -0.2717
     74  N         24.2490   75.0660  -12.8270 N.am  393  THR393     -0.1952
     75  CA        24.3090   74.7220  -14.2520 C.3   393  THR393      0.1897
     76  C         24.5300   75.9100  -15.1970 C.2   393  THR393      0.2313
     77  O         24.6090   75.7290  -16.4150 O.2   393  THR393     -0.2863
     78  CB        23.0320   74.0230  -14.6930 C.3   393  THR393      0.1794
     79  OG1       21.9310   74.8800  -14.3800 O.3   393  THR393     -0.2208
     80  CG2       22.8690   72.6990  -13.9690 C.3   393  THR393      0.0378
     81  N         27.1730   77.9500  -14.4750 N.3   395  ALA395     -0.1231
     82  CA        28.5290   78.3620  -14.0860 C.3   395  ALA395      0.1694
     83  C         29.4310   78.7120  -15.2660 C.2   395  ALA395      0.2592
     84  O         30.2560   79.6200  -15.1490 O.2   395  ALA395     -0.2718
     85  CB        29.1910   77.2870  -13.2320 C.3   395  ALA395      0.0304
     86  N         29.2900   78.0040  -16.3880 N.am  396  ASN396     -0.1974
     87  CA        30.1750   78.2130  -17.5540 C.3   396  ASN396      0.1688
     88  C         29.5500   79.0510  -18.6710 C.2   396  ASN396      0.2292
     89  O         30.1230   79.1850  -19.7530 O.2   396  ASN396     -0.2864
     90  CB        30.6390   76.8730  -18.1350 C.3   396  ASN396      0.1181
     91  CG        31.4830   76.0550  -17.1590 C.2   396  ASN396      0.2629
     92  OD1       32.1970   76.5900  -16.2920 O.2   396  ASN396     -0.2716
     93  ND2       31.4020   74.7380  -17.3050 N.am  396  ASN396     -0.0877
     94  N         16.6540   79.0620  -14.3240 N.3   410  LYS410     -0.1231
     95  CA        16.6180   77.5980  -14.3190 C.3   410  LYS410      0.1693
     96  C         16.8650   77.0770  -15.7340 C.2   410  LYS410      0.2593
     97  O         16.3490   77.6130  -16.7090 O.2   410  LYS410     -0.2718
     98  CB        15.2760   77.0770  -13.7630 C.3   410  LYS410      0.0285
     99  CG        15.2150   75.5620  -13.5470 C.3   410  LYS410      0.0035
    100  CD        16.1580   75.1380  -12.3950 C.3   410  LYS410      0.0206
    101  CE        16.3830   73.6090  -12.3550 C.3   410  LYS410      0.1093
    102  NZ        17.2040   73.1510  -13.5190 N.3   410  LYS410     -0.1314
    103  N         17.7060   76.0700  -15.8260 N.am  411  THR411     -0.1939
    104  CA        18.0900   75.4630  -17.0820 C.3   411  THR411      0.2028
    105  C         17.2780   74.1690  -17.2540 C.2   411  THR411      0.2643
    106  O         16.4600   73.8180  -16.3860 O.2   411  THR411     -0.2714
    107  CB        19.5690   75.0560  -17.0180 C.3   411  THR411      0.1808
    108  OG1       19.8170   74.3630  -15.7790 O.3   411  THR411     -0.2208
    109  CG2       20.4480   76.2900  -17.0260 C.3   411  THR411      0.0379
    110  N         17.5070   73.4690  -18.3690 N.am  412  GLY412     -0.1939
    111  CA        16.9510   72.1450  -18.6150 C.3   412  GLY412      0.2014
    112  C         17.2160   71.7720  -20.0580 C.2   412  GLY412      0.2640
    113  O         16.9430   72.5590  -20.9780 O.2   412  GLY412     -0.2714
    114  N         17.7570   70.5750  -20.2640 N.am  413  THR413     -0.1936
    115  CA        18.0020   70.0580  -21.6010 C.3   413  THR413      0.2028
    116  C         17.8060   68.5280  -21.6410 C.2   413  THR413      0.2642
    117  O         18.3370   67.8110  -20.7610 O.2   413  THR413     -0.2714
    118  CB        19.4480   70.3830  -22.0990 C.3   413  THR413      0.1808
    119  OG1       19.5350   71.7560  -22.4240 O.3   413  THR413     -0.2208
    120  CG2       19.8040   69.6110  -23.3660 C.3   413  THR413      0.0379
    121  N         17.0480   68.0720  -22.6570 N.am  414  MET414     -0.1976
    122  CA        16.9990   66.6730  -23.0960 C.3   414  MET414      0.1605
    123  C         17.0310   66.7300  -24.6250 C.2   414  MET414      0.2287
    124  O         17.0800   67.8160  -25.2060 O.2   414  MET414     -0.2864
    125  CB        15.6970   66.0000  -22.6700 C.3   414  MET414      0.0413
    126  CG        15.4050   66.1140  -21.1930 C.3   414  MET414      0.0598
    127  SD        14.0090   65.1550  -20.5800 S.3   414  MET414     -0.1393
    128  CE        12.6370   65.8240  -21.4890 C.3   414  MET414      0.0692
@<TRIPOS>BOND
     1   124   123    2
     2   123   122    1
     3   120   118    1
     4   122   125    1
     5   122   121    1
     6   125   126    1
     7   121   116   am
     8   119   118    1
     9   118   115    1
    10   116   115    1
    11   116   117    2
    12   115   114    1
    13   128   127    1
    14   126   127    1
    15   113   112    2
    16   114   112   am
    17     5     2    1
    18   112   111    1
    19     1     2    1
    20    89    88    2
    21     2     3    1
    22    65    64    2
    23    32    31    1
    24    88    87    1
    25   111   110    1
    26   110   105   am
    27    90    87    1
    28    90    91    1
    29     3     6   am
    30     3     4    2
    31    61    60    2
    32    64    63    1
    33    31    29   ar
    34    31    30   ar
    35    87    86    1
    36    68    67    1
    37     6     7    1
    38    93    91   am
    39   105   104    1
    40   105   106    2
    41    29    27   ar
    42    91    92    2
    43   104   107    1
    44   104   103    1
    45   109   107    1
    46   107   108    1
    47    30    28   ar
    48    63    62    1
    49    63    66    1
    50    97    96    2
    51    60    62   am
    52    60    59    1
    53    67    66    1
    54    67    69    1
    55    77    76    2
    56    86    83   am
    57    27    26   ar
    58     7    10    1
    59     7     8    1
    60   103    96   am
    61    28    26   ar
    62    59    58    1
    63    96    95    1
    64    10    11    1
    65     8     9    2
    66    26    25    1
    67    83    84    2
    68    83    82    1
    69    76    75    1
    70    78    79    1
    71    78    75    1
    72    78    80    1
    73    81    82    1
    74    94    95    1
    75    95    98    1
    76    75    74    1
    77    82    85    1
    78    25    22    1
    79    98    99    1
    80    57    55   am
    81    99   100    1
    82   102   101    1
    83    49    48    1
    84    24    23    2
    85    23    22    1
    86    74    72   am
    87    22    21    1
    88    56    55    2
    89    73    72    2
    90    12    13    1
    91    20    19    1
    92    55    54    1
    93    48    45    1
    94   100   101    1
    95    72    71    1
    96    47    46    2
    97    36    35    2
    98    54    51    1
    99    13    16    1
   100    13    14    1
   101    17    16    1
   102    17    18    1
   103    19    18    1
   104    45    46    1
   105    45    44    1
   106    14    15    2
   107    71    70    1
   108    35    44   am
   109    35    34    1
   110    51    50    1
   111    51    52    1
   112    34    33    1
   113    34    37    1
   114    39    41   ar
   115    39    38   ar
   116    37    38    1
   117    52    53    2
   118    41    43   ar
   119    38    40   ar
   120    43    42   ar
   121    40    42   ar
