@<TRIPOS>MOLECULE
tmp/4berA00.pdb
 148 143 0 0 0
SMALL
GASTEIGER

@<TRIPOS>ATOM
      1  N         14.2140   42.0470   38.8030 N.3    26  PHE26      -0.1241
      2  CA        15.6600   41.8160   38.9680 C.3    26  PHE26       0.1605
      3  C         16.2050   40.7850   37.9920 C.2    26  PHE26       0.2264
      4  O         17.3170   40.9600   37.4640 O.2    26  PHE26      -0.2867
      5  CB        16.0240   41.4690   40.4380 C.3    26  PHE26       0.0534
      6  CG        15.4910   42.4990   41.4050 C.ar   26  PHE26      -0.0203
      7  CD1       16.1010   43.7480   41.5250 C.ar   26  PHE26      -0.0042
      8  CD2       14.3030   42.2770   42.0970 C.ar   26  PHE26      -0.0042
      9  CE1       15.5620   44.7360   42.3620 C.ar   26  PHE26      -0.0003
     10  CE2       13.7550   43.2730   42.9230 C.ar   26  PHE26      -0.0003
     11  CZ        14.3910   44.4950   43.0510 C.ar   26  PHE26      -0.0000
     12  N         16.5500   39.2380   34.6550 N.3    28  ASP28      -0.1239
     13  CA        16.4510   39.6340   33.2420 C.3    28  ASP28       0.1674
     14  C         15.4450   38.7400   32.5310 C.2    28  ASP28       0.2266
     15  O         15.5470   37.5330   32.6590 O.2    28  ASP28      -0.2867
     16  CB        17.8010   39.4600   32.5180 C.3    28  ASP28       0.1410
     17  CG        19.0510   39.9800   33.1780 C.2    28  ASP28       0.3668
     18  OD1       18.9590   40.4680   34.3270 O.co2  28  ASP28      -0.2456
     19  OD2       20.1260   39.9070   32.5380 O.co2  28  ASP28      -0.2456
     20  N         15.3060   37.7230   29.6390 N.3    30  ARG30      -0.1231
     21  CA        16.0520   36.7880   28.7800 C.3    30  ARG30       0.1694
     22  C         16.2850   35.3950   29.3940 C.2    30  ARG30       0.2592
     23  O         16.4900   34.4260   28.6520 O.2    30  ARG30      -0.2718
     24  CB        17.3740   37.4230   28.3070 C.3    30  ARG30       0.0321
     25  CG        18.4000   37.5830   29.4150 C.3    30  ARG30       0.0489
     26  CD        19.4340   38.6060   29.0940 C.3    30  ARG30       0.2205
     27  NE        20.5180   38.6120   30.0790 N.pl3  30  ARG30      -0.0865
     28  CZ        21.6390   37.9050   29.9570 C.cat  30  ARG30       0.5346
     29  NH1       21.8170   37.1010   28.9080 N.pl3  30  ARG30       0.1354
     30  NH2       22.5790   37.9730   30.8920 N.pl3  30  ARG30       0.1354
     31  N         16.2280   35.2960   30.7290 N.am   31  PHE31      -0.1976
     32  CA        16.4550   34.0590   31.4870 C.3    31  PHE31       0.1639
     33  C         15.2250   33.2140   31.7040 C.2    31  PHE31       0.2290
     34  O         15.3400   31.9930   31.8210 O.2    31  PHE31      -0.2864
     35  CB        17.0250   34.3800   32.8830 C.3    31  PHE31       0.0560
     36  CG        18.3640   35.0670   32.9400 C.ar   31  PHE31      -0.0200
     37  CD1       19.3810   34.7180   32.0610 C.ar   31  PHE31      -0.0042
     38  CD2       18.6300   36.0230   33.9160 C.ar   31  PHE31      -0.0042
     39  CE1       20.6380   35.3160   32.1520 C.ar   31  PHE31      -0.0003
     40  CE2       19.8810   36.6370   33.9900 C.ar   31  PHE31      -0.0003
     41  CZ        20.8860   36.2590   33.1230 C.ar   31  PHE31      -0.0000
     42  N         18.8410   32.4320   38.2140 N.3    41  TYR41      -0.1241
     43  CA        19.3450   33.6590   38.8210 C.3    41  TYR41       0.1605
     44  C         19.6520   33.4620   40.3230 C.2    41  TYR41       0.2264
     45  O         20.7710   33.7660   40.7430 O.2    41  TYR41      -0.2867
     46  CB        18.3180   34.7980   38.5960 C.3    41  TYR41       0.0534
     47  CG        18.7960   36.2040   38.9150 C.ar   41  TYR41      -0.0201
     48  CD1       18.8120   36.6760   40.2260 C.ar   41  TYR41      -0.0009
     49  CD2       19.1120   37.1030   37.8980 C.ar   41  TYR41      -0.0009
     50  CE1       19.2160   37.9770   40.5240 C.ar   41  TYR41       0.0417
     51  CE2       19.4980   38.4160   38.1830 C.ar   41  TYR41       0.0417
     52  CZ        19.5520   38.8470   39.5000 C.ar   41  TYR41       0.1957
     53  OH        19.9040   40.1430   39.8160 O.3    41  TYR41      -0.2866
     54  N         22.6540   31.0100   41.2690 N.3    44  ARG44      -0.1231
     55  CA        23.9300   31.6440   40.9320 C.3    44  ARG44       0.1694
     56  C         24.5490   32.4230   42.1150 C.2    44  ARG44       0.2591
     57  O         25.7760   32.4260   42.2610 O.2    44  ARG44      -0.2718
     58  CB        23.7250   32.5720   39.7490 C.3    44  ARG44       0.0321
     59  CG        24.7090   32.3890   38.6140 C.3    44  ARG44       0.0489
     60  CD        24.2180   33.1900   37.4130 C.3    44  ARG44       0.2205
     61  NE        23.2320   32.4250   36.6570 N.pl3  44  ARG44      -0.0865
     62  CZ        22.0760   32.8930   36.2020 C.cat  44  ARG44       0.5346
     63  NH1       21.7370   34.1500   36.4040 N.pl3  44  ARG44       0.1354
     64  NH2       21.2550   32.1050   35.5360 N.pl3  44  ARG44       0.1354
     65  N         23.6970   33.0820   42.9410 N.am   45  GLU45      -0.1979
     66  CA        24.0700   33.8610   44.1330 C.3    45  GLU45       0.1602
     67  C         22.9390   33.7570   45.1720 C.2    45  GLU45       0.2287
     68  O         22.1150   34.6660   45.2450 O.2    45  GLU45      -0.2864
     69  CB        24.3450   35.3400   43.7800 C.3    45  GLU45       0.0415
     70  CG        25.6850   35.5950   43.1140 C.3    45  GLU45       0.1163
     71  CD        25.8760   36.9520   42.4650 C.2    45  GLU45       0.3649
     72  OE1       25.4260   37.9690   43.0460 O.co2  45  GLU45      -0.2457
     73  OE2       26.5190   37.0000   41.3910 O.co2  45  GLU45      -0.2457
     74  N         20.4960   36.7710   46.7810 N.3    48  CYS48      -0.1235
     75  CA        20.6760   38.0010   46.0140 C.3    48  CYS48       0.1677
     76  C         19.3490   38.6690   45.6360 C.2    48  CYS48       0.2270
     77  O         19.3110   39.8960   45.5160 O.2    48  CYS48      -0.2867
     78  CB        21.5420   37.7480   44.7870 C.3    48  CYS48       0.0956
     79  SG        20.7260   36.7560   43.5090 S.3    48  CYS48      -0.0801
     80  N         32.8540   51.8970   36.3320 N.3   229  HIS229     -0.1241
     81  CA        32.4020   50.7610   37.1340 C.3   229  HIS229      0.1621
     82  C         32.9080   51.0750   38.5650 C.2   229  HIS229      0.2264
     83  O         34.0980   50.9240   38.7990 O.2   229  HIS229     -0.2867
     84  CB        32.9840   49.4740   36.5170 C.3   229  HIS229      0.0745
     85  CG        31.9910   48.3750   36.3180 C.ar  229  HIS229      0.0817
     86  ND1       30.8130   48.5760   35.6270 N.ar  229  HIS229     -0.2268
     87  CD2       32.0530   47.0800   36.6980 C.ar  229  HIS229      0.1154
     88  CE1       30.1840   47.4140   35.6420 C.ar  229  HIS229      0.1986
     89  NE2       30.8870   46.4870   36.2760 N.ar  229  HIS229     -0.2212
     90  N         31.7790   44.5340   42.1680 N.3   233  ASP233     -0.1225
     91  CA        30.6490   43.8780   41.5050 C.3   233  ASP233      0.1805
     92  C         29.3350   44.5410   41.9590 C.2   233  ASP233      0.2598
     93  O         29.3800   45.5390   42.6800 O.2   233  ASP233     -0.2718
     94  CB        30.6650   42.3320   41.6570 C.3   233  ASP233      0.1424
     95  CG        29.8300   41.5840   40.6110 C.2   233  ASP233      0.3668
     96  OD1       30.3100   41.4220   39.4540 O.co2 233  ASP233     -0.2456
     97  OD2       28.7010   41.1710   40.9430 O.co2 233  ASP233     -0.2456
     98  N         28.1840   44.0170   41.4950 N.am  234  ALA234     -0.1966
     99  CA        26.8290   44.4870   41.7730 C.3   234  ALA234      0.1728
    100  C         26.4790   45.8680   41.2140 C.2   234  ALA234      0.2616
    101  O         25.4930   46.4470   41.6650 O.2   234  ALA234     -0.2715
    102  CB        26.4710   44.3700   43.2560 C.3   234  ALA234      0.0334
    103  N         27.2030   46.3520   40.1710 N.am  235  ASN235     -0.1958
    104  CA        26.9490   47.6650   39.5410 C.3   235  ASN235      0.1819
    105  C         25.6330   47.7010   38.7490 C.2   235  ASN235      0.2622
    106  O         24.9730   48.7380   38.6870 O.2   235  ASN235     -0.2715
    107  CB        28.1020   48.0930   38.6390 C.3   235  ASN235      0.1195
    108  CG        29.4240   48.1450   39.3310 C.2   235  ASN235      0.2630
    109  OD1       29.7530   49.1160   40.0050 O.2   235  ASN235     -0.2716
    110  ND2       30.1820   47.0660   39.2150 N.am  235  ASN235     -0.0877
    111  N         25.2890   46.5890   38.1180 N.am  236  GLY236     -0.1940
    112  CA        24.0390   46.4580   37.3880 C.3   236  GLY236      0.2014
    113  C         22.8760   46.5860   38.3430 C.2   236  GLY236      0.2638
    114  O         22.0270   47.4610   38.1780 O.2   236  GLY236     -0.2714
    115  N         22.8640   45.7490   39.3800 N.am  237  ARG237     -0.1977
    116  CA        21.8300   45.7530   40.4080 C.3   237  ARG237      0.1597
    117  C         21.7250   47.0880   41.1180 C.2   237  ARG237      0.2287
    118  O         20.6090   47.5910   41.2860 O.2   237  ARG237     -0.2864
    119  CB        22.0630   44.6280   41.4170 C.3   237  ARG237      0.0334
    120  CG        21.5330   43.3080   40.9320 C.3   237  ARG237      0.0492
    121  CD        22.0720   42.1880   41.7740 C.3   237  ARG237      0.2205
    122  NE        23.4250   41.8390   41.3520 N.pl3 237  ARG237     -0.0865
    123  CZ        24.1950   40.9620   41.9720 C.cat 237  ARG237      0.5346
    124  NH1       23.7570   40.3360   43.0570 N.pl3 237  ARG237      0.1354
    125  NH2       25.4080   40.6960   41.5110 N.pl3 237  ARG237      0.1354
    126  N         18.9570   48.1640   38.4240 N.3   241  ASN241     -0.1240
    127  CA        17.8430   47.5040   39.0870 C.3   241  ASN241      0.1653
    128  C         17.3430   48.2570   40.3060 C.2   241  ASN241      0.2266
    129  O         16.1860   48.0720   40.7010 O.2   241  ASN241     -0.2867
    130  CB        18.1820   46.0490   39.4040 C.3   241  ASN241      0.1155
    131  CG        18.3650   45.2320   38.1610 C.2   241  ASN241      0.2627
    132  OD1       17.4400   45.0730   37.3570 O.2   241  ASN241     -0.2716
    133  ND2       19.5790   44.7530   37.9390 N.am  241  ASN241     -0.0877
    134  N         18.9350   44.1100   30.7290 N.3   261  PRO261     -0.2102
    135  CA        19.3970   45.3540   31.3550 C.3   261  PRO261      0.1504
    136  C         20.9000   45.5480   31.1840 C.2   261  PRO261      0.2575
    137  O         21.4640   46.4970   31.7290 O.2   261  PRO261     -0.2718
    138  CB        19.0580   45.1430   32.8310 C.3   261  PRO261      0.0282
    139  CG        19.1030   43.6650   33.0140 C.3   261  PRO261      0.0208
    140  CD        18.6000   43.0780   31.7250 C.3   261  PRO261      0.0893
    141  N         21.5350   44.6550   30.4330 N.am  262  ASN262     -0.1975
    142  CA        22.9720   44.7350   30.1970 C.3   262  ASN262      0.1688
    143  C         23.3070   45.5440   28.9490 C.2   262  ASN262      0.2292
    144  O         24.1350   45.1340   28.1350 O.2   262  ASN262     -0.2864
    145  CB        23.5770   43.3330   30.0940 C.3   262  ASN262      0.1181
    146  CG        23.9910   42.7770   31.4420 C.2   262  ASN262      0.2629
    147  OD1       24.9020   43.2960   32.0880 O.2   262  ASN262     -0.2716
    148  ND2       23.3220   41.7140   31.8740 N.am  262  ASN262     -0.0877
@<TRIPOS>BOND
     1   144   143    2
     2    24    21    1
     3    24    25    1
     4    23    22    2
     5    21    22    1
     6    21    20    1
     7    29    28    1
     8   143   142    1
     9    26    25    1
    10    26    27    1
    11    22    31   am
    12    28    27    2
    13    28    30    1
    14   145   142    1
    15   145   146    1
    16   142   141    1
    17   141   136   am
    18    31    32    1
    19   134   135    1
    20   134   140    1
    21   136   135    1
    22   136   137    2
    23   135   138    1
    24   146   148   am
    25   146   147    2
    26    32    33    1
    27    32    35    1
    28    33    34    2
    29   140   139    1
    30    37    39   ar
    31    37    36   ar
    32    39    41   ar
    33    16    17    1
    34    16    13    1
    35    14    15    2
    36    14    13    1
    37    19    17   ar
    38   138   139    1
    39    35    36    1
    40    36    38   ar
    41    41    40   ar
    42    17    18   ar
    43    13    12    1
    44    38    40   ar
    45    64    62    1
    46    86    88   ar
    47    86    85   ar
    48    88    89   ar
    49    62    63    1
    50    62    61    2
    51    89    87   ar
    52    85    84    1
    53    85    87   ar
    54    80    81    1
    55    84    81    1
    56    61    60    1
    57    81    82    1
    58   132   131    2
    59   112   111    1
    60   112   113    1
    61    60    59    1
    62     4     3    2
    63    49    51   ar
    64    49    47   ar
    65   133   131   am
    66     3     2    1
    67   111   105   am
    68   131   130    1
    69   114   113    2
    70    51    52   ar
    71    42    43    1
    72   113   115   am
    73   126   127    1
    74    82    83    2
    75    46    43    1
    76    46    47    1
    77    59    58    1
    78   107   108    1
    79   107   104    1
    80   106   105    2
    81   105   104    1
    82     1     2    1
    83    43    44    1
    84    47    48   ar
    85     2     5    1
    86   127   130    1
    87   127   128    1
    88   110   108   am
    89   108   109    2
    90   115   116    1
    91    96    95   ar
    92    52    53    1
    93    52    50   ar
    94   104   103    1
    95    58    55    1
    96   103   100   am
    97    48    50   ar
    98   128   129    2
    99    44    45    2
   100   116   117    1
   101   116   119    1
   102     5     6    1
   103    95    97   ar
   104    95    94    1
   105   120   119    1
   106   120   121    1
   107    55    54    1
   108    55    56    1
   109   117   118    2
   110   100   101    2
   111   100    99    1
   112   122   121    1
   113   122   123    2
   114    73    71   ar
   115     6     7   ar
   116     6     8   ar
   117    98    99    1
   118    98    92   am
   119    91    94    1
   120    91    92    1
   121    91    90    1
   122   125   123    1
   123     7     9   ar
   124    99   102    1
   125    92    93    2
   126   123   124    1
   127     8    10   ar
   128    56    57    2
   129    56    65   am
   130     9    11   ar
   131    71    72   ar
   132    71    70    1
   133    10    11   ar
   134    65    66    1
   135    70    69    1
   136    79    78    1
   137    69    66    1
   138    66    67    1
   139    78    75    1
   140    67    68    2
   141    77    76    2
   142    76    75    1
   143    75    74    1
