@<TRIPOS>MOLECULE
tmp/4besA01.pdb
 128 124 0 0 0
SMALL
GASTEIGER

@<TRIPOS>ATOM
      1  N         -7.7230   41.3310   -0.8110 N.3    90  VAL90      -0.1231
      2  CA        -7.6840   39.8800   -0.7870 C.3    90  VAL90       0.1692
      3  C         -8.2350   39.3900   -2.1190 C.2    90  VAL90       0.2593
      4  O         -9.2920   39.8460   -2.5660 O.2    90  VAL90      -0.2718
      5  CB        -8.3260   39.2380    0.4720 C.3    90  VAL90       0.0266
      6  CG1       -9.8320   39.3770    0.4620 C.3    90  VAL90       0.0020
      7  CG2       -7.9290   37.7730    0.6160 C.3    90  VAL90       0.0020
      8  N         -7.4790   38.5200   -2.7890 N.am   91  SER91      -0.1938
      9  CA        -7.8930   38.0100   -4.0930 C.3    91  SER91       0.2055
     10  C         -7.5690   36.5500   -4.2770 C.2    91  SER91       0.2643
     11  O         -6.6710   36.0090   -3.6350 O.2    91  SER91      -0.2714
     12  CB        -7.2440   38.8240   -5.2150 C.3    91  SER91       0.2130
     13  OG        -5.8290   38.7400   -5.1820 O.3    91  SER91      -0.2179
     14  N         -8.2660   35.9320   -5.2180 N.am   92  PHE92      -0.1973
     15  CA        -8.0360   34.5490   -5.6100 C.3    92  PHE92       0.1639
     16  C         -8.6070   34.3210   -6.9850 C.2    92  PHE92       0.2290
     17  O         -9.4030   35.1230   -7.4830 O.2    92  PHE92      -0.2864
     18  CB        -8.6120   33.5480   -4.5860 C.3    92  PHE92       0.0560
     19  CG       -10.0700   33.7260   -4.2440 C.ar   92  PHE92      -0.0200
     20  CD1      -10.4590   34.5500   -3.1910 C.ar   92  PHE92      -0.0042
     21  CD2      -11.0540   33.0310   -4.9380 C.ar   92  PHE92      -0.0042
     22  CE1      -11.8090   34.7150   -2.8800 C.ar   92  PHE92      -0.0003
     23  CE2      -12.4070   33.1850   -4.6080 C.ar   92  PHE92      -0.0003
     24  CZ       -12.7710   34.0300   -3.5860 C.ar   92  PHE92      -0.0000
     25  N        -15.2640   25.1930  -10.3950 N.3    98  ARG98      -0.1245
     26  CA       -15.8280   25.7090   -9.1460 C.3    98  ARG98       0.1563
     27  C        -16.9050   26.7590   -9.4300 C.2    98  ARG98       0.2260
     28  O        -17.2800   27.5520   -8.5560 O.2    98  ARG98      -0.2867
     29  CB       -14.6940   26.2550   -8.2610 C.3    98  ARG98       0.0307
     30  CG       -13.8890   25.1610   -7.5530 C.3    98  ARG98       0.0489
     31  CD       -12.6410   25.7550   -6.9610 C.3    98  ARG98       0.2205
     32  NE       -11.8360   24.7900   -6.2140 N.pl3  98  ARG98      -0.0865
     33  CZ       -10.7470   25.1150   -5.5230 C.cat  98  ARG98       0.5346
     34  NH1      -10.3260   26.3760   -5.4870 N.pl3  98  ARG98       0.1354
     35  NH2      -10.0870   24.1900   -4.8390 N.pl3  98  ARG98       0.1354
     36  N        -18.7430   34.0930    2.4490 N.3   211  GLU211     -0.1245
     37  CA       -17.5240   33.6530    1.7530 C.3   211  GLU211      0.1567
     38  C        -17.0980   34.6850    0.6770 C.2   211  GLU211      0.2260
     39  O        -15.9450   35.1050    0.6440 O.2   211  GLU211     -0.2867
     40  CB       -17.7700   32.2510    1.1390 C.3   211  GLU211      0.0388
     41  CG       -16.7830   31.7920    0.0860 C.3   211  GLU211      0.1160
     42  CD       -15.3310   31.8180    0.5090 C.2   211  GLU211      0.3649
     43  OE1      -15.0220   31.3770    1.6400 O.co2 211  GLU211     -0.2457
     44  OE2      -14.5040   32.2990   -0.2960 O.co2 211  GLU211     -0.2457
     45  N        -15.0010   38.5150    1.4480 N.3   214  HIS214     -0.1241
     46  CA       -13.9480   37.7020    2.0740 C.3   214  HIS214      0.1621
     47  C        -13.5280   38.5880    3.2690 C.2   214  HIS214      0.2264
     48  O        -12.6840   39.4520    3.0540 O.2   214  HIS214     -0.2867
     49  CB       -12.8100   37.5590    1.0390 C.3   214  HIS214      0.0745
     50  CG       -12.3100   36.1730    0.8010 C.ar  214  HIS214      0.0817
     51  ND1      -13.1540   35.0950    0.7780 N.ar  214  HIS214     -0.2268
     52  CD2      -11.0530   35.7520    0.5420 C.ar  214  HIS214      0.1154
     53  CE1      -12.3870   34.0510    0.5300 C.ar  214  HIS214      0.1986
     54  NE2      -11.1200   34.4010    0.3640 N.ar  214  HIS214     -0.2212
     55  N         -8.3390   38.2110    6.2100 N.3   217  ARG217     -0.1231
     56  CA        -7.1370   38.1880    5.3880 C.3   217  ARG217      0.1694
     57  C         -6.7830   36.7520    4.9900 C.2   217  ARG217      0.2592
     58  O         -6.2110   36.5320    3.9310 O.2   217  ARG217     -0.2718
     59  CB        -5.9690   38.8580    6.1450 C.3   217  ARG217      0.0321
     60  CG        -6.3950   39.6420    7.3980 C.3   217  ARG217      0.0489
     61  CD        -5.6010   40.9180    7.6070 C.3   217  ARG217      0.2205
     62  NE        -6.2050   41.7560    8.6470 N.pl3 217  ARG217     -0.0865
     63  CZ        -5.7100   41.9210    9.8720 C.cat 217  ARG217      0.5346
     64  NH1       -4.5770   41.3220   10.2260 N.pl3 217  ARG217      0.1354
     65  NH2       -6.3350   42.6980   10.7480 N.pl3 217  ARG217      0.1354
     66  N         -7.1690   35.7790    5.8240 N.am  218  ASP218     -0.1960
     67  CA        -6.8810   34.3520    5.6800 C.3   218  ASP218      0.1840
     68  C         -8.0310   33.5450    6.2720 C.2   218  ASP218      0.2622
     69  O         -8.8760   34.1040    6.9630 O.2   218  ASP218     -0.2715
     70  CB        -5.5860   34.0280    6.4750 C.3   218  ASP218      0.1450
     71  CG        -5.6880   34.3100    7.9810 C.2   218  ASP218      0.3671
     72  OD1       -6.1660   35.4200    8.3600 O.co2 218  ASP218     -0.2456
     73  OD2       -5.3040   33.4250    8.7780 O.co2 218  ASP218     -0.2456
     74  N         -8.0370   32.2280    6.0180 N.am  219  ALA219     -0.1963
     75  CA        -8.9710   31.2410    6.5720 C.3   219  ALA219      0.1728
     76  C        -10.4760   31.5220    6.4550 C.2   219  ALA219      0.2616
     77  O        -11.2260   31.2120    7.3770 O.2   219  ALA219     -0.2715
     78  CB        -8.5930   30.9010    8.0130 C.3   219  ALA219      0.0334
     79  N        -10.9230   32.0680    5.3180 N.am  220  ASN220     -0.1958
     80  CA       -12.3380   32.3490    5.1170 C.3   220  ASN220      0.1819
     81  C        -13.1440   31.0570    4.9170 C.2   220  ASN220      0.2622
     82  O        -14.2400   30.9310    5.4710 O.2   220  ASN220     -0.2715
     83  CB       -12.5500   33.3720    3.9990 C.3   220  ASN220      0.1195
     84  CG       -12.2490   34.7930    4.4200 C.2   220  ASN220      0.2630
     85  OD1      -12.9090   35.3630    5.2910 O.2   220  ASN220     -0.2716
     86  ND2      -11.2320   35.4000    3.8300 N.am  220  ASN220     -0.0877
     87  N        -12.5650   30.1000    4.1920 N.am  221  GLY221     -0.1940
     88  CA       -13.1620   28.7970    3.9300 C.3   221  GLY221      0.2014
     89  C        -13.4530   28.0250    5.1980 C.2   221  GLY221      0.2638
     90  O        -14.6020   27.6810    5.4610 O.2   221  GLY221     -0.2714
     91  N        -12.4240   27.7880    6.0140 N.am  222  ARG222     -0.1977
     92  CA       -12.5320   27.0640    7.2840 C.3   222  ARG222      0.1597
     93  C        -13.4970   27.7050    8.2640 C.2   222  ARG222      0.2287
     94  O        -14.2000   26.9970    8.9880 O.2   222  ARG222     -0.2864
     95  CB       -11.1580   26.9190    7.9560 C.3   222  ARG222      0.0334
     96  CG       -10.3490   25.7650    7.3910 C.3   222  ARG222      0.0492
     97  CD        -8.8860   25.8650    7.7930 C.3   222  ARG222      0.2205
     98  NE        -8.1290   26.7650    6.9230 N.pl3 222  ARG222     -0.0865
     99  CZ        -6.8680   27.1170    7.1260 C.cat 222  ARG222      0.5346
    100  NH1       -6.1910   26.6220    8.1560 N.pl3 222  ARG222      0.1354
    101  NH2       -6.2610   27.9420    6.2820 N.pl3 222  ARG222      0.1354
    102  N        -14.7410   24.3730   -1.7660 N.3   247  ASN247     -0.1240
    103  CA       -14.4280   25.6540   -2.3960 C.3   247  ASN247      0.1653
    104  C        -15.3210   25.9710   -3.5900 C.2   247  ASN247      0.2266
    105  O        -14.8450   26.2710   -4.6850 O.2   247  ASN247     -0.2867
    106  CB       -12.9570   25.6970   -2.8170 C.3   247  ASN247      0.1155
    107  CG       -12.0130   25.3930   -1.6710 C.2   247  ASN247      0.2627
    108  OD1      -11.8480   26.2010   -0.7570 O.2   247  ASN247     -0.2716
    109  ND2      -11.3890   24.2220   -1.7130 N.am  247  ASN247     -0.0877
    110  N        -18.3920   27.9090   -2.7560 N.3   249  PHE249     -0.1227
    111  CA       -19.2650   28.9460   -2.2010 C.3   249  PHE249      0.1736
    112  C        -18.9720   30.3630   -2.7070 C.2   249  PHE249      0.2595
    113  O        -19.1910   31.3430   -1.9940 O.2   249  PHE249     -0.2718
    114  CB       -19.2130   28.9200   -0.6700 C.3   249  PHE249      0.0547
    115  CG       -19.9840   27.7870   -0.0570 C.ar  249  PHE249     -0.0202
    116  CD1      -19.4660   26.5030   -0.0480 C.ar  249  PHE249     -0.0042
    117  CD2      -21.2280   28.0060    0.5120 C.ar  249  PHE249     -0.0042
    118  CE1      -20.1730   25.4580    0.5160 C.ar  249  PHE249     -0.0003
    119  CE2      -21.9410   26.9660    1.0780 C.ar  249  PHE249     -0.0003
    120  CZ       -21.4120   25.6900    1.0800 C.ar  249  PHE249     -0.0000
    121  N        -18.4830   30.4630   -3.9380 N.am  250  ASP250     -0.1974
    122  CA       -18.2430   31.7380   -4.5920 C.3   250  ASP250      0.1709
    123  C        -19.1060   31.8100   -5.8590 C.2   250  ASP250      0.2293
    124  O        -20.0150   32.6330   -5.9390 O.2   250  ASP250     -0.2864
    125  CB       -16.7420   31.9550   -4.9160 C.3   250  ASP250      0.1436
    126  CG       -15.8030   31.6810   -3.7470 C.2   250  ASP250      0.3671
    127  OD1      -15.6980   32.5440   -2.8560 O.co2 250  ASP250     -0.2456
    128  OD2      -15.2070   30.5720   -3.7050 O.co2 250  ASP250     -0.2456
@<TRIPOS>BOND
     1    25    26    1
     2    27    26    1
     3    27    28    2
     4    26    29    1
     5    29    30    1
     6    30    31    1
     7    17    16    2
     8    16    15    1
     9    31    32    1
    10    32    33    2
    11   124   123    2
    12   123   122    1
    13    15    14    1
    14    15    18    1
    15    33    34    1
    16    33    35    1
    17    14    10   am
    18    12    13    1
    19    12     9    1
    20    21    23   ar
    21    21    19   ar
    22   125   122    1
    23   125   126    1
    24   105   104    2
    25    23    24   ar
    26   122   121    1
    27    18    19    1
    28    10     9    1
    29    10    11    2
    30    19    20   ar
    31     9     8    1
    32   121   112   am
    33   126   128   ar
    34   126   127   ar
    35   104   103    1
    36    24    22   ar
    37    20    22   ar
    38   106   103    1
    39   106   107    1
    40     8     3   am
    41   110   111    1
    42   112   111    1
    43   112   113    2
    44     4     3    2
    45   103   102    1
    46   111   114    1
    47     3     2    1
    48   109   107   am
    49   107   108    2
    50     1     2    1
    51     2     5    1
    52   114   115    1
    53    44    42   ar
    54   115   116   ar
    55   115   117   ar
    56   116   118   ar
    57    41    42    1
    58    41    40    1
    59    54    53   ar
    60    54    52   ar
    61     6     5    1
    62     5     7    1
    63    42    43   ar
    64   117   119   ar
    65   118   120   ar
    66    53    51   ar
    67    52    50   ar
    68    39    38    2
    69    38    37    1
    70    51    50   ar
    71    50    49    1
    72    49    46    1
    73   119   120   ar
    74    40    37    1
    75    45    46    1
    76    37    36    1
    77    46    47    1
    78    48    47    2
    79    86    84   am
    80    88    87    1
    81    88    89    1
    82    58    57    2
    83    83    84    1
    84    83    80    1
    85    87    81   am
    86    84    85    2
    87    81    80    1
    88    81    82    2
    89    57    56    1
    90    57    66   am
    91    80    79    1
    92    89    90    2
    93    89    91   am
    94    79    76   am
    95    56    59    1
    96    56    55    1
    97    67    66    1
    98    67    68    1
    99    67    70    1
   100    91    92    1
   101    74    68   am
   102    74    75    1
   103    59    60    1
   104    68    69    2
   105   101    99    1
   106    76    75    1
   107    76    77    2
   108    70    71    1
   109    75    78    1
   110    98    99    2
   111    98    97    1
   112    99   100    1
   113    92    95    1
   114    92    93    1
   115    96    97    1
   116    96    95    1
   117    60    61    1
   118    61    62    1
   119    71    72   ar
   120    71    73   ar
   121    93    94    2
   122    62    63    2
   123    63    64    1
   124    63    65    1
