@<TRIPOS>MOLECULE
tmp/4betA00.pdb
 207 198 0 0 0
SMALL
GASTEIGER

@<TRIPOS>ATOM
      1  N         10.6910  -18.8640   33.0530 N.3    22  PHE22      -0.1241
      2  CA        10.6320  -19.9970   32.1310 C.3    22  PHE22       0.1605
      3  C         11.2790  -19.7370   30.7850 C.2    22  PHE22       0.2264
      4  O         11.7710  -20.6770   30.1680 O.2    22  PHE22      -0.2867
      5  CB         9.1680  -20.4430   31.9360 C.3    22  PHE22       0.0534
      6  CG         8.4590  -20.6630   33.2520 C.ar   22  PHE22      -0.0203
      7  CD1        8.6820  -21.8210   33.9950 C.ar   22  PHE22      -0.0042
      8  CD2        7.6260  -19.6810   33.7860 C.ar   22  PHE22      -0.0042
      9  CE1        8.0730  -21.9990   35.2400 C.ar   22  PHE22      -0.0003
     10  CE2        7.0220  -19.8570   35.0330 C.ar   22  PHE22      -0.0003
     11  CZ         7.2590  -21.0100   35.7560 C.ar   22  PHE22      -0.0000
     12  N         14.1750  -18.6000   28.5180 N.3    24  ASP24      -0.1239
     13  CA        15.6370  -18.3500   28.5450 C.3    24  ASP24       0.1674
     14  C         15.9750  -16.9410   28.1020 C.2    24  ASP24       0.2266
     15  O         15.5140  -16.5130   27.0480 O.2    24  ASP24      -0.2867
     16  CB        16.3880  -19.3120   27.5930 C.3    24  ASP24       0.1410
     17  CG        16.0670  -20.7870   27.6960 C.2    24  ASP24       0.3668
     18  OD1       15.1440  -21.1480   28.4660 O.co2  24  ASP24      -0.2456
     19  OD2       16.7240  -21.5830   26.9890 O.co2  24  ASP24      -0.2456
     20  N         18.5320  -15.8110   26.7700 N.3    26  ARG26      -0.1231
     21  CA        19.1210  -15.9160   25.4280 C.3    26  ARG26       0.1694
     22  C         18.1410  -15.6570   24.2910 C.2    26  ARG26       0.2592
     23  O         18.5890  -15.3100   23.1990 O.2    26  ARG26      -0.2718
     24  CB        19.8730  -17.2570   25.2330 C.3    26  ARG26       0.0321
     25  CG        18.9820  -18.4710   25.1650 C.3    26  ARG26       0.0489
     26  CD        19.7450  -19.7390   25.3470 C.3    26  ARG26       0.2205
     27  NE        18.8600  -20.9090   25.3260 N.pl3  26  ARG26      -0.0865
     28  CZ        18.5670  -21.6220   24.2370 C.cat  26  ARG26       0.5346
     29  NH1       19.0910  -21.2990   23.0590 N.pl3  26  ARG26       0.1354
     30  NH2       17.7430  -22.6570   24.3170 N.pl3  26  ARG26       0.1354
     31  N         16.8120  -15.8180   24.5400 N.am   27  PHE27      -0.1976
     32  CA        15.7590  -15.6290   23.5280 C.3    27  PHE27       0.1639
     33  C         15.2230  -14.2060   23.4180 C.2    27  PHE27       0.2290
     34  O         14.8330  -13.7900   22.3280 O.2    27  PHE27      -0.2864
     35  CB        14.5570  -16.5240   23.8280 C.3    27  PHE27       0.0560
     36  CG        14.7660  -18.0080   23.8760 C.ar   27  PHE27      -0.0200
     37  CD1       15.4800  -18.6600   22.8730 C.ar   27  PHE27      -0.0042
     38  CD2       14.1120  -18.7860   24.8280 C.ar   27  PHE27      -0.0042
     39  CE1       15.5930  -20.0510   22.8650 C.ar   27  PHE27      -0.0003
     40  CE2       14.2280  -20.1790   24.8190 C.ar   27  PHE27      -0.0003
     41  CZ        14.9920  -20.7950   23.8590 C.ar   27  PHE27      -0.0000
     42  N          8.7120  -18.3210   22.5420 N.3    37  TYR37      -0.1241
     43  CA         8.6070  -19.4280   23.4780 C.3    37  TYR37       0.1605
     44  C          7.1610  -19.9670   23.5160 C.2    37  TYR37       0.2264
     45  O          6.9710  -21.1390   23.1670 O.2    37  TYR37      -0.2867
     46  CB         9.1370  -18.9930   24.8430 C.3    37  TYR37       0.0534
     47  CG         9.3310  -20.0950   25.8510 C.ar   37  TYR37      -0.0201
     48  CD1       10.5520  -20.7690   25.9580 C.ar   37  TYR37      -0.0009
     49  CD2        8.3450  -20.3880   26.7840 C.ar   37  TYR37      -0.0009
     50  CE1       10.7550  -21.7540   26.9300 C.ar   37  TYR37       0.0417
     51  CE2        8.5310  -21.3800   27.7520 C.ar   37  TYR37       0.0417
     52  CZ         9.7310  -22.0710   27.8110 C.ar   37  TYR37       0.1957
     53  OH         9.8950  -23.0620   28.7490 O.3    37  TYR37      -0.2866
     54  N          5.9620  -21.8040   20.1910 N.3    40  ARG40      -0.1231
     55  CA         6.4390  -23.1520   19.8690 C.3    40  ARG40       0.1694
     56  C          5.5920  -24.2580   20.5420 C.2    40  ARG40       0.2591
     57  O          5.4430  -25.3450   19.9720 O.2    40  ARG40      -0.2718
     58  CB         7.9340  -23.3160   20.1640 C.3    40  ARG40       0.0321
     59  CG         8.8150  -22.6080   19.1470 C.3    40  ARG40       0.0489
     60  CD        10.2830  -22.8560   19.4430 C.3    40  ARG40       0.2205
     61  NE        11.0230  -21.6320   19.7880 N.pl3  40  ARG40      -0.0865
     62  CZ        11.0380  -21.0820   20.9940 C.cat  40  ARG40       0.5346
     63  NH1       10.3290  -21.6060   21.9760 N.pl3  40  ARG40       0.1354
     64  NH2       11.7640  -20.0040   21.2260 N.pl3  40  ARG40       0.1354
     65  N          5.0160  -23.9360   21.6830 N.am   41  GLU41      -0.1979
     66  CA         4.1980  -24.8500   22.4250 C.3    41  GLU41       0.1602
     67  C          3.0980  -24.1190   23.1420 C.2    41  GLU41       0.2287
     68  O          3.1280  -23.9360   24.3410 O.2    41  GLU41      -0.2864
     69  CB         5.0410  -25.6000   23.4090 C.3    41  GLU41       0.0415
     70  CG         6.0510  -26.4810   22.7360 C.3    41  GLU41       0.1163
     71  CD         6.7530  -27.3870   23.6880 C.2    41  GLU41       0.3649
     72  OE1        6.3600  -27.4590   24.8550 O.co2  41  GLU41      -0.2457
     73  OE2        7.7070  -28.0380   23.2550 O.co2  41  GLU41      -0.2457
     74  N          2.1900  -23.4830   27.2030 N.3    44  CYS44      -0.1235
     75  CA         3.2210  -23.9160   28.1290 C.3    44  CYS44       0.1677
     76  C          3.4910  -22.9870   29.2750 C.2    44  CYS44       0.2270
     77  O          3.6710  -23.4310   30.3870 O.2    44  CYS44      -0.2867
     78  CB         4.5050  -24.2140   27.3990 C.3    44  CYS44       0.0956
     79  SG         5.0840  -22.8720   26.3990 S.3    44  CYS44      -0.0801
     80  N         15.4020  -41.3260   24.5100 N.3   101  VAL101     -0.1245
     81  CA        15.5150  -39.8860   24.6250 C.3   101  VAL101      0.1561
     82  C         16.9520  -39.5040   24.3060 C.2   101  VAL101      0.2260
     83  O         17.8840  -39.9690   24.9400 O.2   101  VAL101     -0.2867
     84  CB        14.8960  -39.2260   25.8840 C.3   101  VAL101      0.0252
     85  CG1       15.3730  -39.8910   27.1420 C.3   101  VAL101      0.0019
     86  CG2       15.1940  -37.7370   25.9420 C.3   101  VAL101      0.0019
     87  N         19.5560  -36.2370   22.5010 N.3   103  PHE103     -0.1227
     88  CA        19.7500  -34.8540   22.1150 C.3   103  PHE103      0.1736
     89  C         21.2260  -34.6160   21.9060 C.2   103  PHE103      0.2596
     90  O         22.0700  -35.3920   22.3730 O.2   103  PHE103     -0.2718
     91  CB        19.1790  -33.8830   23.1620 C.3   103  PHE103      0.0547
     92  CG        19.5710  -34.1050   24.6050 C.ar  103  PHE103     -0.0202
     93  CD1       20.7050  -33.5030   25.1330 C.ar  103  PHE103     -0.0042
     94  CD2       18.7550  -34.8370   25.4580 C.ar  103  PHE103     -0.0042
     95  CE1       21.0430  -33.6650   26.4820 C.ar  103  PHE103     -0.0003
     96  CE2       19.0920  -35.0050   26.8010 C.ar  103  PHE103     -0.0003
     97  CZ        20.2270  -34.4080   27.3080 C.ar  103  PHE103     -0.0000
     98  N         21.5230  -33.5430   21.1980 N.am  104  GLY104     -0.1942
     99  CA        22.8890  -33.1330   20.9250 C.3   104  GLY104      0.2014
    100  C         23.3410  -32.0690   21.8940 C.2   104  GLY104      0.2638
    101  O         22.5150  -31.3290   22.4360 O.2   104  GLY104     -0.2714
    102  N         24.6500  -32.0160   22.1580 N.am  105  ILE105     -0.1977
    103  CA        25.2000  -31.0370   23.0750 C.3   105  ILE105      0.1596
    104  C         26.3300  -30.2580   22.4030 C.2   105  ILE105      0.2287
    105  O         27.2850  -30.8570   21.8910 O.2   105  ILE105     -0.2864
    106  CB        25.6030  -31.6130   24.4880 C.3   105  ILE105      0.0276
    107  CG1       24.5720  -32.6450   25.0160 C.3   105  ILE105      0.0022
    108  CG2       25.7750  -30.4630   25.5060 C.3   105  ILE105      0.0022
    109  CD1       25.1290  -33.8460   25.5480 C.3   105  ILE105      0.0001
    110  N         27.5510  -25.5110   25.9500 N.3   109  ARG109     -0.1245
    111  CA        26.7340  -26.0320   27.0640 C.3   109  ARG109      0.1563
    112  C         27.5270  -27.0600   27.8870 C.2   109  ARG109      0.2260
    113  O         26.9710  -27.7540   28.7460 O.2   109  ARG109     -0.2867
    114  CB        25.4250  -26.6400   26.5240 C.3   109  ARG109      0.0307
    115  CG        24.3990  -25.6100   26.0840 C.3   109  ARG109      0.0489
    116  CD        23.1880  -26.2620   25.4780 C.3   109  ARG109      0.2205
    117  NE        22.1540  -25.2850   25.1560 N.pl3 109  ARG109     -0.0865
    118  CZ        20.9800  -25.5810   24.6040 C.cat 109  ARG109      0.5346
    119  NH1       20.6630  -26.8400   24.3360 N.pl3 109  ARG109      0.1354
    120  NH2       20.1040  -24.6220   24.3420 N.pl3 109  ARG109      0.1354
    121  N         18.4050  -34.3430   35.4100 N.3   222  GLU222     -0.1245
    122  CA        18.3520  -33.8620   34.0310 C.3   222  GLU222      0.1567
    123  C         19.0660  -34.8720   33.1400 C.2   222  GLU222      0.2260
    124  O         18.5250  -35.2600   32.1180 O.2   222  GLU222     -0.2867
    125  CB        18.9130  -32.4170   33.8750 C.3   222  GLU222      0.0388
    126  CG        19.1610  -31.9750   32.4340 C.3   222  GLU222      0.1160
    127  CD        17.9990  -32.0800   31.4600 C.2   222  GLU222      0.3649
    128  OE1       16.9510  -31.4470   31.7270 O.co2 222  GLU222     -0.2457
    129  OE2       18.1380  -32.7750   30.4230 O.co2 222  GLU222     -0.2457
    130  N          9.7570  -38.3450   28.6420 N.3   228  ARG228     -0.1231
    131  CA        10.0660  -38.2040   27.2110 C.3   228  ARG228      0.1694
    132  C         10.4440  -36.7480   26.8290 C.2   228  ARG228      0.2592
    133  O         11.4010  -36.5490   26.0820 O.2   228  ARG228     -0.2718
    134  CB         8.9650  -38.7860   26.3270 C.3   228  ARG228      0.0321
    135  CG         8.3600  -40.0710   26.8590 C.3   228  ARG228      0.0489
    136  CD         8.0290  -40.9930   25.7210 C.3   228  ARG228      0.2205
    137  NE         6.7050  -41.5920   25.8930 N.pl3 228  ARG228     -0.0865
    138  CZ         5.7150  -41.4850   25.0120 C.cat 228  ARG228      0.5346
    139  NH1        5.8910  -40.8120   23.8790 N.pl3 228  ARG228      0.1354
    140  NH2        4.5480  -42.0650   25.2490 N.pl3 228  ARG228      0.1354
    141  N          9.7300  -35.7490   27.3530 N.am  229  ASP229     -0.1960
    142  CA        10.1120  -34.3430   27.1780 C.3   229  ASP229      0.1840
    143  C          9.7050  -33.6100   28.4420 C.2   229  ASP229      0.2622
    144  O          9.3560  -34.2760   29.4180 O.2   229  ASP229     -0.2715
    145  CB         9.5670  -33.6970   25.8790 C.3   229  ASP229      0.1450
    146  CG        10.3410  -32.4270   25.4710 C.2   229  ASP229      0.3671
    147  OD1       11.3780  -32.5520   24.7710 O.co2 229  ASP229     -0.2456
    148  OD2        9.9470  -31.3220   25.9130 O.co2 229  ASP229     -0.2456
    149  N          9.7740  -32.2590   28.4540 N.am  230  ALA230     -0.1963
    150  CA         9.4820  -31.3770   29.6020 C.3   230  ALA230      0.1728
    151  C         10.3870  -31.7180   30.7960 C.2   230  ALA230      0.2616
    152  O          9.9890  -31.5870   31.9550 O.2   230  ALA230     -0.2715
    153  CB         8.0080  -31.4460   29.9940 C.3   230  ALA230      0.0334
    154  N         11.5900  -32.2230   30.4970 N.am  231  ASN231     -0.1958
    155  CA        12.5510  -32.5920   31.5150 C.3   231  ASN231      0.1819
    156  C         13.1630  -31.3380   32.1350 C.2   231  ASN231      0.2622
    157  O         13.3320  -31.2670   33.3510 O.2   231  ASN231     -0.2715
    158  CB        13.6340  -33.4960   30.9230 C.3   231  ASN231      0.1195
    159  CG        13.2380  -34.9340   30.8600 C.2   231  ASN231      0.2630
    160  OD1       12.9510  -35.5540   31.8770 O.2   231  ASN231     -0.2716
    161  ND2       13.2260  -35.4970   29.6670 N.am  231  ASN231     -0.0877
    162  N         13.4320  -30.3500   31.2930 N.am  232  GLY232     -0.1940
    163  CA        14.0070  -29.0770   31.6890 C.3   232  GLY232      0.2014
    164  C         13.0980  -28.2790   32.5790 C.2   232  GLY232      0.2638
    165  O         13.5110  -27.8360   33.6550 O.2   232  GLY232     -0.2714
    166  N         11.8600  -28.0870   32.1260 N.am  233  ARG233     -0.1977
    167  CA        10.8550  -27.3290   32.8520 C.3   233  ARG233      0.1597
    168  C         10.6140  -27.9300   34.2270 C.2   233  ARG233      0.2287
    169  O         10.6660  -27.2080   35.2360 O.2   233  ARG233     -0.2864
    170  CB         9.5660  -27.2540   32.0470 C.3   233  ARG233      0.0334
    171  CG         9.5650  -26.0710   31.0950 C.3   233  ARG233      0.0492
    172  CD         8.4470  -26.1590   30.0910 C.3   233  ARG233      0.2205
    173  NE         8.7250  -27.1680   29.0750 N.pl3 233  ARG233     -0.0865
    174  CZ         7.9520  -27.3930   28.0200 C.cat 233  ARG233      0.5346
    175  NH1        6.8490  -26.6760   27.8290 N.pl3 233  ARG233      0.1354
    176  NH2        8.2810  -28.3280   27.1390 N.pl3 233  ARG233      0.1354
    177  N         13.2270  -25.3790   36.0220 N.3   237  ASN237     -0.1240
    178  CA        12.3050  -24.2390   36.1410 C.3   237  ASN237      0.1653
    179  C         11.2620  -24.4450   37.2500 C.2   237  ASN237      0.2266
    180  O         10.6760  -23.4720   37.7450 O.2   237  ASN237     -0.2867
    181  CB        11.6380  -23.9240   34.8000 C.3   237  ASN237      0.1155
    182  CG        12.6300  -23.6450   33.7010 C.2   237  ASN237      0.2627
    183  OD1       13.4290  -22.7060   33.7590 O.2   237  ASN237     -0.2716
    184  ND2       12.6300  -24.4820   32.6920 N.am  237  ASN237     -0.0877
    185  N         19.4050  -22.0920   30.6220 N.3   257  PRO257     -0.2102
    186  CA        19.3090  -23.1300   31.6640 C.3   257  PRO257      0.1504
    187  C         19.7800  -24.5070   31.1790 C.2   257  PRO257      0.2575
    188  O         19.9730  -25.4060   31.9990 O.2   257  PRO257     -0.2718
    189  CB        17.8040  -23.1500   31.9690 C.3   257  PRO257      0.0282
    190  CG        17.1840  -22.8770   30.6520 C.3   257  PRO257      0.0208
    191  CD        18.0870  -21.8360   30.0070 C.3   257  PRO257      0.0893
    192  N         19.9210  -24.6840   29.8530 N.am  258  ASN258     -0.1975
    193  CA        20.2950  -25.9560   29.2290 C.3   258  ASN258      0.1688
    194  C         21.7730  -26.3390   29.3790 C.2   258  ASN258      0.2292
    195  O         22.3730  -26.8330   28.4160 O.2   258  ASN258     -0.2864
    196  CB        19.8110  -26.0410   27.7700 C.3   258  ASN258      0.1181
    197  CG        18.3400  -25.7980   27.6350 C.2   258  ASN258      0.2629
    198  OD1       17.5120  -26.6730   27.9250 O.2   258  ASN258     -0.2716
    199  ND2       17.9790  -24.5740   27.2930 N.am  258  ASN258     -0.0877
    200  N         23.4840  -30.7640   31.9430 N.3   261  ASP261     -0.1239
    201  CA        23.9530  -32.0590   31.5050 C.3   261  ASP261      0.1674
    202  C         25.4700  -32.1110   31.6390 C.2   261  ASP261      0.2266
    203  O         25.9910  -32.9710   32.3470 O.2   261  ASP261     -0.2867
    204  CB        23.5240  -32.3520   30.0540 C.3   261  ASP261      0.1410
    205  CG        22.0710  -32.0580   29.7760 C.2   261  ASP261      0.3668
    206  OD1       21.7560  -30.8940   29.3790 O.co2 261  ASP261     -0.2456
    207  OD2       21.2450  -32.9820   29.9300 O.co2 261  ASP261     -0.2456
@<TRIPOS>BOND
     1    59    60    1
     2    59    58    1
     3    60    61    1
     4    61    62    2
     5    55    58    1
     6    55    54    1
     7    55    56    1
     8    57    56    2
     9    56    65   am
    10    99    98    1
    11    99   100    1
    12    62    64    1
    13    62    63    1
    14    98    89   am
    15    65    66    1
    16   105   104    2
    17   100   102   am
    18   100   101    2
    19    89    88    1
    20    89    90    2
    21    88    87    1
    22    88    91    1
    23   102   103    1
    24    34    33    2
    25   104   103    1
    26    66    67    1
    27    66    69    1
    28    42    43    1
    29    70    69    1
    30    70    71    1
    31    39    37   ar
    32    39    41   ar
    33    37    36   ar
    34    29    28    1
    35   103   106    1
    36    67    68    2
    37    91    92    1
    38    45    44    2
    39    23    22    2
    40    73    71   ar
    41    33    32    1
    42    43    44    1
    43    43    46    1
    44    32    35    1
    45    32    31    1
    46    71    72   ar
    47    35    36    1
    48    41    40   ar
    49    36    38   ar
    50   139   138    1
    51    28    30    1
    52    28    27    2
    53    22    31   am
    54    22    21    1
    55    82    81    1
    56    82    83    2
    57   119   118    1
    58   120   118    1
    59   106   107    1
    60   106   108    1
    61    80    81    1
    62   118   117    2
    63    92    93   ar
    64    92    94   ar
    65    81    84    1
    66   147   146   ar
    67    40    38   ar
    68    46    47    1
    69   138   140    1
    70   138   137    2
    71   107   109    1
    72    93    95   ar
    73   117   116    1
    74    25    24    1
    75    25    26    1
    76    24    21    1
    77    27    26    1
    78    21    20    1
    79    94    96   ar
    80   146   145    1
    81   146   148   ar
    82   116   115    1
    83   136   137    1
    84   136   135    1
    85    47    48   ar
    86    47    49   ar
    87   145   142    1
    88    84    86    1
    89    84    85    1
    90   110   111    1
    91    48    50   ar
    92   133   132    2
    93   115   114    1
    94   134   135    1
    95   134   131    1
    96    79    78    1
    97    95    97   ar
    98   114   111    1
    99    49    51   ar
   100    96    97   ar
   101   132   131    1
   102   132   141   am
   103    50    52   ar
   104    19    17   ar
   105    15    14    2
   106   111   112    1
   107   176   174    1
   108   142   141    1
   109   142   143    1
   110    74    75    1
   111   131   130    1
   112   199   197   am
   113    78    75    1
   114    16    17    1
   115    16    13    1
   116   197   196    1
   117   197   198    2
   118    17    18   ar
   119    51    52   ar
   120   196   193    1
   121    52    53    1
   122   175   174    1
   123   112   113    2
   124   174   173    2
   125    14    13    1
   126    75    76    1
   127   195   194    2
   128   143   149   am
   129   143   144    2
   130   149   150    1
   131    12    13    1
   132   173   172    1
   133   193   194    1
   134   193   192    1
   135    76    77    2
   136   206   205   ar
   137   150   153    1
   138   150   151    1
   139   161   159   am
   140   205   207   ar
   141   205   204    1
   142   192   187   am
   143   191   185    1
   144   191   190    1
   145   204   201    1
   146   172   171    1
   147     4     3    2
   148   129   127   ar
   149   154   151   am
   150   154   155    1
   151   185   186    1
   152   190   189    1
   153     3     2    1
   154   151   152    2
   155   159   158    1
   156   159   160    2
   157   158   155    1
   158   171   170    1
   159   187   186    1
   160   187   188    2
   161   162   163    1
   162   162   156   am
   163   127   128   ar
   164   127   126    1
   165   201   202    1
   166   201   200    1
   167   155   156    1
   168   202   203    2
   169   186   189    1
   170   163   164    1
   171     5     2    1
   172     5     6    1
   173   170   167    1
   174   124   123    2
   175   166   164   am
   176   166   167    1
   177     2     1    1
   178   156   157    2
   179   126   125    1
   180   164   165    2
   181   184   182   am
   182   167   168    1
   183   123   122    1
   184     6     8   ar
   185     6     7   ar
   186   182   183    2
   187   182   181    1
   188     8    10   ar
   189   125   122    1
   190     7     9   ar
   191   122   121    1
   192   168   169    2
   193   181   178    1
   194    10    11   ar
   195     9    11   ar
   196   177   178    1
   197   178   179    1
   198   179   180    2
