@<TRIPOS>MOLECULE
tmp/4beuA00.pdb
 146 137 0 0 0
SMALL
GASTEIGER

@<TRIPOS>ATOM
      1  N         17.2490   21.5370   11.2780 N.3    49  ILE49      -0.1245
      2  CA        15.8340   21.8090   11.4470 C.3    49  ILE49       0.1561
      3  C         15.0930   21.5630   10.1410 C.2    49  ILE49       0.2260
      4  O         15.4100   22.1570    9.1000 O.2    49  ILE49      -0.2867
      5  CB        15.6190   23.2250   11.9820 C.3    49  ILE49       0.0252
      6  CG1       16.4060   23.4410   13.2830 C.3    49  ILE49       0.0019
      7  CG2       14.1450   23.4670   12.1860 C.3    49  ILE49       0.0019
      8  CD1       16.1050   22.4060   14.3790 C.3    49  ILE49       0.0001
      9  N         11.4850   21.2150    9.8230 N.3    51  LYS51      -0.1245
     10  CA        10.0650   21.4870    9.9140 C.3    51  LYS51       0.1561
     11  C          9.4910   21.8990    8.5500 C.2    51  LYS51       0.2260
     12  O         10.2260   22.2780    7.6280 O.2    51  LYS51      -0.2867
     13  CB         9.8200   22.5610   10.9690 C.3    51  LYS51       0.0271
     14  CG        10.3540   23.8940   10.5780 C.3    51  LYS51       0.0035
     15  CD        10.4620   24.8090   11.7740 C.3    51  LYS51       0.0206
     16  CE        10.7340   26.2420   11.3870 C.3    51  LYS51       0.1093
     17  NZ        11.3360   26.9590   12.5680 N.3    51  LYS51      -0.1314
     18  N         11.3750   22.5170    5.0080 N.3    55  TYR55      -0.1241
     19  CA        11.2470   23.8400    4.4000 C.3    55  TYR55       0.1605
     20  C         10.7580   23.7130    2.9480 C.2    55  TYR55       0.2264
     21  O         11.1860   24.4650    2.0560 O.2    55  TYR55      -0.2867
     22  CB        12.5450   24.6340    4.4970 C.3    55  TYR55       0.0534
     23  CG        12.8590   25.2060    5.8740 C.ar   55  TYR55      -0.0201
     24  CD1       12.7970   24.4230    7.0240 C.ar   55  TYR55      -0.0009
     25  CD2       13.3000   26.5260    6.0150 C.ar   55  TYR55      -0.0009
     26  CE1       13.1490   24.9550    8.2790 C.ar   55  TYR55       0.0417
     27  CE2       13.6490   27.0430    7.2540 C.ar   55  TYR55       0.0417
     28  CZ        13.5630   26.2660    8.3740 C.ar   55  TYR55       0.1957
     29  OH        13.8990   26.7440    9.6360 O.3    55  TYR55      -0.2866
     30  N         10.3380   21.4110   17.5890 N.3    97  VAL97      -0.1245
     31  CA        10.7100   22.8140   17.7140 C.3    97  VAL97       0.1561
     32  C          9.5570   23.7510   18.0340 C.2    97  VAL97       0.2260
     33  O          9.7220   24.9770   17.9750 O.2    97  VAL97      -0.2867
     34  CB        11.4840   23.3190   16.4790 C.3    97  VAL97       0.0252
     35  CG1       12.7700   22.5210   16.2990 C.3    97  VAL97       0.0019
     36  CG2       10.6280   23.2320   15.2490 C.3    97  VAL97       0.0019
     37  N          9.3330   20.1280   23.5380 N.3   116  LEU116     -0.1245
     38  CA         9.8010   21.4650   23.8750 C.3   116  LEU116      0.1561
     39  C          8.7480   22.1090   24.7310 C.2   116  LEU116      0.2260
     40  O          7.6530   22.4240   24.2370 O.2   116  LEU116     -0.2867
     41  CB         9.9460   22.2960   22.6050 C.3   116  LEU116      0.0270
     42  CG        10.4990   23.7110   22.8190 C.3   116  LEU116      0.0019
     43  CD1       11.9130   23.6780   23.3470 C.3   116  LEU116      0.0001
     44  CD2       10.4320   24.5160   21.5380 C.3   116  LEU116      0.0001
     45  N          6.6970   33.0210   22.8400 N.3   150  ARG150     -0.1231
     46  CA         6.0960   32.0050   21.9660 C.3   150  ARG150      0.1694
     47  C          6.0120   30.6470   22.6820 C.2   150  ARG150      0.2592
     48  O          5.0010   30.3620   23.3130 O.2   150  ARG150     -0.2718
     49  CB         6.8480   31.9510   20.6330 C.3   150  ARG150      0.0321
     50  CG         6.2190   31.0610   19.5660 C.3   150  ARG150      0.0489
     51  CD         6.9470   31.1760   18.2210 C.3   150  ARG150      0.2205
     52  NE         8.2930   30.6170   18.3160 N.pl3 150  ARG150     -0.0865
     53  CZ         9.0450   30.3220   17.2760 C.cat 150  ARG150      0.5346
     54  NH1        8.6350   30.5810   16.0520 N.pl3 150  ARG150      0.1354
     55  NH2       10.2300   29.7560   17.4540 N.pl3 150  ARG150      0.1354
     56  N          7.0500   29.8170   22.6070 N.am  151  ASN151     -0.1974
     57  CA         6.9920   28.4910   23.2170 C.3   151  ASN151      0.1688
     58  C          7.5650   28.4230   24.6410 C.2   151  ASN151      0.2292
     59  O          7.4640   27.3870   25.3010 O.2   151  ASN151     -0.2864
     60  CB         7.7790   27.4940   22.3680 C.3   151  ASN151      0.1181
     61  CG         7.2110   27.3400   20.9880 C.2   151  ASN151      0.2629
     62  OD1        6.0290   27.0180   20.8130 O.2   151  ASN151     -0.2716
     63  ND2        8.0370   27.5720   19.9870 N.am  151  ASN151     -0.0877
     64  N         16.8580   26.0110   26.2400 N.3   179  MET179     -0.1245
     65  CA        17.0290   26.7460   24.9930 C.3   179  MET179      0.1570
     66  C         16.3350   28.0800   25.0460 C.2   179  MET179      0.2261
     67  O         15.4880   28.3330   25.8860 O.2   179  MET179     -0.2867
     68  CB        16.4970   25.9060   23.8050 C.3   179  MET179      0.0387
     69  CG        15.0020   25.6000   23.8350 C.3   179  MET179      0.0595
     70  SD        13.9520   26.9800   23.2380 S.3   179  MET179     -0.1393
     71  CE        14.1240   26.8010   21.4710 C.3   179  MET179      0.0692
     72  N         15.4360   31.3540   21.7440 N.3   181  HIS181     -0.1241
     73  CA        15.3910   31.6260   20.3110 C.3   181  HIS181      0.1621
     74  C         15.2690   33.1270   20.1490 C.2   181  HIS181      0.2264
     75  O         14.5860   33.7890   20.9430 O.2   181  HIS181     -0.2867
     76  CB        14.1780   30.9200   19.7060 C.3   181  HIS181      0.0745
     77  CG        14.1210   30.9180   18.2130 C.ar  181  HIS181      0.0817
     78  ND1       14.9700   30.1810   17.4190 N.ar  181  HIS181     -0.2268
     79  CD2       13.2540   31.5220   17.3750 C.ar  181  HIS181      0.1154
     80  CE1       14.6230   30.3320   16.1500 C.ar  181  HIS181      0.1986
     81  NE2       13.5840   31.1440   16.0950 N.ar  181  HIS181     -0.2212
     82  N         17.7620   39.5520   13.4600 N.3   185  TYR185     -0.1241
     83  CA        19.1310   39.3160   13.0640 C.3   185  TYR185      0.1605
     84  C         20.0330   40.4560   13.5450 C.2   185  TYR185      0.2264
     85  O         20.9960   40.8070   12.8620 O.2   185  TYR185     -0.2867
     86  CB        19.2280   39.1980   11.5500 C.3   185  TYR185      0.0534
     87  CG        18.5270   38.0070   10.8810 C.ar  185  TYR185     -0.0201
     88  CD1       18.0700   36.9020   11.5910 C.ar  185  TYR185     -0.0009
     89  CD2       18.3740   37.9900    9.5080 C.ar  185  TYR185     -0.0009
     90  CE1       17.4530   35.8180   10.9300 C.ar  185  TYR185      0.0417
     91  CE2       17.7740   36.9280    8.8450 C.ar  185  TYR185      0.0417
     92  CZ        17.3140   35.8430    9.5560 C.ar  185  TYR185      0.1957
     93  OH        16.7110   34.7890    8.8720 O.3   185  TYR185     -0.2866
     94  N         19.6760   29.8440   15.8540 N.3   221  ASN221     -0.1225
     95  CA        19.2100   29.5560   14.5030 C.3   221  ASN221      0.1785
     96  C         20.3490   29.8000   13.4990 C.2   221  ASN221      0.2598
     97  O         21.4990   30.0060   13.8930 O.2   221  ASN221     -0.2718
     98  CB        17.9810   30.4060   14.1990 C.3   221  ASN221      0.1169
     99  CG        18.2480   31.9100   14.2840 C.2   221  ASN221      0.2627
    100  OD1       19.3700   32.3550   14.4970 O.2   221  ASN221     -0.2716
    101  ND2       17.2000   32.6990   14.1040 N.am  221  ASN221     -0.0877
    102  N         20.0430   29.7280   12.2090 N.am  222  SER222     -0.1938
    103  CA        21.0870   29.8560   11.1980 C.3   222  SER222      0.2055
    104  C         21.8790   31.1630   11.3280 C.2   222  SER222      0.2643
    105  O         23.1060   31.1530   11.3560 O.2   222  SER222     -0.2714
    106  CB        20.4920   29.8240    9.8010 C.3   222  SER222      0.2130
    107  OG        19.8430   28.5910    9.5130 O.3   222  SER222     -0.2179
    108  N         21.1550   32.2650   11.3950 N.am  223  TYR223     -0.1973
    109  CA        21.7700   33.5800   11.4790 C.3   223  TYR223      0.1639
    110  C         22.7250   33.6350   12.6690 C.2   223  TYR223      0.2290
    111  O         23.8940   34.0610   12.5640 O.2   223  TYR223     -0.2864
    112  CB        20.7110   34.7020   11.6210 C.3   223  TYR223      0.0560
    113  CG        21.4290   35.9780   11.9820 C.ar  223  TYR223     -0.0198
    114  CD1       22.0890   36.6970   11.0110 C.ar  223  TYR223     -0.0009
    115  CD2       21.5490   36.3950   13.3050 C.ar  223  TYR223     -0.0009
    116  CE1       22.8460   37.8140   11.3300 C.ar  223  TYR223      0.0417
    117  CE2       22.3080   37.5240   13.6320 C.ar  223  TYR223      0.0417
    118  CZ        22.9450   38.2090   12.6360 C.ar  223  TYR223      0.1957
    119  OH        23.7330   39.2910   12.9700 O.3   223  TYR223     -0.2866
    120  N         20.8430   25.1300   15.8700 N.3   237  ARG237     -0.1245
    121  CA        19.5910   24.7140   15.2270 C.3   237  ARG237      0.1563
    122  C         19.4330   25.4030   13.8710 C.2   237  ARG237      0.2260
    123  O         18.5340   26.2080   13.6940 O.2   237  ARG237     -0.2867
    124  CB        18.3980   25.0430   16.1210 C.3   237  ARG237      0.0307
    125  CG        18.3760   24.3840   17.4960 C.3   237  ARG237      0.0489
    126  CD        17.0080   24.5820   18.1660 C.3   237  ARG237      0.2205
    127  NE        16.6140   25.9860   18.2110 N.pl3 237  ARG237     -0.0865
    128  CZ        16.9840   26.8790   19.1310 C.cat 237  ARG237      0.5346
    129  NH1       17.7310   26.5480   20.1680 N.pl3 237  ARG237      0.1354
    130  NH2       16.5970   28.1260   19.0110 N.pl3 237  ARG237      0.1354
    131  N         18.1300   25.8700   10.2590 N.3   239  GLY239     -0.1210
    132  CA        17.1920   25.4360    9.2390 C.3   239  GLY239      0.1956
    133  C         17.5100   26.1030    7.9110 C.2   239  GLY239      0.2612
    134  O         18.1810   25.5130    7.0690 O.2   239  GLY239     -0.2717
    135  N         17.0520   27.3350    7.7660 N.am  240  GLY240     -0.1956
    136  CA        17.1150   28.0470    6.5060 C.3   240  GLY240      0.1869
    137  C         18.4630   27.9950    5.7950 C.2   240  GLY240      0.2309
    138  O         18.5010   27.8020    4.5840 O.2   240  GLY240     -0.2863
    139  N         19.2150   32.0030    3.9330 N.3   246  LEU246     -0.1245
    140  CA        19.6300   32.8780    5.0260 C.3   246  LEU246      0.1561
    141  C         19.9910   34.1920    4.3670 C.2   246  LEU246      0.2260
    142  O         21.0450   34.3150    3.7570 O.2   246  LEU246     -0.2867
    143  CB        20.8350   32.3000    5.7630 C.3   246  LEU246      0.0270
    144  CG        21.3820   33.2230    6.8670 C.3   246  LEU246      0.0019
    145  CD1       20.2930   33.6810    7.8260 C.3   246  LEU246      0.0001
    146  CD2       22.4720   32.5340    7.6380 C.3   246  LEU246      0.0001
@<TRIPOS>BOND
     1    21    20    2
     2    20    19    1
     3   142   141    2
     4   139   140    1
     5   141   140    1
     6    19    22    1
     7    19    18    1
     8    22    23    1
     9   138   137    2
    10   140   143    1
    11   143   144    1
    12   137   136    1
    13    23    25   ar
    14    23    24   ar
    15    25    27   ar
    16   136   135    1
    17   144   146    1
    18   144   145    1
    19    24    26   ar
    20   134   133    2
    21    27    28   ar
    22    12    11    2
    23   135   133   am
    24   133   132    1
    25    26    28   ar
    26    28    29    1
    27    11    10    1
    28    91    89   ar
    29    91    92   ar
    30    93    92    1
    31     4     3    2
    32   132   131    1
    33    89    87   ar
    34   107   106    1
    35    92    90   ar
    36   106   103    1
    37     9    10    1
    38    10    13    1
    39     3     2    1
    40    14    13    1
    41    14    15    1
    42    87    86    1
    43    87    88   ar
    44    90    88   ar
    45   114   116   ar
    46   114   113   ar
    47   103   104    1
    48   103   102    1
    49     1     2    1
    50   104   105    2
    51   104   108   am
    52   116   118   ar
    53    16    15    1
    54    16    17    1
    55   108   109    1
    56     2     5    1
    57   109   112    1
    58   109   110    1
    59    86    83    1
    60   112   113    1
    61     5     7    1
    62     5     6    1
    63   113   115   ar
    64   102    96   am
    65   111   110    2
    66   118   119    1
    67   118   117   ar
    68    85    84    2
    69    83    82    1
    70    83    84    1
    71     6     8    1
    72   115   117   ar
    73    96    97    2
    74    96    95    1
    75   123   122    2
    76   122   121    1
    77   101    99   am
    78    98    99    1
    79    98    95    1
    80    99   100    2
    81    95    94    1
    82   121   120    1
    83   121   124    1
    84    36    34    1
    85    54    53    1
    86    81    80   ar
    87    81    79   ar
    88   124   125    1
    89    80    78   ar
    90    35    34    1
    91    34    31    1
    92    53    55    1
    93    53    52    2
    94    79    77   ar
    95    78    77   ar
    96   125   126    1
    97    30    31    1
    98    31    32    1
    99    33    32    2
   100   126   127    1
   101   127   128    2
   102    77    76    1
   103    51    52    1
   104    51    50    1
   105   130   128    1
   106   128   129    1
   107    50    49    1
   108    76    73    1
   109    63    61   am
   110    74    73    1
   111    74    75    2
   112    73    72    1
   113    49    46    1
   114    62    61    2
   115    61    60    1
   116    71    70    1
   117    44    42    1
   118    46    47    1
   119    46    45    1
   120    60    57    1
   121    41    42    1
   122    41    38    1
   123    56    47   am
   124    56    57    1
   125    47    48    2
   126    42    43    1
   127    57    58    1
   128    70    69    1
   129    37    38    1
   130    68    69    1
   131    68    65    1
   132    38    39    1
   133    40    39    2
   134    58    59    2
   135    65    66    1
   136    65    64    1
   137    66    67    2
