@<TRIPOS>MOLECULE
tmp/4bf1A00.pdb
 172 168 0 0 0
SMALL
GASTEIGER

@<TRIPOS>ATOM
      1  N          8.3680   -0.5780   10.4390 N.3     2  TRP2       -0.1241
      2  CA         7.6780   -1.5410   11.2980 C.3     2  TRP2        0.1605
      3  C          6.6530   -2.3180   10.5040 C.2     2  TRP2        0.2264
      4  O          6.1530   -1.8280    9.4960 O.2     2  TRP2       -0.2867
      5  CB         7.0600   -0.8200   12.4970 C.3     2  TRP2        0.0550
      6  CG         5.8780    0.0180   12.1430 C.ar    2  TRP2        0.0003
      7  CD1        5.8960    1.3450   11.8820 C.ar    2  TRP2        0.0946
      8  CD2        4.5300   -0.4020   12.0260 C.ar    2  TRP2        0.0152
      9  NE1        4.6290    1.7980   11.6180 N.ar    2  TRP2       -0.2442
     10  CE2        3.7520    0.7420   11.7100 C.ar    2  TRP2        0.0810
     11  CE3        3.8720   -1.6490   12.2380 C.ar    2  TRP2        0.0012
     12  CZ2        2.3650    0.6680   11.5650 C.ar    2  TRP2        0.0191
     13  CZ3        2.5220   -1.7150   12.0810 C.ar    2  TRP2        0.0001
     14  CH2        1.7630   -0.5650   11.7400 C.ar    2  TRP2        0.0015
     15  N         -0.7920   -2.2150    6.3290 N.3    61  HIS61      -0.1241
     16  CA        -0.9400   -3.1460    7.4630 C.3    61  HIS61       0.1621
     17  C         -2.3490   -3.5350    7.8140 C.2    61  HIS61       0.2264
     18  O         -2.5410   -4.5320    8.5270 O.2    61  HIS61      -0.2867
     19  CB        -0.2660   -2.7090    8.7150 C.3    61  HIS61       0.0745
     20  CG        -0.7510   -1.4080    9.2310 C.ar   61  HIS61       0.0817
     21  ND1       -1.7430   -1.3150   10.1670 N.ar   61  HIS61      -0.2268
     22  CD2       -0.4010   -0.1410    8.9120 C.ar   61  HIS61       0.1154
     23  CE1       -1.9960   -0.0470   10.4100 C.ar   61  HIS61       0.1986
     24  NE2       -1.1500    0.6860    9.7100 N.ar   61  HIS61      -0.2212
     25  N        -12.6770    6.2140   11.2650 N.3    89  GLN89      -0.1245
     26  CA       -12.3880    5.0590   10.4400 C.3    89  GLN89       0.1566
     27  C        -12.6420    3.8170   11.2720 C.2    89  GLN89       0.2260
     28  O        -12.6870    3.8390   12.4620 O.2    89  GLN89      -0.2867
     29  CB       -10.9290    5.0970    9.9680 C.3    89  GLN89       0.0367
     30  CG        -9.8770    5.1660   11.0670 C.3    89  GLN89       0.0905
     31  CD        -9.1580    3.8920   11.4070 C.2    89  GLN89       0.2608
     32  OE1       -9.7200    2.7840   11.2290 O.2    89  GLN89      -0.2717
     33  NE2       -7.9730    3.9930   11.9430 N.am   89  GLN89      -0.0878
     34  N        -11.2660   -0.4790   10.9880 N.3    91  HIS91      -0.1241
     35  CA       -10.3550   -1.4770   10.3880 C.3    91  HIS91       0.1621
     36  C        -10.4670   -2.7320   11.2340 C.2    91  HIS91       0.2264
     37  O        -11.0720   -2.7490   12.2780 O.2    91  HIS91      -0.2867
     38  CB        -8.9270   -0.9330   10.3230 C.3    91  HIS91       0.0745
     39  CG        -8.3930   -0.6590   11.6770 C.ar   91  HIS91       0.0817
     40  ND1       -8.5370    0.5400   12.3300 N.ar   91  HIS91      -0.2268
     41  CD2       -7.7400   -1.4570   12.5500 C.ar   91  HIS91       0.1154
     42  CE1       -8.0540    0.4630   13.5320 C.ar   91  HIS91       0.1986
     43  NE2       -7.5430   -0.7500   13.6800 N.ar   91  HIS91      -0.2212
     44  N         -8.0990   -6.4180   12.5190 N.3    93  HIS93      -0.1241
     45  CA        -6.8790   -7.2570   12.6890 C.3    93  HIS93       0.1621
     46  C         -7.3590   -8.7280   12.5710 C.2    93  HIS93       0.2264
     47  O         -8.3900   -9.0550   13.0770 O.2    93  HIS93      -0.2867
     48  CB        -6.1960   -7.0150   14.0300 C.3    93  HIS93       0.0745
     49  CG        -5.9400   -5.5570   14.3110 C.ar   93  HIS93       0.0817
     50  ND1       -4.7100   -5.0110   14.1450 N.ar   93  HIS93      -0.2268
     51  CD2       -6.7610   -4.5590   14.7040 C.ar   93  HIS93       0.1154
     52  CE1       -4.7470   -3.6990   14.4440 C.ar   93  HIS93       0.1986
     53  NE2       -6.0050   -3.3760   14.7620 N.ar   93  HIS93      -0.2212
     54  N        -12.0580   -2.6530   14.9230 N.3   116  HIS116     -0.1241
     55  CA       -11.8430   -1.4370   15.6700 C.3   116  HIS116      0.1621
     56  C        -12.5310   -0.2380   14.9780 C.2   116  HIS116      0.2264
     57  O        -12.1810    0.0790   13.8560 O.2   116  HIS116     -0.2867
     58  CB       -10.3450   -1.1680   15.7200 C.3   116  HIS116      0.0745
     59  CG        -9.6450   -2.1440   16.6290 C.ar  116  HIS116      0.0817
     60  ND1       -8.3000   -2.3000   16.6400 N.ar  116  HIS116     -0.2268
     61  CD2      -10.1540   -2.9540   17.5820 C.ar  116  HIS116      0.1154
     62  CE1       -7.9740   -3.2320   17.5040 C.ar  116  HIS116      0.1986
     63  NE2       -9.0710   -3.6690   18.1010 N.ar  116  HIS116     -0.2212
     64  N        -12.9110    3.4930   15.3040 N.3   118  VAL118     -0.1245
     65  CA       -12.0150    4.5570   15.9040 C.3   118  VAL118      0.1561
     66  C        -12.7570    5.9580   15.9360 C.2   118  VAL118      0.2260
     67  O        -13.1900    6.3830   14.8650 O.2   118  VAL118     -0.2867
     68  CB       -10.7150    4.6720   15.1110 C.3   118  VAL118      0.0252
     69  CG1       -9.7630    5.6710   15.7640 C.3   118  VAL118      0.0019
     70  CG2      -10.0590    3.2740   14.9810 C.3   118  VAL118      0.0019
     71  N         -8.3540   15.0550   14.7980 N.3   127  PHE127     -0.1227
     72  CA        -7.7860   13.7910   15.1590 C.3   127  PHE127      0.1736
     73  C         -6.3620   13.9480   15.5970 C.2   127  PHE127      0.2596
     74  O         -5.9280   13.3410   16.5650 O.2   127  PHE127     -0.2718
     75  CB        -7.8900   12.8480   13.9790 C.3   127  PHE127      0.0547
     76  CG        -7.3330   11.4760   14.2350 C.ar  127  PHE127     -0.0202
     77  CD1       -8.0680   10.5730   14.9300 C.ar  127  PHE127     -0.0042
     78  CD2       -6.0260   11.1830   13.9870 C.ar  127  PHE127     -0.0042
     79  CE1       -7.5450    9.3610   15.2220 C.ar  127  PHE127     -0.0003
     80  CE2       -5.5130    9.9520   14.2620 C.ar  127  PHE127     -0.0003
     81  CZ        -6.2860    9.0580   14.9010 C.ar  127  PHE127     -0.0000
     82  N         -5.6130   14.7360   14.8210 N.am  128  GLY128     -0.1957
     83  CA        -4.1900   14.8930   15.1130 C.3   128  GLY128      0.1869
     84  C         -3.8730   15.4410   16.5080 C.2   128  GLY128      0.2309
     85  O         -2.8660   15.1280   17.1280 O.2   128  GLY128     -0.2863
     86  N         -5.1200   12.6750   19.3610 N.3   131  VAL131     -0.1245
     87  CA        -4.2030   11.5190   19.6270 C.3   131  VAL131      0.1561
     88  C         -3.0590   11.8620   20.5670 C.2   131  VAL131      0.2260
     89  O         -2.4120   10.9480   21.0690 O.2   131  VAL131     -0.2867
     90  CB        -3.5380   10.8650   18.4040 C.3   131  VAL131      0.0252
     91  CG1       -4.5450   10.1950   17.5820 C.3   131  VAL131      0.0019
     92  CG2       -2.6410   11.7490   17.5700 C.3   131  VAL131      0.0019
     93  N         -9.0980    9.5080   22.2060 N.3   137  LEU137     -0.1197
     94  CA        -9.7610    8.5080   21.3600 C.3   137  LEU137      0.1775
     95  C        -10.6010    7.5690   22.2040 C.2   137  LEU137      0.2305
     96  O        -10.3340    7.3270   23.3660 O.2   137  LEU137     -0.2863
     97  CB        -8.7620    7.6900   20.5690 C.2   137  LEU137     -0.0081
     98  CG        -8.0110    8.2450   19.4470 C.2   137  LEU137     -0.0460
     99  CD1       -7.2330    7.2350   18.6210 C.3   137  LEU137      0.0261
    100  CD2       -8.1950    9.5640   18.8070 C.3   137  LEU137      0.0261
    101  N        -12.0400    3.7650   21.1370 N.3   139  VAL139     -0.1245
    102  CA       -12.0730    2.6560   20.1660 C.3   139  VAL139      0.1561
    103  C        -13.0120    1.5800   20.6810 C.2   139  VAL139      0.2260
    104  O        -12.9070    1.1200   21.8010 O.2   139  VAL139     -0.2867
    105  CB       -10.6610    2.0620   19.8140 C.3   139  VAL139      0.0252
    106  CG1      -10.8190    1.0810   18.6810 C.3   139  VAL139      0.0019
    107  CG2       -9.7660    3.2030   19.3560 C.3   139  VAL139      0.0019
    108  N         -3.0680    3.1000   21.2410 N.3   194  LEU194     -0.1231
    109  CA        -3.0870    2.5840   19.9000 C.3   194  LEU194      0.1693
    110  C         -2.3340    1.2450   19.9560 C.2   194  LEU194      0.2593
    111  O         -1.3120    1.0880   20.6580 O.2   194  LEU194     -0.2718
    112  CB        -2.3080    3.5160   18.9770 C.3   194  LEU194      0.0284
    113  CG        -2.7470    4.9590   18.9250 C.3   194  LEU194      0.0019
    114  CD1       -1.9370    5.7430   17.9190 C.3   194  LEU194      0.0001
    115  CD2       -4.2370    5.1280   18.6650 C.3   194  LEU194      0.0001
    116  N         -2.7470    0.3190   19.1180 N.am  195  THR195     -0.1939
    117  CA        -2.0620   -1.0320   19.0160 C.3   195  THR195      0.2028
    118  C         -1.0890   -1.1130   17.8970 C.2   195  THR195      0.2643
    119  O         -0.4690   -2.1860   17.7320 O.2   195  THR195     -0.2714
    120  CB        -3.1370   -2.1820   18.9230 C.3   195  THR195      0.1808
    121  OG1       -3.7410   -2.0690   17.6300 O.3   195  THR195     -0.2208
    122  CG2       -4.1270   -2.1340   20.0300 C.3   195  THR195      0.0379
    123  N         -0.8900   -0.0130   17.1360 N.am  196  THR196     -0.1937
    124  CA         0.1310    0.0540   16.1150 C.3   196  THR196      0.2013
    125  C          0.9810    1.2850   16.4010 C.2   196  THR196      0.2484
    126  O          0.4840    2.2310   17.0230 O.2   196  THR196     -0.2729
    127  CB        -0.4280    0.0960   14.6810 C.3   196  THR196      0.1807
    128  OG1       -1.4420    1.0980   14.5920 O.3   196  THR196     -0.2208
    129  CG2       -0.9450   -1.2140   14.2720 C.3   196  THR196      0.0379
    130  N          2.2500    1.2800   15.9710 N.am  197  PRO197     -0.2715
    131  CA         3.0410    2.4920   16.0540 C.3   197  PRO197      0.1521
    132  C          2.2950    3.6970   15.5160 C.2   197  PRO197      0.2440
    133  O          1.7280    3.6180   14.3930 O.2   197  PRO197     -0.2731
    134  CB         4.2800    2.1150   15.2680 C.3   197  PRO197      0.0310
    135  CG         4.4410    0.6190   15.5100 C.3   197  PRO197      0.0237
    136  CD         2.9710    0.1620   15.3940 C.3   197  PRO197      0.0939
    137  N          2.3340    4.8230   16.2310 N.am  198  PRO198     -0.2727
    138  CA         3.2280    5.1800   17.3600 C.3   198  PRO198      0.1402
    139  C          2.8090    4.7850   18.7790 C.2   198  PRO198      0.2269
    140  O          3.4110    5.2060   19.7320 O.2   198  PRO198     -0.2865
    141  CB         3.2860    6.7130   17.2240 C.3   198  PRO198      0.0296
    142  CG         1.9740    7.0870   16.6510 C.3   198  PRO198      0.0237
    143  CD         1.6270    5.9940   15.7160 C.3   198  PRO198      0.0939
    144  N          0.5200    5.4540   20.8530 N.3   200  LEU200     -0.1245
    145  CA         0.1950    6.5650   21.7600 C.3   200  LEU200      0.1561
    146  C         -0.8340    6.1890   22.8160 C.2   200  LEU200      0.2260
    147  O         -1.8300    5.4430   22.4970 O.2   200  LEU200     -0.2867
    148  CB        -0.2840    7.8000   21.0130 C.3   200  LEU200      0.0270
    149  CG         0.7870    8.3780   20.0760 C.3   200  LEU200      0.0019
    150  CD1        0.1380    9.3850   19.1340 C.3   200  LEU200      0.0001
    151  CD2        1.9510    9.0210   20.8280 C.3   200  LEU200      0.0001
    152  N         -6.1260    6.2130   24.2890 N.3   203  VAL203     -0.1245
    153  CA        -7.4170    5.4700   23.9620 C.3   203  VAL203      0.1561
    154  C         -8.1600    5.0570   25.2010 C.2   203  VAL203      0.2260
    155  O         -7.6080    4.3790   26.0950 O.2   203  VAL203     -0.2867
    156  CB        -7.1100    4.2400   23.1130 C.3   203  VAL203      0.0252
    157  CG1       -8.4300    3.5280   22.7560 C.3   203  VAL203      0.0019
    158  CG2       -6.3540    4.6040   21.8420 C.3   203  VAL203      0.0019
    159  N        -10.5260    2.2410   25.7080 N.3   205  TRP205     -0.1241
    160  CA       -10.9900    1.0510   25.0630 C.3   205  TRP205      0.1605
    161  C        -12.3720    0.6100   25.5950 C.2   205  TRP205      0.2264
    162  O        -12.5940    0.5780   26.7640 O.2   205  TRP205     -0.2867
    163  CB        -9.9810   -0.1180   25.2250 C.3   205  TRP205      0.0550
    164  CG        -8.8730   -0.0160   24.2300 C.ar  205  TRP205      0.0003
    165  CD1       -7.6140    0.5990   24.4140 C.ar  205  TRP205      0.0946
    166  CD2       -8.9290   -0.4040   22.8770 C.ar  205  TRP205      0.0152
    167  NE1       -6.9640    0.5810   23.2340 N.ar  205  TRP205     -0.2442
    168  CE2       -7.7120   -0.0530   22.2560 C.ar  205  TRP205      0.0810
    169  CE3       -9.9070   -1.0700   22.1040 C.ar  205  TRP205      0.0012
    170  CZ2       -7.4750   -0.2550   20.9310 C.ar  205  TRP205      0.0191
    171  CZ3       -9.6690   -1.3100   20.8320 C.ar  205  TRP205      0.0001
    172  CH2       -8.4650   -0.9290   20.2040 C.ar  205  TRP205      0.0015
@<TRIPOS>BOND
     1    15    16    1
     2    16    17    1
     3    16    19    1
     4    17    18    2
     5    19    20    1
     6    22    20   ar
     7    22    24   ar
     8    20    21   ar
     9     4     3    2
    10    24    23   ar
    11    29    26    1
    12    29    30    1
    13    21    23   ar
    14    38    35    1
    15    38    39    1
    16    35    34    1
    17    35    36    1
    18     1     2    1
    19    26    25    1
    20    26    27    1
    21     3     2    1
    22    30    31    1
    23    32    31    2
    24    36    37    2
    25    27    28    2
    26     2     5    1
    27    31    33   am
    28    12    10   ar
    29    12    14   ar
    30     9    10   ar
    31     9     7   ar
    32    39    40   ar
    33    39    41   ar
    34    10     8   ar
    35    14    13   ar
    36     7     6   ar
    37     8     6   ar
    38     8    11   ar
    39    13    11   ar
    40     6     5    1
    41    40    42   ar
    42    44    45    1
    43    41    43   ar
    44    46    45    1
    45    46    47    2
    46    45    48    1
    47    42    43   ar
    48    57    56    2
    49    75    76    1
    50    75    72    1
    51    78    76   ar
    52    78    80   ar
    53    48    49    1
    54    50    49   ar
    55    50    52   ar
    56    76    77   ar
    57    80    81   ar
    58   129   127    1
    59    49    51   ar
    60   133   132    2
    61    52    53   ar
    62   128   127    1
    63   127   124    1
    64    51    53   ar
    65    71    72    1
    66    82    83    1
    67    82    73   am
    68    67    66    2
    69    81    79   ar
    70    54    55    1
    71    77    79   ar
    72    56    55    1
    73    70    68    1
    74    68    69    1
    75    68    65    1
    76    83    84    1
    77    72    73    1
    78   134   135    1
    79   134   131    1
    80    64    65    1
    81   136   135    1
    82   136   130    1
    83   132   131    1
    84   132   137   am
    85    73    74    2
    86    55    58    1
    87   143   137    1
    88   143   142    1
    89    58    59    1
    90    65    66    1
    91   130   131    1
    92   130   125   am
    93   124   125    1
    94   124   123    1
    95   137   138    1
    96   125   126    2
    97    84    85    2
    98    59    60   ar
    99    59    61   ar
   100    60    62   ar
   101   142   141    1
   102   123   118   am
   103   141   138    1
   104   138   139    1
   105    62    63   ar
   106    92    90    1
   107    91    90    1
   108    61    63   ar
   109   121   120    1
   110   119   118    2
   111   118   117    1
   112   114   113    1
   113    90    87    1
   114    99    98    1
   115   115   113    1
   116   106   105    1
   117   139   140    2
   118   100    98    1
   119   120   117    1
   120   120   122    1
   121   113   112    1
   122   112   109    1
   123   117   116    1
   124   116   110   am
   125   150   149    1
   126   107   105    1
   127    86    87    1
   128    98    97    2
   129    87    88    1
   130   105   102    1
   131   109   110    1
   132   109   108    1
   133   110   111    2
   134   149   151    1
   135   149   148    1
   136   102   103    1
   137   102   101    1
   138   172   171   ar
   139   172   170   ar
   140    88    89    2
   141    97    94    1
   142   103   104    2
   143   171   169   ar
   144   144   145    1
   145   170   168   ar
   146   148   145    1
   147    94    95    1
   148    94    93    1
   149   145   146    1
   150   158   156    1
   151   169   166   ar
   152    95    96    2
   153   168   166   ar
   154   168   167   ar
   155   147   146    2
   156   157   156    1
   157   166   164   ar
   158   156   153    1
   159   167   165   ar
   160   153   152    1
   161   153   154    1
   162   164   165   ar
   163   164   163    1
   164   160   163    1
   165   160   161    1
   166   160   159    1
   167   154   155    2
   168   161   162    2
