@<TRIPOS>MOLECULE
tmp/4bf4G01.pdb
 183 173 0 0 0
SMALL
GASTEIGER

@<TRIPOS>ATOM
      1  N         51.5090  -20.3510   11.1380 N.3    64  TRP64      -0.1241
      2  CA        50.3360  -20.9340   10.5550 C.3    64  TRP64       0.1605
      3  C         49.7820  -22.0390   11.4200 C.2    64  TRP64       0.2264
      4  O         48.6090  -22.4270   11.2660 O.2    64  TRP64      -0.2867
      5  CB        50.6650  -21.4640    9.1820 C.3    64  TRP64       0.0550
      6  CG        50.6170  -20.4240    8.0910 C.ar   64  TRP64       0.0003
      7  CD1       51.6250  -19.5870    7.6950 C.ar   64  TRP64       0.0946
      8  CD2       49.5160  -20.1600    7.2210 C.ar   64  TRP64       0.0152
      9  NE1       51.2190  -18.8200    6.6360 N.ar   64  TRP64      -0.2442
     10  CE2       49.9250  -19.1440    6.3270 C.ar   64  TRP64       0.0810
     11  CE3       48.2160  -20.6890    7.1060 C.ar   64  TRP64       0.0012
     12  CZ2       49.0800  -18.6330    5.3400 C.ar   64  TRP64       0.0191
     13  CZ3       47.3770  -20.1860    6.1160 C.ar   64  TRP64       0.0001
     14  CH2       47.8100  -19.1660    5.2490 C.ar   64  TRP64       0.0015
     15  N         47.2310  -24.3830    4.6560 N.3    71  LEU71      -0.1245
     16  CA        48.1340  -24.1490    3.5120 C.3    71  LEU71       0.1561
     17  C         47.9240  -25.2400    2.4330 C.2    71  LEU71       0.2260
     18  O         47.4790  -26.3560    2.7480 O.2    71  LEU71      -0.2867
     19  CB        49.5970  -24.2000    3.9750 C.3    71  LEU71       0.0270
     20  CG        50.1110  -23.3680    5.1490 C.3    71  LEU71       0.0019
     21  CD1       50.8750  -24.2280    6.1270 C.3    71  LEU71       0.0001
     22  CD2       50.9980  -22.2520    4.6830 C.3    71  LEU71       0.0001
     23  N         52.5300  -24.3390   -0.7930 N.3    75  GLU75      -0.1245
     24  CA        52.6220  -23.3590    0.2980 C.3    75  GLU75       0.1567
     25  C         53.2310  -23.9270    1.6070 C.2    75  GLU75       0.2260
     26  O         53.8630  -23.2050    2.3660 O.2    75  GLU75      -0.2867
     27  CB        51.2480  -22.7410    0.5890 C.3    75  GLU75       0.0388
     28  CG        50.7430  -21.7950   -0.4610 C.3    75  GLU75       0.1160
     29  CD        49.2970  -21.3260   -0.2290 C.2    75  GLU75       0.3649
     30  OE1       48.4870  -22.0560    0.4170 O.co2  75  GLU75      -0.2457
     31  OE2       48.9780  -20.2060   -0.7140 O.co2  75  GLU75      -0.2457
     32  N         56.9820  -24.0680    1.8530 N.3    78  LEU78      -0.1231
     33  CA        57.6250  -22.7720    2.1330 C.3    78  LEU78       0.1693
     34  C         57.2870  -22.0550    3.4500 C.2    78  LEU78       0.2592
     35  O         57.8260  -21.0050    3.7080 O.2    78  LEU78      -0.2718
     36  CB        57.3660  -21.8090    0.9710 C.3    78  LEU78       0.0284
     37  CG        57.5270  -22.2920   -0.4670 C.3    78  LEU78       0.0019
     38  CD1       56.7910  -21.3080   -1.3610 C.3    78  LEU78       0.0001
     39  CD2       58.9930  -22.3900   -0.8630 C.3    78  LEU78       0.0001
     40  N         56.4210  -22.5820    4.2990 N.am   79  ASN79      -0.1974
     41  CA        56.0980  -21.7920    5.4840 C.3    79  ASN79       0.1688
     42  C         57.1790  -21.7600    6.5780 C.2    79  ASN79       0.2292
     43  O         56.8950  -21.4700    7.7460 O.2    79  ASN79      -0.2864
     44  CB        54.7290  -22.1450    6.0450 C.3    79  ASN79       0.1181
     45  CG        54.7610  -23.3390    6.9360 C.2    79  ASN79       0.2629
     46  OD1       55.1500  -24.4460    6.5210 O.2    79  ASN79      -0.2716
     47  ND2       54.3400  -23.1410    8.1810 N.am   79  ASN79      -0.0877
     48  N         59.9140  -19.7560    7.1480 N.3    81  ASN81      -0.1240
     49  CA        60.6510  -18.5310    6.9680 C.3    81  ASN81       0.1653
     50  C         60.3940  -17.6250    8.1580 C.2    81  ASN81       0.2266
     51  O         59.3480  -17.6920    8.7790 O.2    81  ASN81      -0.2867
     52  CB        60.2290  -17.8710    5.6400 C.3    81  ASN81       0.1155
     53  CG        58.7700  -17.4440    5.6390 C.2    81  ASN81       0.2627
     54  OD1       58.4320  -16.3920    6.1680 O.2    81  ASN81      -0.2716
     55  ND2       57.9010  -18.2700    5.0700 N.am   81  ASN81      -0.0877
     56  N         59.3220  -14.6370    8.4490 N.3    83  LEU83      -0.1231
     57  CA        58.1030  -13.8110    8.3820 C.3    83  LEU83       0.1693
     58  C         56.8330  -14.5750    8.8090 C.2    83  LEU83       0.2591
     59  O         55.8780  -13.9870    9.3590 O.2    83  LEU83      -0.2718
     60  CB        57.9160  -13.1580    7.0050 C.3    83  LEU83       0.0284
     61  CG        56.7400  -12.1580    6.9820 C.3    83  LEU83       0.0019
     62  CD1       56.8610  -11.0910    8.0900 C.3    83  LEU83       0.0001
     63  CD2       56.5010  -11.5080    5.6260 C.3    83  LEU83       0.0001
     64  N         56.8410  -15.8830    8.5740 N.am   84  GLU84      -0.1979
     65  CA        55.7680  -16.7600    9.0370 C.3    84  GLU84       0.1602
     66  C         56.1730  -17.5310   10.3100 C.2    84  GLU84       0.2287
     67  O         55.9630  -18.7290   10.4250 O.2    84  GLU84      -0.2864
     68  CB        55.3060  -17.6410    7.8700 C.3    84  GLU84       0.0415
     69  CG        54.8970  -16.7430    6.6860 C.3    84  GLU84       0.1163
     70  CD        54.3900  -17.4720    5.4560 C.2    84  GLU84       0.3649
     71  OE1       55.1350  -18.2840    4.8450 O.co2  84  GLU84      -0.2457
     72  OE2       53.2400  -17.1810    5.0590 O.co2  84  GLU84      -0.2457
     73  N         52.2410  -15.8420   -8.4860 N.3   168  PHE168     -0.1227
     74  CA        51.6810  -16.1780   -7.1600 C.3   168  PHE168      0.1736
     75  C         51.4510  -14.9850   -6.2650 C.2   168  PHE168      0.2595
     76  O         50.9610  -15.1220   -5.1360 O.2   168  PHE168     -0.2718
     77  CB        52.4200  -17.3070   -6.4210 C.3   168  PHE168      0.0547
     78  CG        53.7950  -16.9650   -5.9770 C.ar  168  PHE168     -0.0202
     79  CD1       54.0040  -16.1100   -4.8930 C.ar  168  PHE168     -0.0042
     80  CD2       54.8870  -17.5420   -6.6140 C.ar  168  PHE168     -0.0042
     81  CE1       55.2830  -15.7930   -4.4650 C.ar  168  PHE168     -0.0003
     82  CE2       56.1830  -17.2550   -6.1930 C.ar  168  PHE168     -0.0003
     83  CZ        56.3830  -16.3720   -5.1060 C.ar  168  PHE168     -0.0000
     84  N         51.8190  -13.8220   -6.7900 N.am  169  VAL169     -0.1980
     85  CA        51.3900  -12.5480   -6.2610 C.3   169  VAL169      0.1595
     86  C         50.1740  -12.0310   -7.1090 C.2   169  VAL169      0.2287
     87  O         49.3310  -11.2840   -6.5840 O.2   169  VAL169     -0.2864
     88  CB        52.6050  -11.5690   -6.1860 C.3   169  VAL169      0.0276
     89  CG1       52.2300  -10.1940   -5.6060 C.3   169  VAL169      0.0022
     90  CG2       53.7420  -12.2010   -5.3750 C.3   169  VAL169      0.0022
     91  N         54.7590  -21.2480   -7.3890 N.3   181  MET181     -0.1245
     92  CA        55.3800  -21.7490   -6.1640 C.3   181  MET181      0.1570
     93  C         56.1060  -23.0940   -6.3680 C.2   181  MET181      0.2261
     94  O         57.3140  -23.1820   -6.1570 O.2   181  MET181     -0.2867
     95  CB        54.3510  -21.8630   -5.0380 C.3   181  MET181      0.0387
     96  CG        54.2560  -20.6390   -4.1720 C.3   181  MET181      0.0595
     97  SD        53.0290  -20.7880   -2.8540 S.3   181  MET181     -0.1393
     98  CE        51.5040  -20.3810   -3.7150 C.3   181  MET181      0.0692
     99  N         63.8900  -18.2690   -0.4620 N.3   228  HIS228     -0.1226
    100  CA        62.6380  -17.9020   -1.1260 C.3   228  HIS228      0.1752
    101  C         62.1200  -16.5280   -0.7080 C.2   228  HIS228      0.2595
    102  O         61.6530  -15.7380   -1.5430 O.2   228  HIS228     -0.2718
    103  CB        61.5550  -18.9330   -0.7970 C.3   228  HIS228      0.0759
    104  CG        60.1650  -18.4610   -1.0960 C.ar  228  HIS228      0.0818
    105  ND1       59.5100  -18.7740   -2.2660 N.ar  228  HIS228     -0.2268
    106  CD2       59.3150  -17.6810   -0.3850 C.ar  228  HIS228      0.1154
    107  CE1       58.3180  -18.2020   -2.2680 C.ar  228  HIS228      0.1986
    108  NE2       58.1730  -17.5350   -1.1370 N.ar  228  HIS228     -0.2212
    109  N         62.1530  -16.2910    0.6050 N.am  229  ILE229     -0.1980
    110  CA        61.6160  -15.0850    1.1940 C.3   229  ILE229      0.1595
    111  C         62.5660  -13.9530    0.8650 C.2   229  ILE229      0.2287
    112  O         62.1420  -12.9330    0.3690 O.2   229  ILE229     -0.2864
    113  CB        61.3180  -15.2590    2.7290 C.3   229  ILE229      0.0276
    114  CG1       60.2660  -14.2850    3.1950 C.3   229  ILE229      0.0022
    115  CG2       62.5500  -15.1570    3.6270 C.3   229  ILE229      0.0022
    116  CD1       58.9110  -14.8740    3.0260 C.3   229  ILE229      0.0001
    117  N         62.0260  -13.1730   -3.1780 N.3   232  VAL232     -0.1231
    118  CA        60.7320  -12.5750   -3.4670 C.3   232  VAL232      0.1692
    119  C         60.5780  -11.2050   -2.8050 C.2   232  VAL232      0.2591
    120  O         60.1810  -10.2470   -3.4810 O.2   232  VAL232     -0.2718
    121  CB        59.5470  -13.5600   -3.0910 C.3   232  VAL232      0.0266
    122  CG1       58.1990  -12.8480   -2.9850 C.3   232  VAL232      0.0020
    123  CG2       59.4930  -14.7220   -4.0820 C.3   232  VAL232      0.0020
    124  N         60.8940  -11.1010   -1.5120 N.am  233  ALA233     -0.1980
    125  CA        60.7800   -9.8250   -0.8170 C.3   233  ALA233      0.1597
    126  C         61.5480   -8.8020   -1.6150 C.2   233  ALA233      0.2287
    127  O         60.9640   -7.8180   -2.0600 O.2   233  ALA233     -0.2864
    128  CB        61.3400   -9.9150    0.5590 C.3   233  ALA233      0.0319
    129  N         58.6880   -6.5950   -4.0100 N.3   237  THR237     -0.1218
    130  CA        58.2900   -5.3930   -3.2570 C.3   237  THR237      0.1862
    131  C         59.0370   -4.1700   -3.7420 C.2   237  THR237      0.2287
    132  O         58.4400   -3.1140   -3.9130 O.2   237  THR237     -0.2866
    133  CB        58.4840   -5.5020   -1.7710 C.3   237  THR237      0.1770
    134  OG1       59.4020   -6.5500   -1.4900 O.3   237  THR237     -0.2211
    135  CG2       57.2080   -5.7910   -1.1210 C.3   237  THR237      0.0375
    136  N         53.2890   -2.3920   -0.2910 N.3   280  VAL280     -0.1245
    137  CA        52.4590   -3.2360    0.5640 C.3   280  VAL280      0.1561
    138  C         51.1140   -2.5830    0.9180 C.2   280  VAL280      0.2260
    139  O         51.0190   -1.8280    1.8930 O.2   280  VAL280     -0.2867
    140  CB        53.1790   -3.7140    1.8690 C.3   280  VAL280      0.0252
    141  CG1       52.3850   -4.8460    2.5240 C.3   280  VAL280      0.0019
    142  CG2       54.6010   -4.1960    1.5920 C.3   280  VAL280      0.0019
    143  N         51.2100   -8.8560    5.8530 N.3   284  THR284     -0.1203
    144  CA        51.0390  -10.3000    5.6410 C.3   284  THR284      0.1994
    145  C         50.0940  -10.9480    6.6640 C.2   284  THR284      0.2617
    146  O         49.6330  -10.2890    7.6170 O.2   284  THR284     -0.2717
    147  CB        52.3960  -11.0420    5.5750 C.3   284  THR284      0.1784
    148  OG1       53.0890  -10.9210    6.8270 O.3   284  THR284     -0.2211
    149  CG2       53.2420  -10.4630    4.4430 C.3   284  THR284      0.0376
    150  N         49.8000  -12.2300    6.4710 N.am  285  TYR285     -0.1975
    151  CA        48.7260  -12.8590    7.2300 C.3   285  TYR285      0.1639
    152  C         48.9910  -12.8810    8.7260 C.2   285  TYR285      0.2290
    153  O         50.0600  -13.3330    9.1450 O.2   285  TYR285     -0.2864
    154  CB        48.4990  -14.2710    6.7240 C.3   285  TYR285      0.0560
    155  CG        47.6750  -14.3600    5.4610 C.ar  285  TYR285     -0.0198
    156  CD1       47.1340  -13.2280    4.8560 C.ar  285  TYR285     -0.0009
    157  CD2       47.4050  -15.5760    4.8960 C.ar  285  TYR285     -0.0009
    158  CE1       46.3660  -13.3260    3.7070 C.ar  285  TYR285      0.0417
    159  CE2       46.6410  -15.6880    3.7530 C.ar  285  TYR285      0.0417
    160  CZ        46.1230  -14.5700    3.1670 C.ar  285  TYR285      0.1957
    161  OH        45.3550  -14.7240    2.0430 O.3   285  TYR285     -0.2866
    162  N         60.6660   -4.8140    8.3800 N.3   344  CYS344     -0.1235
    163  CA        61.4770   -5.1790    7.2080 C.3   344  CYS344      0.1677
    164  C         62.9760   -5.1410    7.4700 C.2   344  CYS344      0.2270
    165  O         63.5110   -4.1720    8.0250 O.2   344  CYS344     -0.2867
    166  CB        61.1910   -4.2780    6.0180 C.3   344  CYS344      0.0956
    167  SG        62.0090   -4.8440    4.5020 S.3   344  CYS344     -0.0801
    168  N         46.8930   -7.1730   -1.0740 N.3   384  MET384     -0.1230
    169  CA        48.1150   -7.3410   -0.2750 C.3   384  MET384      0.1702
    170  C         49.2600   -6.4890   -0.8430 C.2   384  MET384      0.2592
    171  O         49.9490   -5.7770   -0.1080 O.2   384  MET384     -0.2718
    172  CB        48.5410   -8.8140   -0.2320 C.3   384  MET384      0.0401
    173  CG        47.8870   -9.6970    0.8730 C.3   384  MET384      0.0596
    174  SD        49.0040  -11.0850    1.3240 S.3   384  MET384     -0.1393
    175  CE        50.5710  -10.2080    1.5860 C.3   384  MET384      0.0692
    176  N         49.4620   -6.5850   -2.1560 N.am  385  ILE385     -0.1980
    177  CA        50.4630   -5.7900   -2.8400 C.3   385  ILE385      0.1595
    178  C         49.8060   -4.8480   -3.8550 C.2   385  ILE385      0.2287
    179  O         48.9020   -5.2410   -4.5940 O.2   385  ILE385     -0.2864
    180  CB        51.5580   -6.6810   -3.4610 C.3   385  ILE385      0.0276
    181  CG1       52.6150   -7.0590   -2.3980 C.3   385  ILE385      0.0022
    182  CG2       52.2020   -5.9280   -4.6300 C.3   385  ILE385      0.0022
    183  CD1       53.6710   -8.0690   -2.8770 C.3   385  ILE385      0.0001
@<TRIPOS>BOND
     1    73    74    1
     2    91    92    1
     3    74    77    1
     4    74    75    1
     5    86    87    2
     6    86    85    1
     7    84    75   am
     8    84    85    1
     9    80    82   ar
    10    80    78   ar
    11    77    78    1
    12    93    92    1
    13    93    94    2
    14    75    76    2
    15    85    88    1
    16    82    83   ar
    17    88    89    1
    18    88    90    1
    19    92    95    1
    20    78    79   ar
    21    83    81   ar
    22    95    96    1
    23    79    81   ar
    24   182   180    1
    25   179   178    2
    26    96    97    1
    27   123   121    1
    28   129   130    1
    29   132   131    2
    30   178   177    1
    31   131   130    1
    32    98    97    1
    33   120   119    2
    34   118   117    1
    35   118   121    1
    36   118   119    1
    37   180   177    1
    38   180   181    1
    39   130   133    1
    40   121   122    1
    41   183   181    1
    42   177   176    1
    43   119   124   am
    44   107   105   ar
    45   107   108   ar
    46   105   104   ar
    47   176   170   am
    48   127   126    2
    49   133   134    1
    50   133   135    1
    51   126   125    1
    52   102   101    2
    53   124   125    1
    54    38    37    1
    55   108   106   ar
    56   100   103    1
    57   100   101    1
    58   100    99    1
    59   104   103    1
    60   104   106   ar
    61   168   169    1
    62    39    37    1
    63   170   169    1
    64   170   171    2
    65   125   128    1
    66    23    24    1
    67    31    29   ar
    68   101   109   am
    69    37    36    1
    70    28    29    1
    71    28    27    1
    72   136   137    1
    73   169   172    1
    74   172   173    1
    75    29    30   ar
    76    24    27    1
    77    24    25    1
    78   112   111    2
    79   137   138    1
    80   137   140    1
    81   109   110    1
    82   111   110    1
    83   173   174    1
    84   138   139    2
    85    36    33    1
    86   110   113    1
    87   174   175    1
    88   142   140    1
    89    25    26    2
    90    32    33    1
    91   140   141    1
    92   161   160    1
    93    33    34    1
    94    17    18    2
    95    17    16    1
    96   113   114    1
    97   113   115    1
    98   116   114    1
    99   160   158   ar
   100   160   159   ar
   101    34    35    2
   102    34    40   am
   103    16    19    1
   104    16    15    1
   105   158   156   ar
   106   159   157   ar
   107    19    20    1
   108    40    41    1
   109   149   147    1
   110   167   166    1
   111    22    20    1
   112    71    70   ar
   113   156   155   ar
   114   157   155   ar
   115    72    70   ar
   116    55    53   am
   117    20    21    1
   118    14    12   ar
   119    14    13   ar
   120    12    10   ar
   121    70    69    1
   122   155   154    1
   123    41    44    1
   124    41    42    1
   125   147   144    1
   126   147   148    1
   127    63    61    1
   128    53    52    1
   129    53    54    2
   130    52    49    1
   131   144   143    1
   132   144   145    1
   133   166   163    1
   134    44    45    1
   135    13    11   ar
   136    10     9   ar
   137    10     8   ar
   138   150   145   am
   139   150   151    1
   140    46    45    2
   141    42    43    2
   142     9     7   ar
   143   145   146    2
   144    69    68    1
   145   154   151    1
   146    45    47   am
   147    49    48    1
   148    49    50    1
   149    61    60    1
   150    61    62    1
   151    60    57    1
   152    11     8   ar
   153   163   164    1
   154   163   162    1
   155     8     6   ar
   156   151   152    1
   157   164   165    2
   158     7     6   ar
   159    68    65    1
   160     6     5    1
   161    50    51    2
   162    57    56    1
   163    57    58    1
   164    64    58   am
   165    64    65    1
   166   152   153    2
   167    58    59    2
   168    65    66    1
   169     5     2    1
   170    66    67    2
   171     2     1    1
   172     2     3    1
   173     4     3    2
