@<TRIPOS>MOLECULE
tmp/4bf5A00.pdb
 126 118 0 0 0
SMALL
GASTEIGER

@<TRIPOS>ATOM
      1  N         44.8820   41.4510   39.6200 N.3    51  ILE51      -0.1245
      2  CA        43.4720   41.0880   39.6200 C.3    51  ILE51       0.1561
      3  C         42.9850   40.9280   38.1850 C.2    51  ILE51       0.2260
      4  O         43.0380   41.8680   37.3910 O.2    51  ILE51      -0.2867
      5  CB        42.6250   42.1400   40.3550 C.3    51  ILE51       0.0252
      6  CG1       43.1950   42.3900   41.7540 C.3    51  ILE51       0.0019
      7  CG2       41.1760   41.6910   40.4450 C.3    51  ILE51       0.0019
      8  CD1       43.3650   41.1270   42.5790 C.3    51  ILE51       0.0001
      9  N         39.8870   39.1670   37.3220 N.3    53  LYS53      -0.1245
     10  CA        38.5040   38.7080   37.3180 C.3    53  LYS53       0.1561
     11  C         37.8050   39.1860   36.0490 C.2    53  LYS53       0.2260
     12  O         38.3010   40.0760   35.3580 O.2    53  LYS53      -0.2867
     13  CB        37.7700   39.2530   38.5410 C.3    53  LYS53       0.0271
     14  CG        37.5850   40.7580   38.4970 C.3    53  LYS53       0.0035
     15  CD        37.2280   41.3390   39.8480 C.3    53  LYS53       0.0206
     16  CE        36.9900   42.8350   39.7310 C.3    53  LYS53       0.1093
     17  NZ        37.0430   43.5290   41.0410 N.3    53  LYS53      -0.1314
     18  N         39.2650   41.5710   33.0550 N.3    57  TYR57      -0.1241
     19  CA        38.6270   42.8500   32.7600 C.3    57  TYR57       0.1605
     20  C         38.2580   42.9680   31.2830 C.2    57  TYR57       0.2264
     21  O         38.2890   44.0570   30.7110 O.2    57  TYR57      -0.2867
     22  CB        39.5500   44.0040   33.1660 C.3    57  TYR57       0.0534
     23  CG        39.5430   44.3070   34.6480 C.ar   57  TYR57      -0.0201
     24  CD1       39.7900   43.3110   35.5830 C.ar   57  TYR57      -0.0009
     25  CD2       39.2800   45.5890   35.1110 C.ar   57  TYR57      -0.0009
     26  CE1       39.7810   43.5850   36.9370 C.ar   57  TYR57       0.0417
     27  CE2       39.2720   45.8720   36.4600 C.ar   57  TYR57       0.0417
     28  CZ        39.5210   44.8680   37.3700 C.ar   57  TYR57       0.1957
     29  OH        39.5100   45.1480   38.7170 O.3    57  TYR57      -0.2866
     30  N         38.6460   36.5400   44.6860 N.3    99  VAL99      -0.1245
     31  CA        38.4200   37.8350   45.3240 C.3    99  VAL99       0.1561
     32  C         36.9480   38.0670   45.6580 C.2    99  VAL99       0.2260
     33  O         36.5430   39.1900   45.9600 O.2    99  VAL99      -0.2867
     34  CB        38.9340   39.0010   44.4520 C.3    99  VAL99       0.0252
     35  CG1       40.4330   38.8730   44.2270 C.3    99  VAL99       0.0019
     36  CG2       38.1900   39.0580   43.1260 C.3    99  VAL99       0.0019
     37  N         30.2350   43.4720   52.0390 N.3   152  ARG152     -0.1231
     38  CA        30.0180   42.5970   50.8960 C.3   152  ARG152      0.1694
     39  C         30.4810   41.1740   51.2030 C.2   152  ARG152      0.2592
     40  O         29.6620   40.2710   51.3690 O.2   152  ARG152     -0.2718
     41  CB        30.7520   43.1460   49.6690 C.3   152  ARG152      0.0321
     42  CG        30.5680   42.3150   48.4090 C.3   152  ARG152      0.0489
     43  CD        31.1750   42.9940   47.1890 C.3   152  ARG152      0.2205
     44  NE        32.6060   43.2470   47.3420 N.pl3 152  ARG152     -0.0865
     45  CZ        33.4040   43.6590   46.3600 C.cat 152  ARG152      0.5346
     46  NH1       32.9180   43.8630   45.1430 N.pl3 152  ARG152      0.1354
     47  NH2       34.6920   43.8630   46.5940 N.pl3 152  ARG152      0.1354
     48  N         31.7950   40.9850   51.2920 N.am  153  ASN153     -0.1974
     49  CA        32.3690   39.6620   51.5170 C.3   153  ASN153      0.1688
     50  C         32.8950   39.4660   52.9380 C.2   153  ASN153      0.2292
     51  O         33.2220   38.3470   53.3300 O.2   153  ASN153     -0.2864
     52  CB        33.5180   39.4140   50.5350 C.3   153  ASN153      0.1181
     53  CG        33.0500   39.2960   49.0980 C.2   153  ASN153      0.2629
     54  OD1       32.1440   38.5230   48.7880 O.2   153  ASN153     -0.2716
     55  ND2       33.6710   40.0640   48.2100 N.am  153  ASN153     -0.0877
     56  N         42.1500   40.2850   54.8770 N.3   181  MET181     -0.1245
     57  CA        41.9300   41.3500   53.9080 C.3   181  MET181      0.1570
     58  C         40.7030   42.1930   54.2140 C.2   181  MET181      0.2261
     59  O         39.8260   41.7940   54.9780 O.2   181  MET181     -0.2867
     60  CB        41.7950   40.7600   52.5010 C.3   181  MET181      0.0387
     61  CG        40.5480   39.9060   52.2950 C.3   181  MET181      0.0595
     62  SD        39.0470   40.8630   51.9810 S.3   181  MET181     -0.1393
     63  CE        39.2800   41.3270   50.2670 C.3   181  MET181      0.0692
     64  N         38.4150   45.6790   51.9630 N.3   183  HIS183     -0.1241
     65  CA        38.2730   46.3420   50.6720 C.3   183  HIS183      0.1621
     66  C         37.6220   47.7110   50.8350 C.2   183  HIS183      0.2264
     67  O         36.6440   47.8580   51.5650 O.2   183  HIS183     -0.2867
     68  CB        37.4440   45.4740   49.7270 C.3   183  HIS183      0.0745
     69  CG        37.4060   45.9790   48.3200 C.ar  183  HIS183      0.0817
     70  ND1       38.5400   46.1230   47.5500 N.ar  183  HIS183     -0.2268
     71  CD2       36.3710   46.3700   47.5410 C.ar  183  HIS183      0.1154
     72  CE1       38.2050   46.5840   46.3590 C.ar  183  HIS183      0.1986
     73  NE2       36.8950   46.7410   46.3270 N.ar  183  HIS183     -0.2212
     74  N         36.5950   55.6990   46.6530 N.3   187  GLU187     -0.1245
     75  CA        37.8510   56.1910   46.0980 C.3   187  GLU187      0.1567
     76  C         38.1340   57.6100   46.5810 C.2   187  GLU187      0.2260
     77  O         38.1630   58.5550   45.7930 O.2   187  GLU187     -0.2867
     78  CB        37.8190   56.1520   44.5690 C.3   187  GLU187      0.0388
     79  CG        37.9140   54.7510   43.9890 C.3   187  GLU187      0.1160
     80  CD        38.0200   54.7490   42.4770 C.2   187  GLU187      0.3649
     81  OE1       37.4930   55.6850   41.8400 O.co2 187  GLU187     -0.2457
     82  OE2       38.6370   53.8140   41.9250 O.co2 187  GLU187     -0.2457
     83  N         43.1130   48.4710   46.5190 N.3   223  ASN223     -0.1225
     84  CA        42.8650   48.3610   45.0870 C.3   223  ASN223      0.1785
     85  C         43.6910   49.4210   44.3570 C.2   223  ASN223      0.2598
     86  O         44.5930   50.0160   44.9450 O.2   223  ASN223     -0.2718
     87  CB        41.3730   48.5150   44.7810 C.3   223  ASN223      0.1169
     88  CG        40.7890   49.8010   45.3330 C.2   223  ASN223      0.2627
     89  OD1       41.5130   50.6690   45.8200 O.2   223  ASN223     -0.2716
     90  ND2       39.4690   49.9310   45.2540 N.am  223  ASN223     -0.0877
     91  N         43.3910   49.6600   43.0840 N.am  224  SER224     -0.1938
     92  CA        44.1730   50.6060   42.2890 C.3   224  SER224      0.2055
     93  C         44.2650   51.9880   42.9320 C.2   224  SER224      0.2643
     94  O         45.3590   52.5280   43.0990 O.2   224  SER224     -0.2714
     95  CB        43.5930   50.7300   40.8800 C.3   224  SER224      0.2130
     96  OG        43.8720   49.5710   40.1150 O.3   224  SER224     -0.2179
     97  N         43.1200   52.5610   43.2870 N.am  225  PHE225     -0.1973
     98  CA        43.0930   53.9030   43.8590 C.3   225  PHE225      0.1639
     99  C         43.9340   53.9840   45.1280 C.2   225  PHE225      0.2290
    100  O         44.7920   54.8560   45.2600 O.2   225  PHE225     -0.2864
    101  CB        41.6590   54.3340   44.1680 C.3   225  PHE225      0.0560
    102  CG        41.5670   55.6630   44.8630 C.ar  225  PHE225     -0.0200
    103  CD1       41.4860   56.8380   44.1340 C.ar  225  PHE225     -0.0042
    104  CD2       41.5710   55.7380   46.2460 C.ar  225  PHE225     -0.0042
    105  CE1       41.4050   58.0620   44.7720 C.ar  225  PHE225     -0.0003
    106  CE2       41.4900   56.9590   46.8890 C.ar  225  PHE225     -0.0003
    107  CZ        41.4070   58.1220   46.1510 C.ar  225  PHE225     -0.0000
    108  N         46.2860   44.8340   45.5680 N.3   239  ARG239     -0.1245
    109  CA        45.4300   44.1610   44.5990 C.3   239  ARG239      0.1563
    110  C         45.0040   45.1080   43.4840 C.2   239  ARG239      0.2260
    111  O         43.8330   45.4750   43.3890 O.2   239  ARG239     -0.2867
    112  CB        44.1870   43.6030   45.2920 C.3   239  ARG239      0.0307
    113  CG        44.4850   42.6480   46.4360 C.3   239  ARG239      0.0489
    114  CD        43.2600   41.8240   46.8020 C.3   239  ARG239      0.2205
    115  NE        42.1140   42.6540   47.1610 N.pl3 239  ARG239     -0.0865
    116  CZ        41.9450   43.2490   48.3380 C.cat 239  ARG239      0.5346
    117  NH1       42.8550   43.1290   49.2970 N.pl3 239  ARG239      0.1354
    118  NH2       40.8600   43.9760   48.5570 N.pl3 239  ARG239      0.1354
    119  N         43.8740   46.3150   39.8680 N.3   241  GLY241     -0.1210
    120  CA        43.1770   45.8060   38.7020 C.3   241  GLY241      0.1956
    121  C         43.2380   46.7940   37.5560 C.2   241  GLY241      0.2612
    122  O         44.1130   46.7070   36.6970 O.2   241  GLY241     -0.2717
    123  N         42.3060   47.7430   37.5530 N.am  242  GLY242     -0.1956
    124  CA        42.2170   48.7380   36.4990 C.3   242  GLY242      0.1869
    125  C         43.5570   49.3530   36.1490 C.2   242  GLY242      0.2309
    126  O         43.8560   49.5860   34.9790 O.2   242  GLY242     -0.2863
@<TRIPOS>BOND
     1    21    20    2
     2    20    19    1
     3    19    18    1
     4    19    22    1
     5    22    23    1
     6    23    25   ar
     7    23    24   ar
     8   126   125    2
     9    25    27   ar
    10    12    11    2
    11    24    26   ar
    12    11    10    1
    13   125   124    1
    14    27    28   ar
    15   124   123    1
    16   122   121    2
    17    26    28   ar
    18    10     9    1
    19    10    13    1
    20    28    29    1
    21     4     3    2
    22   123   121   am
    23   121   120    1
    24     3     2    1
    25    14    13    1
    26    14    15    1
    27   120   119    1
    28     1     2    1
    29     2     5    1
    30    16    15    1
    31    16    17    1
    32    96    95    1
    33     5     7    1
    34     5     6    1
    35    95    92    1
    36     6     8    1
    37    81    80   ar
    38    82    80   ar
    39    92    93    1
    40    92    91    1
    41    80    79    1
    42    93    94    2
    43    93    97   am
    44    91    85   am
    45    36    34    1
    46    97    98    1
    47   111   110    2
    48   110   109    1
    49    98   101    1
    50    98    99    1
    51    79    78    1
    52   103   105   ar
    53   103   102   ar
    54   101   102    1
    55    35    34    1
    56    85    86    2
    57    85    84    1
    58    34    31    1
    59    78    75    1
    60   109   112    1
    61   109   108    1
    62    30    31    1
    63   105   107   ar
    64    87    84    1
    65    87    88    1
    66   102   104   ar
    67    84    83    1
    68    99   100    2
    69    46    45    1
    70    90    88   am
    71   112   113    1
    72    31    32    1
    73    88    89    2
    74    32    33    2
    75    77    76    2
    76    75    76    1
    77    75    74    1
    78   107   106   ar
    79   104   106   ar
    80    73    72   ar
    81    73    71   ar
    82    72    70   ar
    83    45    47    1
    84    45    44    2
    85   113   114    1
    86   114   115    1
    87   115   116    2
    88    43    44    1
    89    43    42    1
    90    71    69   ar
    91    70    69   ar
    92    55    53   am
    93    69    68    1
    94   116   118    1
    95   116   117    1
    96    42    41    1
    97    54    53    2
    98    53    52    1
    99    41    38    1
   100    68    65    1
   101    63    62    1
   102    52    49    1
   103    65    66    1
   104    65    64    1
   105    66    67    2
   106    38    39    1
   107    38    37    1
   108    39    48   am
   109    39    40    2
   110    48    49    1
   111    49    50    1
   112    62    61    1
   113    61    60    1
   114    60    57    1
   115    50    51    2
   116    57    58    1
   117    57    56    1
   118    58    59    2
