@<TRIPOS>MOLECULE
tmp/4bf6A00.pdb
 134 132 0 0 0
SMALL
GASTEIGER

@<TRIPOS>ATOM
      1  N         -8.4870    0.3360    5.8050 N.3    64  ASN64      -0.1240
      2  CA        -9.3360    1.2730    6.5470 C.3    64  ASN64       0.1653
      3  C        -10.5140    1.6960    5.6880 C.2    64  ASN64       0.2266
      4  O        -10.3620    2.0680    4.5170 O.2    64  ASN64      -0.2867
      5  CB        -8.5790    2.5590    6.9600 C.3    64  ASN64       0.1155
      6  CG        -7.4820    2.3240    7.9640 C.2    64  ASN64       0.2627
      7  OD1       -7.3350    1.2730    8.5740 O.2    64  ASN64      -0.2716
      8  ND2       -6.6890    3.3560    8.1520 N.am   64  ASN64      -0.0877
      9  N        -13.9630    8.2340   12.7580 N.3    88  ILE88      -0.1231
     10  CA       -13.0520    8.5850   11.6500 C.3    88  ILE88       0.1692
     11  C        -12.7890    7.4010   10.7080 C.2    88  ILE88       0.2591
     12  O        -12.6860    7.5900    9.4970 O.2    88  ILE88      -0.2718
     13  CB       -11.7430    9.2030   12.1740 C.3    88  ILE88       0.0266
     14  CG1      -10.7660    9.4680   10.9780 C.3    88  ILE88       0.0019
     15  CG2      -11.0580    8.2480   13.1580 C.3    88  ILE88       0.0020
     16  CD1       -9.6090   10.3820   11.2790 C.3    88  ILE88       0.0001
     17  N        -12.6680    6.1610   11.2250 N.am   89  GLN89      -0.1979
     18  CA       -12.3860    5.0250   10.3770 C.3    89  GLN89       0.1601
     19  C        -12.6420    3.7550   11.1690 C.2    89  GLN89       0.2287
     20  O        -12.7310    3.8380   12.4200 O.2    89  GLN89      -0.2864
     21  CB       -10.9350    5.0350    9.8480 C.3    89  GLN89       0.0394
     22  CG        -9.8670    5.0620   10.9330 C.3    89  GLN89       0.0908
     23  CD        -9.1440    3.7390   11.1080 C.2    89  GLN89       0.2608
     24  OE1       -9.6870    2.6800   10.9620 O.2    89  GLN89      -0.2717
     25  NE2       -7.9020    3.8150   11.4560 N.am   89  GLN89      -0.0878
     26  N        -11.2510   -0.5370   10.9050 N.3    91  HIS91      -0.1241
     27  CA       -10.3620   -1.4950   10.3430 C.3    91  HIS91       0.1621
     28  C        -10.4240   -2.7570   11.1990 C.2    91  HIS91       0.2264
     29  O        -11.1370   -2.8500   12.2380 O.2    91  HIS91      -0.2867
     30  CB        -8.9150   -0.9680   10.3200 C.3    91  HIS91       0.0745
     31  CG        -8.3680   -0.6670   11.6800 C.ar   91  HIS91       0.0817
     32  ND1       -8.5360    0.5520   12.3080 N.ar   91  HIS91      -0.2268
     33  CD2       -7.7370   -1.4660   12.5630 C.ar   91  HIS91       0.1154
     34  CE1       -8.0430    0.4640   13.5300 C.ar   91  HIS91       0.1986
     35  NE2       -7.5080   -0.7350   13.6850 N.ar   91  HIS91      -0.2212
     36  N         -8.0370   -6.4530   12.5330 N.3    93  HIS93      -0.1241
     37  CA        -6.8710   -7.2870   12.6430 C.3    93  HIS93       0.1621
     38  C         -7.2310   -8.7670   12.5580 C.2    93  HIS93       0.2264
     39  O         -8.2610   -9.1500   13.0550 O.2    93  HIS93      -0.2867
     40  CB        -6.0970   -7.0480   13.9420 C.3    93  HIS93       0.0745
     41  CG        -5.8640   -5.6120   14.2410 C.ar   93  HIS93       0.0817
     42  ND1       -4.6590   -4.9850   13.9690 N.ar   93  HIS93      -0.2268
     43  CD2       -6.7170   -4.6380   14.6510 C.ar   93  HIS93       0.1154
     44  CE1       -4.7540   -3.7090   14.3070 C.ar   93  HIS93       0.1986
     45  NE2       -5.9930   -3.4790   14.7220 N.ar   93  HIS93      -0.2212
     46  N        -12.0140   -2.6880   14.8800 N.3   116  HIS116     -0.1241
     47  CA       -11.7880   -1.4650   15.6080 C.3   116  HIS116      0.1621
     48  C        -12.4590   -0.2860   14.9320 C.2   116  HIS116      0.2264
     49  O        -12.1100    0.0230   13.7800 O.2   116  HIS116     -0.2867
     50  CB       -10.2340   -1.1890   15.7070 C.3   116  HIS116      0.0745
     51  CG        -9.5230   -2.1630   16.6150 C.ar  116  HIS116      0.0817
     52  ND1       -8.1510   -2.3550   16.6060 N.ar  116  HIS116     -0.2268
     53  CD2      -10.0070   -3.0260   17.5290 C.ar  116  HIS116      0.1154
     54  CE1       -7.8250   -3.2790   17.4930 C.ar  116  HIS116      0.1986
     55  NE2       -8.9300   -3.6730   18.0930 N.ar  116  HIS116     -0.2212
     56  N        -12.7720    3.4890   15.2410 N.3   118  VAL118     -0.1245
     57  CA       -11.8600    4.4470   15.8410 C.3   118  VAL118      0.1561
     58  C        -12.5870    5.8480   15.8640 C.2   118  VAL118      0.2260
     59  O        -13.0850    6.3130   14.8200 O.2   118  VAL118     -0.2867
     60  CB       -10.6000    4.5760   15.0260 C.3   118  VAL118      0.0252
     61  CG1       -9.6450    5.5790   15.6470 C.3   118  VAL118      0.0019
     62  CG2       -9.8910    3.2460   14.9150 C.3   118  VAL118      0.0019
     63  N         -7.9820   15.0550   14.7330 N.3   127  PHE127     -0.1227
     64  CA        -7.3780   13.7690   15.1600 C.3   127  PHE127      0.1736
     65  C         -5.9720   13.8720   15.6540 C.2   127  PHE127      0.2596
     66  O         -5.6290   13.2950   16.6920 O.2   127  PHE127     -0.2718
     67  CB        -7.5090   12.7130   14.0370 C.3   127  PHE127      0.0547
     68  CG        -6.9420   11.3870   14.3630 C.ar  127  PHE127     -0.0202
     69  CD1       -5.5890   11.1420   14.1900 C.ar  127  PHE127     -0.0042
     70  CD2       -7.7470   10.3510   14.8340 C.ar  127  PHE127     -0.0042
     71  CE1       -5.0580    9.9210   14.4050 C.ar  127  PHE127     -0.0003
     72  CE2       -7.1930    9.1180   15.1120 C.ar  127  PHE127     -0.0003
     73  CZ        -5.8470    8.8970   14.8770 C.ar  127  PHE127     -0.0000
     74  N         -5.1300   14.6240   14.9340 N.am  128  GLY128     -0.1957
     75  CA        -3.7250   14.7490   15.2800 C.3   128  GLY128      0.1869
     76  C         -3.5250   15.4040   16.6360 C.2   128  GLY128      0.2309
     77  O         -2.6790   14.9990   17.3830 O.2   128  GLY128     -0.2863
     78  N        -11.8110    3.7270   21.0640 N.3   139  VAL139     -0.1245
     79  CA       -11.8960    2.6750   20.0670 C.3   139  VAL139      0.1561
     80  C        -12.8430    1.6150   20.5830 C.2   139  VAL139      0.2260
     81  O        -12.6680    1.1380   21.7360 O.2   139  VAL139     -0.2867
     82  CB       -10.5240    2.0640   19.7220 C.3   139  VAL139      0.0252
     83  CG1      -10.6050    1.0580   18.5650 C.3   139  VAL139      0.0019
     84  CG2       -9.5640    3.1510   19.2540 C.3   139  VAL139      0.0019
     85  N         -2.9420    3.1790   21.1990 N.3   194  LEU194     -0.1231
     86  CA        -2.9440    2.6370   19.8280 C.3   194  LEU194      0.1693
     87  C         -2.1690    1.3040   19.8770 C.2   194  LEU194      0.2593
     88  O         -1.1720    1.1800   20.6260 O.2   194  LEU194     -0.2718
     89  CB        -2.2910    3.6160   18.8610 C.3   194  LEU194      0.0284
     90  CG        -2.9000    5.0260   18.7940 C.3   194  LEU194      0.0019
     91  CD1       -2.0050    5.9180   17.9530 C.3   194  LEU194      0.0001
     92  CD2       -4.3330    4.9760   18.2760 C.3   194  LEU194      0.0001
     93  N         -2.6180    0.3060   19.1020 N.am  195  THR195     -0.1939
     94  CA        -1.9440   -0.9940   19.1110 C.3   195  THR195      0.2028
     95  C         -0.9530   -1.1070   17.9400 C.2   195  THR195      0.2643
     96  O         -0.3530   -2.1710   17.7300 O.2   195  THR195     -0.2714
     97  CB        -2.9720   -2.1250   18.9610 C.3   195  THR195      0.1808
     98  OG1       -3.5500   -2.1060   17.6410 O.3   195  THR195     -0.2208
     99  CG2       -4.0330   -2.0880   20.0620 C.3   195  THR195      0.0379
    100  N         -0.7760   -0.0200   17.2150 N.am  196  THR196     -0.1937
    101  CA         0.3070    0.0790   16.2150 C.3   196  THR196      0.2013
    102  C          1.1730    1.2920   16.5260 C.2   196  THR196      0.2484
    103  O          0.6770    2.2430   17.1360 O.2   196  THR196     -0.2729
    104  CB        -0.1440    0.2340   14.7740 C.3   196  THR196      0.1807
    105  OG1       -0.8060    1.5320   14.5180 O.3   196  THR196     -0.2208
    106  CG2       -1.0940   -0.8400   14.3530 C.3   196  THR196      0.0379
    107  N          2.3970    1.3030   15.9790 N.am  197  PRO197     -0.2715
    108  CA         3.1400    2.5520   16.0960 C.3   197  PRO197      0.1521
    109  C          2.2640    3.6860   15.6040 C.2   197  PRO197      0.2440
    110  O          1.5270    3.5290   14.5610 O.2   197  PRO197     -0.2731
    111  CB         4.4070    2.2740   15.2600 C.3   197  PRO197      0.0310
    112  CG         4.6630    0.8270   15.5580 C.3   197  PRO197      0.0237
    113  CD         3.2460    0.2430   15.4100 C.3   197  PRO197      0.0939
    114  N          2.3360    4.8520   16.2960 N.am  198  PRO198     -0.2727
    115  CA         3.2690    5.3350   17.3020 C.3   198  PRO198      0.1402
    116  C          2.9070    4.9870   18.7600 C.2   198  PRO198      0.2269
    117  O          3.6200    5.4160   19.6530 O.2   198  PRO198     -0.2865
    118  CB         3.2250    6.8600   17.0990 C.3   198  PRO198      0.0296
    119  CG         1.8530    7.0810   16.7050 C.3   198  PRO198      0.0237
    120  CD         1.5260    5.9590   15.7650 C.3   198  PRO198      0.0939
    121  N        -10.4130    2.3300   25.5590 N.3   205  TRP205     -0.1241
    122  CA       -10.8540    1.0960   24.9260 C.3   205  TRP205      0.1605
    123  C        -12.2200    0.6810   25.4510 C.2   205  TRP205      0.2264
    124  O        -12.4600    0.6630   26.7050 O.2   205  TRP205     -0.2867
    125  CB        -9.8110   -0.0370   25.2160 C.3   205  TRP205      0.0550
    126  CG        -8.6920    0.0710   24.1630 C.ar  205  TRP205      0.0003
    127  CD1       -7.5130    0.6660   24.2980 C.ar  205  TRP205      0.0946
    128  CD2       -8.7920   -0.3170   22.7660 C.ar  205  TRP205      0.0152
    129  NE1       -6.8170    0.6500   23.0890 N.ar  205  TRP205     -0.2442
    130  CE2       -7.5690   -0.0010   22.1660 C.ar  205  TRP205      0.0810
    131  CE3       -9.7900   -0.9550   21.9840 C.ar  205  TRP205      0.0012
    132  CZ2       -7.3130   -0.2400   20.8370 C.ar  205  TRP205      0.0191
    133  CZ3       -9.4830   -1.2540   20.6900 C.ar  205  TRP205      0.0001
    134  CH2       -8.2530   -0.8980   20.1490 C.ar  205  TRP205      0.0015
@<TRIPOS>BOND
     1     4     3    2
     2     3     2    1
     3     1     2    1
     4     2     5    1
     5     5     6    1
     6     6     8   am
     7     6     7    2
     8    12    11    2
     9    21    18    1
    10    21    22    1
    11    30    27    1
    12    30    31    1
    13    27    26    1
    14    27    28    1
    15    18    19    1
    16    18    17    1
    17    11    17   am
    18    11    10    1
    19    22    23    1
    20    24    23    2
    21    14    16    1
    22    14    13    1
    23    23    25   am
    24    19    20    2
    25    28    29    2
    26    10    13    1
    27    10     9    1
    28    31    32   ar
    29    31    33   ar
    30    13    15    1
    31    32    34   ar
    32    36    37    1
    33    38    37    1
    34    38    39    2
    35    33    35   ar
    36    37    40    1
    37    34    35   ar
    38    49    48    2
    39    40    41    1
    40    42    41   ar
    41    42    44   ar
    42    67    68    1
    43    67    64    1
    44    69    68   ar
    45    69    71   ar
    46    41    43   ar
    47    44    45   ar
    48   106   104    1
    49    68    70   ar
    50    71    73   ar
    51   105   104    1
    52   110   109    2
    53    43    45   ar
    54    63    64    1
    55   104   101    1
    56    59    58    2
    57    70    72   ar
    58    73    72   ar
    59    46    47    1
    60    62    60    1
    61    48    47    1
    62    74    75    1
    63    74    65   am
    64    60    61    1
    65    60    57    1
    66    64    65    1
    67    56    57    1
    68   111   112    1
    69   111   108    1
    70    75    76    1
    71   113   112    1
    72   113   107    1
    73   109   108    1
    74   109   114   am
    75    47    50    1
    76    65    66    2
    77    50    51    1
    78   120   114    1
    79   120   119    1
    80    57    58    1
    81   107   108    1
    82   107   102   am
    83   101   102    1
    84   101   100    1
    85   114   115    1
    86   102   103    2
    87    52    51   ar
    88    52    54   ar
    89    51    53   ar
    90    76    77    2
    91   119   118    1
    92   118   115    1
    93   100    95   am
    94   115   116    1
    95    54    55   ar
    96    53    55   ar
    97    98    97    1
    98    96    95    2
    99    95    94    1
   100    91    90    1
   101    92    90    1
   102    83    82    1
   103   116   117    2
   104    90    89    1
   105    89    86    1
   106    97    94    1
   107    97    99    1
   108    93    94    1
   109    93    87   am
   110    84    82    1
   111    82    79    1
   112    86    87    1
   113    86    85    1
   114    87    88    2
   115    79    80    1
   116    79    78    1
   117   134   133   ar
   118   134   132   ar
   119    80    81    2
   120   133   131   ar
   121   132   130   ar
   122   131   128   ar
   123   130   128   ar
   124   130   129   ar
   125   128   126   ar
   126   129   127   ar
   127   126   127   ar
   128   126   125    1
   129   122   125    1
   130   122   123    1
   131   122   121    1
   132   123   124    2
