@<TRIPOS>MOLECULE
tmp/4bfaA00.pdb
 235 227 0 0 0
SMALL
GASTEIGER

@<TRIPOS>ATOM
      1  N         27.6690    7.3290    6.6680 N.3     8  ALA8       -0.1231
      2  CA        28.0330    5.9270    6.5500 C.3     8  ALA8        0.1679
      3  C         29.4330    5.7010    5.9910 C.2     8  ALA8        0.2434
      4  O         29.9450    6.5040    5.2030 O.2     8  ALA8       -0.2733
      5  CB        27.0300    5.2220    5.6610 C.3     8  ALA8        0.0304
      6  N         30.0480    4.5760    6.3740 N.am    9  PRO9       -0.2718
      7  CA        31.2370    4.1220    5.6640 C.3     9  PRO9        0.1535
      8  C         30.8320    3.6390    4.2600 C.2     9  PRO9        0.2598
      9  O         29.8410    2.9060    4.1220 O.2     9  PRO9       -0.2715
     10  CB        31.7160    2.9540    6.5180 C.3     9  PRO9        0.0310
     11  CG        30.4600    2.4230    7.1510 C.3     9  PRO9        0.0237
     12  CD        29.5350    3.5770    7.3300 C.3     9  PRO9        0.0939
     13  N         31.5530    4.0840    3.2340 N.am   10  MET10      -0.1964
     14  CA        31.3020    3.6490    1.8650 C.3    10  MET10       0.1736
     15  C         32.6160    3.4670    1.1230 C.2    10  MET10       0.2616
     16  O         33.1730    4.4300    0.5840 O.2    10  MET10      -0.2715
     17  CB        30.3740    4.6210    1.1240 C.3    10  MET10       0.0427
     18  CG        28.9550    4.6700    1.6860 C.3    10  MET10       0.0599
     19  SD        27.8860    5.7910    0.7520 S.3    10  MET10      -0.1393
     20  CE        27.6390    4.7850   -0.7040 C.3    10  MET10       0.0692
     21  N         33.0950    2.2210    1.1220 N.am   11  GLU11      -0.1977
     22  CA        34.3000    1.8210    0.4010 C.3    11  GLU11       0.1602
     23  C         34.2710    2.3140   -1.0310 C.2    11  GLU11       0.2287
     24  O         33.3070    2.0660   -1.7660 O.2    11  GLU11      -0.2864
     25  CB        34.4380    0.2880    0.3650 C.3    11  GLU11       0.0415
     26  CG        35.6900   -0.1800   -0.3880 C.3    11  GLU11       0.1163
     27  CD        35.6610   -1.6500   -0.7790 C.2    11  GLU11       0.3649
     28  OE1       34.5760   -2.2840   -0.7290 O.co2  11  GLU11      -0.2457
     29  OE2       36.7360   -2.1740   -1.1530 O.co2  11  GLU11      -0.2457
     30  N         33.9180    5.2480   -2.1860 N.3    13  VAL13      -0.1245
     31  CA        33.0430    6.4010   -2.4200 C.3    13  VAL13       0.1561
     32  C         33.3480    7.5200   -1.4220 C.2    13  VAL13       0.2260
     33  O         33.7540    8.6170   -1.8160 O.2    13  VAL13      -0.2867
     34  CB        31.5540    6.0290   -2.3120 C.3    13  VAL13       0.0252
     35  CG1       30.6720    7.1870   -2.7380 C.3    13  VAL13       0.0019
     36  CG2       31.2280    4.7950   -3.1340 C.3    13  VAL13       0.0019
     37  N         36.2250    4.4130    5.2750 N.3    34  GLU34      -0.1231
     38  CA        36.2920    3.1520    4.5540 C.3    34  GLU34       0.1699
     39  C         37.0180    2.1060    5.4230 C.2    34  GLU34       0.2592
     40  O         37.8640    2.4510    6.2440 O.2    34  GLU34      -0.2718
     41  CB        37.0370    3.3280    3.2420 C.3    34  GLU34       0.0402
     42  CG        36.4660    4.4000    2.3280 C.3    34  GLU34       0.1161
     43  CD        37.4580    4.8250    1.2640 C.2    34  GLU34       0.3649
     44  OE1       38.3460    5.6580    1.5730 O.co2  34  GLU34      -0.2457
     45  OE2       37.3570    4.3280    0.1230 O.co2  34  GLU34      -0.2457
     46  N         36.7070    0.8270    5.2470 N.am   35  PHE35      -0.1976
     47  CA        37.3000   -0.1830    6.1350 C.3    35  PHE35       0.1639
     48  C         38.7880   -0.3980    5.8810 C.2    35  PHE35       0.2290
     49  O         39.2850   -0.2710    4.7470 O.2    35  PHE35      -0.2864
     50  CB        36.5810   -1.5280    6.0670 C.3    35  PHE35       0.0560
     51  CG        36.6080   -2.1850    4.7060 C.ar   35  PHE35      -0.0200
     52  CD1       37.6980   -2.9590    4.2920 C.ar   35  PHE35      -0.0042
     53  CD2       35.5160   -2.0800    3.8630 C.ar   35  PHE35      -0.0042
     54  CE1       37.6910   -3.5830    3.0510 C.ar   35  PHE35      -0.0003
     55  CE2       35.5210   -2.6720    2.6060 C.ar   35  PHE35      -0.0003
     56  CZ        36.6130   -3.4300    2.2050 C.ar   35  PHE35      -0.0000
     57  N         37.0970    2.4410   10.6600 N.3    70  GLN70      -0.1245
     58  CA        36.4370    1.1280   10.6600 C.3    70  GLN70       0.1566
     59  C         37.4170    0.0140   10.3070 C.2    70  GLN70       0.2260
     60  O         38.2400    0.1660    9.3940 O.2    70  GLN70      -0.2867
     61  CB        35.2860    1.0970    9.6540 C.3    70  GLN70       0.0367
     62  CG        34.5350   -0.2250    9.6740 C.3    70  GLN70       0.0905
     63  CD        33.4410   -0.3180    8.6370 C.2    70  GLN70       0.2608
     64  OE1       33.7160   -0.4900    7.4510 O.2    70  GLN70      -0.2717
     65  NE2       32.1910   -0.2230    9.0830 N.am   70  GLN70      -0.0878
     66  N         33.0600   -3.6290   11.0440 N.3    97  ASN97      -0.1240
     67  CA        32.1530   -3.9710    9.9220 C.3    97  ASN97       0.1653
     68  C         31.6590   -5.3920   10.0380 C.2    97  ASN97       0.2266
     69  O         32.4640   -6.3320    9.9750 O.2    97  ASN97      -0.2867
     70  CB        32.9230   -3.8170    8.6160 C.3    97  ASN97       0.1155
     71  CG        32.0730   -3.9870    7.3760 C.2    97  ASN97       0.2627
     72  OD1       31.1160   -4.7680    7.3310 O.2    97  ASN97      -0.2716
     73  ND2       32.4340   -3.2310    6.3380 N.am   97  ASN97      -0.0877
     74  N         28.4440   -5.9830    8.2120 N.3    99  GLY99      -0.1210
     75  CA        27.3460   -5.8870    7.2530 C.3    99  GLY99       0.1956
     76  C         27.6790   -5.9420    5.7620 C.2    99  GLY99       0.2612
     77  O         26.7860   -6.2290    4.9680 O.2    99  GLY99      -0.2717
     78  N         28.9280   -5.6570    5.3600 N.am  100  CYS100     -0.1970
     79  CA        29.3540   -5.6860    3.9440 C.3   100  CYS100      0.1712
     80  C         29.5860   -7.0830    3.4500 C.2   100  CYS100      0.2296
     81  O         30.3330   -7.8210    4.0950 O.2   100  CYS100     -0.2864
     82  CB        30.7150   -5.0240    3.7740 C.3   100  CYS100      0.0983
     83  SG        30.6380   -3.2510    3.6660 S.3   100  CYS100     -0.0798
     84  N         28.7150   -2.3330   13.2200 N.3   141  LYS141     -0.1245
     85  CA        27.7070   -2.1630   12.1990 C.3   141  LYS141      0.1561
     86  C         27.3130   -3.5380   11.6790 C.2   141  LYS141      0.2260
     87  O         28.1750   -4.3180   11.2750 O.2   141  LYS141     -0.2867
     88  CB        28.2470   -1.2720   11.0860 C.3   141  LYS141      0.0271
     89  CG        27.2630   -0.9740    9.9840 C.3   141  LYS141      0.0035
     90  CD        27.8000    0.2210    9.1600 C.3   141  LYS141      0.0206
     91  CE        26.9600    0.5240    7.9630 C.3   141  LYS141      0.1093
     92  NZ        27.0470   -0.5180    6.9210 N.3   141  LYS141     -0.1314
     93  N         24.0000   -6.1280    9.6810 N.3   143  ARG143     -0.1245
     94  CA        22.7210   -6.3540    9.0320 C.3   143  ARG143      0.1563
     95  C         21.8700   -7.2560    9.9540 C.2   143  ARG143      0.2260
     96  O         22.3250   -7.6830   11.0190 O.2   143  ARG143     -0.2867
     97  CB        22.9210   -6.9960    7.6530 C.3   143  ARG143      0.0307
     98  CG        23.4160   -6.0470    6.5740 C.3   143  ARG143      0.0489
     99  CD        23.5310   -6.7660    5.2330 C.3   143  ARG143      0.2205
    100  NE        23.9690   -5.8760    4.1640 N.pl3 143  ARG143     -0.0865
    101  CZ        23.2270   -5.4320    3.1550 C.cat 143  ARG143      0.5346
    102  NH1       21.9560   -5.7790    3.0010 N.pl3 143  ARG143      0.1354
    103  NH2       23.7830   -4.6150    2.2700 N.pl3 143  ARG143      0.1354
    104  N         21.7870   -1.8560    9.7700 N.3   170  HIS170     -0.1241
    105  CA        21.2020   -1.8000    8.4160 C.3   170  HIS170      0.1621
    106  C         20.0300   -2.7770    8.3740 C.2   170  HIS170      0.2264
    107  O         20.2190   -3.9880    8.5220 O.2   170  HIS170     -0.2867
    108  CB        22.2740   -2.1140    7.3890 C.3   170  HIS170      0.0745
    109  CG        21.8230   -2.0330    5.9530 C.ar  170  HIS170      0.0817
    110  ND1       22.6670   -2.3210    4.9090 N.ar  170  HIS170     -0.2268
    111  CD2       20.6260   -1.7450    5.3980 C.ar  170  HIS170      0.1154
    112  CE1       22.0200   -2.1750    3.7670 C.ar  170  HIS170      0.1986
    113  NE2       20.7810   -1.8230    4.0400 N.ar  170  HIS170     -0.2212
    114  N         18.1590   -4.7360    6.7670 N.3   172  ARG172     -0.1245
    115  CA        17.9650   -5.7450    5.7020 C.3   172  ARG172      0.1563
    116  C         18.9030   -6.8910    6.0250 C.2   172  ARG172      0.2260
    117  O         19.9090   -6.6910    6.6880 O.2   172  ARG172     -0.2867
    118  CB        18.3070   -5.1850    4.2960 C.3   172  ARG172      0.0307
    119  CG        17.1190   -4.5140    3.6280 C.3   172  ARG172      0.0489
    120  CD        17.4530   -3.9570    2.2540 C.3   172  ARG172      0.2205
    121  NE        18.2920   -2.7830    2.4270 N.pl3 172  ARG172     -0.0865
    122  CZ        18.0940   -1.5940    1.8760 C.cat 172  ARG172      0.5346
    123  NH1       17.0790   -1.3710    1.0520 N.pl3 172  ARG172      0.1354
    124  NH2       18.9480   -0.6060    2.1320 N.pl3 172  ARG172      0.1354
    125  N         20.2500   -4.2600   -1.3370 N.3   178  TYR178     -0.1241
    126  CA        19.8280   -2.8670   -1.2400 C.3   178  TYR178      0.1605
    127  C         18.4130   -2.7000   -1.7800 C.2   178  TYR178      0.2264
    128  O         18.0460   -1.6280   -2.2610 O.2   178  TYR178     -0.2867
    129  CB        20.8230   -1.9770   -2.0130 C.3   178  TYR178      0.0534
    130  CG        22.1580   -1.9540   -1.3340 C.ar  178  TYR178     -0.0201
    131  CD1       23.0980   -2.9610   -1.5360 C.ar  178  TYR178     -0.0009
    132  CD2       22.4360   -0.9910   -0.4050 C.ar  178  TYR178     -0.0009
    133  CE1       24.3020   -2.9580   -0.8410 C.ar  178  TYR178      0.0417
    134  CE2       23.6330   -0.9580    0.2560 C.ar  178  TYR178      0.0417
    135  CZ        24.5670   -1.9440    0.0510 C.ar  178  TYR178      0.1957
    136  OH        25.7520   -1.8960    0.7570 O.3   178  TYR178     -0.2866
    137  N         19.6970    2.3740   10.0800 N.3   202  ASN202     -0.1225
    138  CA        20.2860    2.5910    8.7720 C.3   202  ASN202      0.1785
    139  C         19.5150    1.8640    7.6740 C.2   202  ASN202      0.2598
    140  O         19.0180    0.7430    7.8610 O.2   202  ASN202     -0.2718
    141  CB        21.7500    2.1460    8.8040 C.3   202  ASN202      0.1169
    142  CG        22.4170    2.0930    7.4300 C.2   202  ASN202      0.2627
    143  OD1       22.8260    1.0200    6.9860 O.2   202  ASN202     -0.2716
    144  ND2       22.5570    3.2340    6.7760 N.am  202  ASN202     -0.0877
    145  N         19.4070    2.5440    6.5410 N.am  203  GLY203     -0.1942
    146  CA        18.8950    1.9500    5.3100 C.3   203  GLY203      0.2014
    147  C         17.7070    2.7220    4.7640 C.2   203  GLY203      0.2639
    148  O         16.7190    2.9070    5.4540 O.2   203  GLY203     -0.2714
    149  N         17.8070    3.1680    3.5060 N.am  204  GLU204     -0.1963
    150  CA        16.6830    3.7970    2.7880 C.3   204  GLU204      0.1733
    151  C         16.2160    5.1210    3.3710 C.2   204  GLU204      0.2616
    152  O         15.0560    5.4910    3.2110 O.2   204  GLU204     -0.2715
    153  CB        15.4620    2.8600    2.6570 C.3   204  GLU204      0.0429
    154  CG        15.7030    1.5950    1.8720 C.3   204  GLU204      0.1163
    155  CD        16.1190    1.8540    0.4250 C.2   204  GLU204      0.3649
    156  OE1       15.4880    2.6420   -0.3080 O.co2 204  GLU204     -0.2457
    157  OE2       17.0780    1.2320    0.0180 O.co2 204  GLU204     -0.2457
    158  N         17.1150    5.8460    4.0270 N.am  205  ILE205     -0.1963
    159  CA        16.8170    7.2220    4.4340 C.3   205  ILE205      0.1727
    160  C         17.3230    8.1830    3.3630 C.2   205  ILE205      0.2616
    161  O         18.5210    8.2930    3.1470 O.2   205  ILE205     -0.2715
    162  CB        17.4420    7.5590    5.7980 C.3   205  ILE205      0.0290
    163  CG1       16.9240    6.5790    6.8550 C.3   205  ILE205      0.0022
    164  CG2       17.1800    9.0230    6.1480 C.3   205  ILE205      0.0023
    165  CD1       17.6300    6.6720    8.1830 C.3   205  ILE205      0.0001
    166  N         16.3860    8.8690    2.7060 N.am  206  TRP206     -0.1974
    167  CA        16.6510    9.6750    1.5020 C.3   206  TRP206      0.1640
    168  C         16.2810   11.1420    1.6260 C.2   206  TRP206      0.2290
    169  O         16.6630   11.9370    0.7700 O.2   206  TRP206     -0.2864
    170  CB        15.8360    9.1210    0.3270 C.3   206  TRP206      0.0576
    171  CG        16.0950    7.7180    0.0090 C.ar  206  TRP206      0.0006
    172  CD1       15.2500    6.6650    0.2240 C.ar  206  TRP206      0.0946
    173  CD2       17.2630    7.1670   -0.6230 C.ar  206  TRP206      0.0152
    174  NE1       15.8260    5.4940   -0.2220 N.ar  206  TRP206     -0.2442
    175  CE2       17.0570    5.7750   -0.7450 C.ar  206  TRP206      0.0810
    176  CE3       18.4630    7.7100   -1.0910 C.ar  206  TRP206      0.0012
    177  CZ2       18.0030    4.9280   -1.3150 C.ar  206  TRP206      0.0191
    178  CZ3       19.3930    6.8660   -1.6530 C.ar  206  TRP206      0.0001
    179  CH2       19.1580    5.4900   -1.7570 C.ar  206  TRP206      0.0015
    180  N         21.8890    6.6570   10.3590 N.3   224  MET224     -0.1230
    181  CA        23.0440    6.6960    9.5020 C.3   224  MET224      0.1702
    182  C         22.5650    6.7070    8.0460 C.2   224  MET224      0.2592
    183  O         21.6880    5.9390    7.6590 O.2   224  MET224     -0.2718
    184  CB        23.9500    5.4790    9.7170 C.3   224  MET224      0.0401
    185  CG        25.1060    5.3820    8.7110 C.3   224  MET224      0.0596
    186  SD        26.1980    3.9710    9.0430 S.3   224  MET224     -0.1393
    187  CE        27.1430    4.6140   10.4240 C.3   224  MET224      0.0692
    188  N         23.1930    7.5660    7.2550 N.am  225  ILE225     -0.1966
    189  CA        22.8390    7.7500    5.8600 C.3   225  ILE225      0.1727
    190  C         24.0640    7.4810    5.0050 C.2   225  ILE225      0.2617
    191  O         25.1350    8.0370    5.2540 O.2   225  ILE225     -0.2715
    192  CB        22.2040    9.1280    5.6100 C.3   225  ILE225      0.0290
    193  CG1       23.0370   10.2740    6.1370 C.3   225  ILE225      0.0022
    194  CG2       20.8240    9.2100    6.2650 C.3   225  ILE225      0.0023
    195  CD1       22.4070   11.6260    5.8090 C.3   225  ILE225      0.0001
    196  N         23.9060    6.6020    4.0130 N.am  226  GLY226     -0.1940
    197  CA        24.9630    6.3080    3.0600 C.3   226  GLY226      0.2014
    198  C         24.6700    6.8580    1.6730 C.2   226  GLY226      0.2639
    199  O         25.0290    7.9960    1.3640 O.2   226  GLY226     -0.2714
    200  N         24.0060    6.0600    0.8280 N.am  227  ARG227     -0.1963
    201  CA        23.8260    6.4490   -0.5940 C.3   227  ARG227      0.1729
    202  C         23.0830    7.7940   -0.7410 C.2   227  ARG227      0.2616
    203  O         23.3740    8.5810   -1.6420 O.2   227  ARG227     -0.2715
    204  CB        23.0850    5.3680   -1.3760 C.3   227  ARG227      0.0348
    205  CG        23.8200    4.0420   -1.4660 C.3   227  ARG227      0.0492
    206  CD        22.8870    2.9340   -1.8820 C.3   227  ARG227      0.2205
    207  NE        21.8540    2.6980   -0.8670 N.pl3 227  ARG227     -0.0865
    208  CZ        20.6370    2.2060   -1.0920 C.cat 227  ARG227      0.5346
    209  NH1       20.2300    1.8730   -2.3280 N.pl3 227  ARG227      0.1354
    210  NH2       19.8050    2.0510   -0.0760 N.pl3 227  ARG227      0.1354
    211  N         22.1240    8.0360    0.1420 N.am  228  GLY228     -0.1955
    212  CA        21.3380    9.2670    0.1410 C.3   228  GLY228      0.1869
    213  C         22.1810   10.5160    0.3210 C.2   228  GLY228      0.2309
    214  O         21.8020   11.5890   -0.1430 O.2   228  GLY228     -0.2863
    215  N         31.1760    8.4200  -11.0070 N.3   277  GLN277     -0.1245
    216  CA        30.4590    7.6910   -9.9700 C.3   277  GLN277      0.1566
    217  C         29.4890    8.5880   -9.2030 C.2   277  GLN277      0.2260
    218  O         28.3320    8.2370   -9.0220 O.2   277  GLN277     -0.2867
    219  CB        31.4220    7.0280   -9.0000 C.3   277  GLN277      0.0367
    220  CG        30.7170    6.2670   -7.8700 C.3   277  GLN277      0.0905
    221  CD        31.6740    5.4500   -7.0350 C.2   277  GLN277      0.2608
    222  OE1       31.5950    4.2170   -6.9940 O.2   277  GLN277     -0.2717
    223  NE2       32.5850    6.1300   -6.3590 N.am  277  GLN277     -0.0878
    224  N         25.1160    8.5320   -8.9800 N.3   281  TYR281     -0.1241
    225  CA        24.2410    8.6790   -7.8060 C.3   281  TYR281      0.1605
    226  C         23.3110    9.8860   -7.9740 C.2   281  TYR281      0.2264
    227  O         22.1020    9.7800   -7.7740 O.2   281  TYR281     -0.2867
    228  CB        25.0600    8.8500   -6.5030 C.3   281  TYR281      0.0534
    229  CG        25.6430    7.5680   -5.9250 C.ar  281  TYR281     -0.0201
    230  CD1       26.6840    6.9060   -6.5460 C.ar  281  TYR281     -0.0009
    231  CD2       25.1440    7.0260   -4.7700 C.ar  281  TYR281     -0.0009
    232  CE1       27.2080    5.7400   -6.0190 C.ar  281  TYR281      0.0417
    233  CE2       25.6670    5.8600   -4.2250 C.ar  281  TYR281      0.0417
    234  CZ        26.6830    5.2130   -4.8700 C.ar  281  TYR281      0.1957
    235  OH        27.2020    4.0650   -4.3330 O.3   281  TYR281     -0.2866
@<TRIPOS>BOND
     1   215   216    1
     2   216   217    1
     3   216   219    1
     4   217   218    2
     5   219   220    1
     6   224   225    1
     7   226   225    1
     8   226   227    2
     9   220   221    1
    10   225   228    1
    11   221   222    2
    12   221   223   am
    13   230   232   ar
    14   230   229   ar
    15   228   229    1
    16   232   234   ar
    17   229   231   ar
    18   234   235    1
    19   234   233   ar
    20   231   233   ar
    21    36    34    1
    22    35    34    1
    23    31    34    1
    24    31    30    1
    25    31    32    1
    26   209   208    1
    27   128   127    2
    28   129   130    1
    29   129   126    1
    30   206   205    1
    31   206   207    1
    32    33    32    2
    33   127   126    1
    34    24    23    2
    35   179   178   ar
    36   179   177   ar
    37   178   176   ar
    38   203   202    2
    39   131   130   ar
    40   131   133   ar
    41   205   204    1
    42   204   201    1
    43   125   126    1
    44   130   132   ar
    45   177   175   ar
    46    29    27   ar
    47   208   207    2
    48   208   210    1
    49   176   173   ar
    50    23    22    1
    51   133   135   ar
    52    27    28   ar
    53    27    26    1
    54   175   173   ar
    55   175   174   ar
    56   202   201    1
    57   202   211   am
    58    20    19    1
    59   173   171   ar
    60   201   200    1
    61   132   134   ar
    62    26    25    1
    63   156   155   ar
    64   174   172   ar
    65   214   213    2
    66   171   172   ar
    67   171   170    1
    68   157   155   ar
    69   135   134   ar
    70   135   136    1
    71    45    43   ar
    72   212   211    1
    73   212   213    1
    74   170   167    1
    75    25    22    1
    76    22    21    1
    77   155   154    1
    78    16    15    2
    79    19    18    1
    80   169   168    2
    81   200   198   am
    82   123   122    1
    83    21    15   am
    84    15    14    1
    85    17    18    1
    86    17    14    1
    87    43    44   ar
    88    43    42    1
    89   199   198    2
    90   167   168    1
    91   167   166    1
    92   198   197    1
    93    14    13    1
    94   154   153    1
    95   122   124    1
    96   122   121    2
    97    56    55   ar
    98    56    54   ar
    99   120   121    1
   100   120   119    1
   101   103   101    1
   102    42    41    1
   103    55    53   ar
   104   153   150    1
   105   166   160   am
   106   150   151    1
   107   150   149    1
   108   102   101    1
   109    54    52   ar
   110   197   196    1
   111   161   160    2
   112   101   100    2
   113   152   151    2
   114    13     8   am
   115    41    38    1
   116   160   159    1
   117   151   158   am
   118    80    79    1
   119    80    81    2
   120   149   147   am
   121   119   118    1
   122    83    82    1
   123   112   113   ar
   124   112   110   ar
   125    82    79    1
   126    53    51   ar
   127    79    78    1
   128   196   190   am
   129   158   159    1
   130   113   111   ar
   131     9     8    2
   132   100    99    1
   133     8     7    1
   134    52    51   ar
   135   118   115    1
   136   159   162    1
   137    38    37    1
   138    38    39    1
   139    51    50    1
   140    49    48    2
   141   147   146    1
   142   147   148    2
   143   110   109   ar
   144    77    76    2
   145   190   191    2
   146   190   189    1
   147     4     3    2
   148    99    98    1
   149    46    39   am
   150    46    47    1
   151   146   145    1
   152    78    76   am
   153   111   109   ar
   154    39    40    2
   155   192   189    1
   156   192   193    1
   157   192   194    1
   158     5     2    1
   159     7     6    1
   160     7    10    1
   161   115   116    1
   162   115   114    1
   163    76    75    1
   164   162   164    1
   165   162   163    1
   166   195   193    1
   167   189   188    1
   168    48    47    1
   169   109   108    1
   170     3     6   am
   171     3     2    1
   172   116   117    2
   173    50    47    1
   174    73    71   am
   175     6    12    1
   176    10    11    1
   177   145   139   am
   178     2     1    1
   179    98    97    1
   180   144   142   am
   181   163   165    1
   182    92    91    1
   183   143   142    2
   184    11    12    1
   185    75    74    1
   186   188   182   am
   187    72    71    2
   188    71    70    1
   189   108   105    1
   190   142   141    1
   191    64    63    2
   192    97    94    1
   193   183   182    2
   194   139   140    2
   195   139   138    1
   196    91    90    1
   197   182   181    1
   198   106   105    1
   199   106   107    2
   200   105   104    1
   201    70    67    1
   202    63    65   am
   203    63    62    1
   204   185   186    1
   205   185   184    1
   206   138   141    1
   207   138   137    1
   208    94    93    1
   209    94    95    1
   210   186   187    1
   211    90    89    1
   212    60    59    2
   213   181   184    1
   214   181   180    1
   215    61    62    1
   216    61    58    1
   217    67    68    1
   218    67    66    1
   219    95    96    2
   220    69    68    2
   221    89    88    1
   222    59    58    1
   223    57    58    1
   224    88    85    1
   225    87    86    2
   226    86    85    1
   227    85    84    1
