@<TRIPOS>MOLECULE
tmp/4bfdA00.pdb
 199 191 0 0 0
SMALL
GASTEIGER

@<TRIPOS>ATOM
      1  N        -25.5930   45.9120   84.9150 N.3    16  GLY16      -0.1210
      2  CA       -25.3930   46.0210   86.3610 C.3    16  GLY16       0.1956
      3  C        -25.3380   44.7010   87.1170 C.2    16  GLY16       0.2612
      4  O        -25.0510   44.6910   88.3070 O.2    16  GLY16      -0.2717
      5  N        -25.5830   43.5800   86.4460 N.am   17  GLN17      -0.1965
      6  CA       -25.6340   42.3080   87.1650 C.3    17  GLN17       0.1733
      7  C        -24.5610   41.3130   86.7470 C.2    17  GLN17       0.2617
      8  O        -24.5460   40.2010   87.2450 O.2    17  GLN17      -0.2715
      9  CB       -27.0290   41.6710   87.0680 C.3    17  GLN17       0.0408
     10  CG       -28.1640   42.6120   87.4390 C.3    17  GLN17       0.0908
     11  CD       -29.5280   41.9500   87.3570 C.2    17  GLN17       0.2608
     12  OE1      -29.7120   40.9290   86.6630 O.2    17  GLN17      -0.2717
     13  NE2      -30.5030   42.5410   88.0360 N.am   17  GLN17      -0.0878
     14  N        -23.6680   41.7230   85.8450 N.am   18  GLY18      -0.1940
     15  CA       -22.5240   40.9000   85.4620 C.3    18  GLY18       0.2014
     16  C        -22.8370   39.8540   84.4140 C.2    18  GLY18       0.2638
     17  O        -23.9480   39.7900   83.8980 O.2    18  GLY18      -0.2714
     18  N        -21.8460   39.0280   84.1190 N.am   19  TYR19      -0.1973
     19  CA       -21.9010   38.1040   82.9980 C.3    19  TYR19       0.1639
     20  C        -21.8440   36.6760   83.5250 C.2    19  TYR19       0.2290
     21  O        -20.9730   36.3350   84.3020 O.2    19  TYR19      -0.2864
     22  CB       -20.7160   38.4070   82.0430 C.3    19  TYR19       0.0560
     23  CG       -20.7620   39.8030   81.4390 C.ar   19  TYR19      -0.0198
     24  CD1      -20.3360   40.9100   82.1700 C.ar   19  TYR19      -0.0009
     25  CD2      -21.2480   40.0090   80.1370 C.ar   19  TYR19      -0.0009
     26  CE1      -20.3780   42.1930   81.6200 C.ar   19  TYR19       0.0417
     27  CE2      -21.2980   41.2800   79.5720 C.ar   19  TYR19       0.0417
     28  CZ       -20.8640   42.3640   80.3150 C.ar   19  TYR19       0.1957
     29  OH       -20.9180   43.6350   79.7860 O.3    19  TYR19      -0.2866
     30  N        -21.9490   33.1890   87.5670 N.3    35  LEU35      -0.1245
     31  CA       -21.2460   34.4440   87.3140 C.3    35  LEU35       0.1561
     32  C        -19.7640   34.1850   87.0330 C.2    35  LEU35       0.2260
     33  O        -19.0720   33.4950   87.8010 O.2    35  LEU35      -0.2867
     34  CB       -21.3810   35.3950   88.5040 C.3    35  LEU35       0.0270
     35  CG       -20.6670   36.7500   88.3120 C.3    35  LEU35       0.0019
     36  CD1      -21.5500   37.7160   87.5940 C.3    35  LEU35       0.0001
     37  CD2      -20.2160   37.3810   89.6100 C.3    35  LEU35       0.0001
     38  N        -16.1020   35.2310   87.1580 N.3    37  ASP37      -0.1239
     39  CA       -15.3920   36.1770   88.0350 C.3    37  ASP37       0.1674
     40  C        -13.8840   35.9270   88.0350 C.2    37  ASP37       0.2266
     41  O        -13.4090   34.9810   88.6650 O.2    37  ASP37      -0.2867
     42  CB       -15.9770   36.0840   89.4520 C.3    37  ASP37       0.1410
     43  CG       -15.3770   37.0960   90.4430 C.2    37  ASP37       0.3668
     44  OD1      -14.7930   38.1250   90.0530 O.co2  37  ASP37      -0.2456
     45  OD2      -15.5270   36.8610   91.6550 O.co2  37  ASP37      -0.2456
     46  N        -11.8620   37.8250   89.4070 N.3    39  GLY39      -0.1210
     47  CA       -11.3740   38.4370   90.6450 C.3    39  GLY39       0.1956
     48  C        -11.5200   37.6420   91.9320 C.2    39  GLY39       0.2612
     49  O        -11.2870   38.1730   93.0180 O.2    39  GLY39      -0.2717
     50  N        -11.9060   36.3760   91.8270 N.am   40  SER40      -0.1952
     51  CA       -11.9500   35.4610   92.9770 C.3    40  SER40       0.1924
     52  C        -11.6400   34.0320   92.5000 C.2    40  SER40       0.2314
     53  O        -11.5160   33.7940   91.2910 O.2    40  SER40      -0.2863
     54  CB       -13.3160   35.5170   93.6400 C.3    40  SER40       0.2116
     55  OG       -14.2850   34.8860   92.8140 O.3    40  SER40      -0.2180
     56  N        -16.8820   39.6140  102.7950 N.3    76  TYR76      -0.1241
     57  CA       -16.4070   40.6030  101.8460 C.3    76  TYR76       0.1605
     58  C        -16.6200   41.9280  102.5380 C.2    76  TYR76       0.2264
     59  O        -17.1810   41.9590  103.6430 O.2    76  TYR76      -0.2867
     60  CB       -17.2000   40.5080  100.5350 C.3    76  TYR76       0.0534
     61  CG       -16.9170   39.2420   99.7730 C.ar   76  TYR76      -0.0201
     62  CD1      -15.6250   38.9740   99.3350 C.ar   76  TYR76      -0.0009
     63  CD2      -17.9240   38.3050   99.4910 C.ar   76  TYR76      -0.0009
     64  CE1      -15.3140   37.8110   98.6470 C.ar   76  TYR76       0.0417
     65  CE2      -17.6160   37.1190   98.7790 C.ar   76  TYR76       0.0417
     66  CZ       -16.2960   36.8940   98.3730 C.ar   76  TYR76       0.1957
     67  OH       -15.8960   35.7730   97.6780 O.3    76  TYR76      -0.2866
     68  N        -18.5930   44.2630  101.4470 N.3    78  GLN78      -0.1245
     69  CA       -20.0440   44.4270  101.3960 C.3    78  GLN78       0.1566
     70  C        -20.7750   43.3540  102.2170 C.2    78  GLN78       0.2260
     71  O        -21.1970   43.6350  103.3450 O.2    78  GLN78      -0.2867
     72  CB       -20.5470   44.4670   99.9510 C.3    78  GLN78       0.0367
     73  CG       -22.0340   44.7570   99.8310 C.3    78  GLN78       0.0905
     74  CD       -22.4780   44.8230   98.3960 C.2    78  GLN78       0.2608
     75  OE1      -23.1240   45.7860   97.9840 O.2    78  GLN78      -0.2717
     76  NE2      -22.1180   43.8050   97.6140 N.am   78  GLN78      -0.0878
     77  N        -20.7760   35.1200  102.4760 N.3    81  TRP81      -0.1241
     78  CA       -21.4150   33.8240  102.3260 C.3    81  TRP81       0.1605
     79  C        -20.7270   32.7580  103.1560 C.2    81  TRP81       0.2264
     80  O        -19.5460   32.8930  103.4860 O.2    81  TRP81      -0.2867
     81  CB       -21.5630   33.3880  100.8600 C.3    81  TRP81       0.0550
     82  CG       -20.2940   33.2310  100.0770 C.ar   81  TRP81       0.0003
     83  CD1      -19.7010   34.1740   99.2700 C.ar   81  TRP81       0.0946
     84  CD2      -19.4770   32.0470   99.9730 C.ar   81  TRP81       0.0152
     85  NE1      -18.5520   33.6520   98.6920 N.ar   81  TRP81      -0.2442
     86  CE2      -18.3970   32.3530   99.1020 C.ar   81  TRP81       0.0810
     87  CE3      -19.5430   30.7670  100.5400 C.ar   81  TRP81       0.0012
     88  CZ2      -17.4010   31.4270   98.7920 C.ar   81  TRP81       0.0191
     89  CZ3      -18.5490   29.8450  100.2220 C.ar   81  TRP81       0.0001
     90  CH2      -17.4960   30.1800   99.3570 C.ar   81  TRP81       0.0015
     91  N        -26.2050   39.9410  101.3000 N.3   112  LYS112     -0.1231
     92  CA       -25.7710   40.9690  100.3490 C.3   112  LYS112      0.1693
     93  C        -24.8450   40.3490   99.2890 C.2   112  LYS112      0.2592
     94  O        -23.9420   40.9910   98.7910 O.2   112  LYS112     -0.2718
     95  CB       -25.1540   42.2000  101.0640 C.3   112  LYS112      0.0285
     96  CG       -26.0710   42.8160  102.1570 C.3   112  LYS112      0.0035
     97  CD       -25.8880   44.3510  102.4360 C.3   112  LYS112      0.0206
     98  CE       -26.8040   44.8500  103.6070 C.3   112  LYS112      0.1093
     99  NZ       -27.0910   46.3730  103.7250 N.3   112  LYS112     -0.1314
    100  N        -25.0880   39.0790   98.9790 N.am  113  PHE113     -0.1976
    101  CA       -24.2940   38.3450   98.0190 C.3   113  PHE113      0.1639
    102  C        -25.0570   38.1870   96.6960 C.2   113  PHE113      0.2290
    103  O        -24.5890   38.6590   95.6560 O.2   113  PHE113     -0.2864
    104  CB       -23.8970   36.9850   98.5800 C.3   113  PHE113      0.0560
    105  CG       -23.0270   36.1730   97.6530 C.ar  113  PHE113     -0.0200
    106  CD1      -21.7110   36.5790   97.3590 C.ar  113  PHE113     -0.0042
    107  CD2      -23.5150   35.0050   97.0610 C.ar  113  PHE113     -0.0042
    108  CE1      -20.9170   35.8320   96.5200 C.ar  113  PHE113     -0.0003
    109  CE2      -22.7210   34.2470   96.2100 C.ar  113  PHE113     -0.0003
    110  CZ       -21.4200   34.6510   95.9450 C.ar  113  PHE113     -0.0000
    111  N        -27.9970   38.7940   93.8820 N.3   115  ILE115     -0.1245
    112  CA       -28.6980   40.0090   93.4580 C.3   115  ILE115      0.1561
    113  C        -30.1550   39.6880   93.2190 C.2   115  ILE115      0.2260
    114  O        -30.4790   38.8090   92.4240 O.2   115  ILE115     -0.2867
    115  CB       -28.1310   40.5960   92.1710 C.3   115  ILE115      0.0252
    116  CG1      -26.6580   40.9590   92.3500 C.3   115  ILE115      0.0019
    117  CG2      -28.9560   41.8200   91.7330 C.3   115  ILE115      0.0019
    118  CD1      -25.9470   41.2090   91.0370 C.3   115  ILE115      0.0001
    119  N        -28.5050   34.6450   87.9680 N.3   120  TRP120     -0.1241
    120  CA       -27.4000   33.7410   88.3100 C.3   120  TRP120      0.1605
    121  C        -27.4570   33.2580   89.7570 C.2   120  TRP120      0.2264
    122  O        -27.9690   33.9660   90.6220 O.2   120  TRP120     -0.2867
    123  CB       -26.0360   34.3300   87.9320 C.3   120  TRP120      0.0550
    124  CG       -25.6640   35.6870   88.5480 C.ar  120  TRP120      0.0003
    125  CD1      -25.7450   36.9140   87.9450 C.ar  120  TRP120      0.0946
    126  CD2      -25.0960   35.9210   89.8510 C.ar  120  TRP120      0.0152
    127  NE1      -25.2810   37.8990   88.7900 N.ar  120  TRP120     -0.2442
    128  CE2      -24.8730   37.3210   89.9640 C.ar  120  TRP120      0.0810
    129  CE3      -24.7350   35.0810   90.9230 C.ar  120  TRP120      0.0012
    130  CZ2      -24.3140   37.9030   91.1120 C.ar  120  TRP120      0.0191
    131  CZ3      -24.1960   35.6550   92.0660 C.ar  120  TRP120      0.0001
    132  CH2      -23.9880   37.0550   92.1520 C.ar  120  TRP120      0.0015
    133  N        -21.0340   31.5390   91.5730 N.3   123  ILE123     -0.1245
    134  CA       -19.8950   32.3070   91.0560 C.3   123  ILE123      0.1561
    135  C        -18.7580   31.3630   90.7220 C.2   123  ILE123      0.2260
    136  O        -18.4340   30.4670   91.4980 O.2   123  ILE123     -0.2867
    137  CB       -19.3940   33.4070   92.0590 C.3   123  ILE123      0.0252
    138  CG1      -20.5170   34.4030   92.3650 C.3   123  ILE123      0.0019
    139  CG2      -18.1990   34.2030   91.4830 C.3   123  ILE123      0.0019
    140  CD1      -20.0500   35.6950   93.0420 C.3   123  ILE123      0.0001
    141  N        -10.5100   42.2320   86.6350 N.3   221  ASP221     -0.1225
    142  CA       -11.5930   41.5880   87.4080 C.3   221  ASP221      0.1805
    143  C        -12.9850   41.6800   86.7630 C.2   221  ASP221      0.2598
    144  O        -13.5950   42.7460   86.7450 O.2   221  ASP221     -0.2718
    145  CB       -11.6050   42.1480   88.8360 C.3   221  ASP221      0.1424
    146  CG       -12.6880   41.5490   89.6880 C.2   221  ASP221      0.3668
    147  OD1      -13.2500   40.5070   89.3000 O.co2 221  ASP221     -0.2456
    148  OD2      -12.9910   42.1170   90.7580 O.co2 221  ASP221     -0.2456
    149  N        -13.4890   40.5620   86.2550 N.am  222  SER222     -0.1938
    150  CA       -14.7800   40.5510   85.5530 C.3   222  SER222      0.2055
    151  C        -15.9770   40.5350   86.5080 C.2   222  SER222      0.2644
    152  O        -17.1320   40.7260   86.0910 O.2   222  SER222     -0.2714
    153  CB       -14.8530   39.3850   84.5780 C.3   222  SER222      0.2130
    154  OG       -14.8430   38.1520   85.2640 O.3   222  SER222     -0.2179
    155  N        -15.7020   40.3070   87.7920 N.am  223  GLY223     -0.1939
    156  CA       -16.7490   40.3550   88.8250 C.3   223  GLY223      0.2014
    157  C        -16.9660   41.7180   89.4600 C.2   223  GLY223      0.2640
    158  O        -17.6310   41.8040   90.4780 O.2   223  GLY223     -0.2714
    159  N        -16.3960   42.7730   88.8620 N.am  224  THR224     -0.1936
    160  CA       -16.5440   44.1680   89.3200 C.3   224  THR224      0.2028
    161  C        -17.0050   45.0250   88.1380 C.2   224  THR224      0.2642
    162  O        -16.4870   44.8950   87.0340 O.2   224  THR224     -0.2714
    163  CB       -15.1840   44.7330   89.8260 C.3   224  THR224      0.1808
    164  OG1      -14.7550   43.9860   90.9660 O.3   224  THR224     -0.2208
    165  CG2      -15.2800   46.2140   90.1970 C.3   224  THR224      0.0379
    166  N        -17.9780   45.8990   88.3590 N.am  225  THR225     -0.1950
    167  CA       -18.4620   46.7660   87.2980 C.3   225  THR225      0.1897
    168  C        -17.4340   47.8720   87.0120 C.2   225  THR225      0.2313
    169  O        -17.0680   48.1140   85.8560 O.2   225  THR225     -0.2863
    170  CB       -19.7960   47.4480   87.6860 C.3   225  THR225      0.1794
    171  OG1      -20.8220   46.4650   87.8420 O.3   225  THR225     -0.2208
    172  CG2      -20.2310   48.4850   86.6110 C.3   225  THR225      0.0378
    173  N        -11.9530   50.8850   89.0880 N.3   228  ARG228     -0.1245
    174  CA       -11.5630   51.3890   90.3910 C.3   228  ARG228      0.1563
    175  C        -10.1050   51.8380   90.3540 C.2   228  ARG228      0.2260
    176  O         -9.2550   51.1530   89.7660 O.2   228  ARG228     -0.2867
    177  CB       -11.7880   50.3410   91.4910 C.3   228  ARG228      0.0307
    178  CG       -13.2200   49.7790   91.5210 C.3   228  ARG228      0.0489
    179  CD       -13.8210   49.6860   92.9400 C.3   228  ARG228      0.2205
    180  NE       -13.5230   48.4060   93.5660 N.pl3 228  ARG228     -0.0865
    181  CZ       -12.9060   48.2560   94.7350 C.cat 228  ARG228      0.5346
    182  NH1      -12.5440   49.3270   95.4450 N.pl3 228  ARG228      0.1354
    183  NH2      -12.6590   47.0320   95.2040 N.pl3 228  ARG228      0.1354
    184  N        -22.2570   54.4410   82.7960 N.3   300  ARG300     -0.1245
    185  CA       -23.1170   53.2430   82.7480 C.3   300  ARG300      0.1563
    186  C        -24.5970   53.6390   82.7080 C.2   300  ARG300      0.2260
    187  O        -25.0360   54.4780   83.5020 O.2   300  ARG300     -0.2867
    188  CB       -22.8900   52.2770   83.9240 C.3   300  ARG300      0.0307
    189  CG       -21.4540   52.0930   84.4020 C.3   300  ARG300      0.0489
    190  CD       -20.5920   51.2580   83.5050 C.3   300  ARG300      0.2205
    191  NE       -21.0200   49.8640   83.4380 N.pl3 300  ARG300     -0.0865
    192  CZ       -20.4840   48.9530   82.6190 C.cat 300  ARG300      0.5346
    193  NH1      -19.4930   49.2990   81.8000 N.pl3 300  ARG300      0.1354
    194  NH2      -20.9440   47.7030   82.6140 N.pl3 300  ARG300      0.1354
    195  N        -15.5730   45.5350   84.5410 N.3   322  ALA322     -0.1245
    196  CA       -16.3100   45.5700   83.2830 C.3   322  ALA322      0.1562
    197  C        -16.1220   46.8730   82.4820 C.2   322  ALA322      0.2260
    198  O        -16.1910   46.8500   81.2620 O.2   322  ALA322     -0.2867
    199  CB       -17.8040   45.2830   83.5170 C.3   322  ALA322      0.0290
@<TRIPOS>BOND
     1    27    25   ar
     2    27    28   ar
     3    29    28    1
     4    25    23   ar
     5    28    26   ar
     6   198   197    2
     7    23    22    1
     8    23    24   ar
     9    26    24   ar
    10   193   192    1
    11    22    19    1
    12   197   196    1
    13   194   192    1
    14   192   191    2
    15   186   185    1
    16   186   187    2
    17   185   184    1
    18   185   188    1
    19    19    20    1
    20    19    18    1
    21   196   199    1
    22   196   195    1
    23   191   190    1
    24   190   189    1
    25    20    21    2
    26    17    16    2
    27   188   189    1
    28    18    16   am
    29    16    15    1
    30   153   154    1
    31   153   150    1
    32     1     2    1
    33    15    14    1
    34   150   149    1
    35   150   151    1
    36    14     7   am
    37   169   168    2
    38   152   151    2
    39   149   143   am
    40     2     3    1
    41     5     3   am
    42     5     6    1
    43   151   155   am
    44   172   170    1
    45   141   142    1
    46    12    11    2
    47   144   143    2
    48     7     6    1
    49     7     8    2
    50   143   142    1
    51   168   167    1
    52    32    31    1
    53    32    33    2
    54   162   161    2
    55     9     6    1
    56     9    10    1
    57     3     4    2
    58    38    39    1
    59   167   170    1
    60   167   166    1
    61    31    30    1
    62    31    34    1
    63    11    10    1
    64    11    13   am
    65   142   145    1
    66    36    35    1
    67   170   171    1
    68   155   156    1
    69   123   120    1
    70   123   124    1
    71   125   124   ar
    72   125   127   ar
    73   119   120    1
    74    40    39    1
    75    40    41    2
    76    39    42    1
    77   161   166   am
    78   161   160    1
    79   120   121    1
    80    35    34    1
    81    35    37    1
    82   124   126   ar
    83   127   128   ar
    84   156   157    1
    85   145   146    1
    86   159   160    1
    87   159   157   am
    88   173   174    1
    89   147   146   ar
    90   160   163    1
    91    46    47    1
    92    42    43    1
    93   157   158    2
    94   146   148   ar
    95   121   122    2
    96   176   175    2
    97   163   165    1
    98   163   164    1
    99   126   128   ar
   100   126   129   ar
   101   128   130   ar
   102    44    43   ar
   103   175   174    1
   104   174   177    1
   105    43    45   ar
   106    47    48    1
   107   135   134    1
   108   135   136    2
   109   129   131   ar
   110   118   116    1
   111   134   133    1
   112   134   137    1
   113   130   132   ar
   114    53    52    2
   115   139   137    1
   116   177   178    1
   117   178   179    1
   118   117   115    1
   119    50    48   am
   120    50    51    1
   121    48    49    2
   122   137   138    1
   123   131   132   ar
   124   115   116    1
   125   115   112    1
   126   138   140    1
   127   114   113    2
   128    52    51    1
   129    55    54    1
   130   179   180    1
   131    51    54    1
   132   113   112    1
   133   112   111    1
   134   180   181    2
   135   181   183    1
   136   181   182    1
   137   103   102    2
   138   110   109   ar
   139   110   108   ar
   140   109   107   ar
   141   108   106   ar
   142   102   101    1
   143   107   105   ar
   144   106   105   ar
   145    76    74   am
   146   105   104    1
   147    67    66    1
   148    75    74    2
   149   101   104    1
   150   101   100    1
   151    66    64   ar
   152    66    65   ar
   153    74    73    1
   154    64    62   ar
   155    85    86   ar
   156    85    83   ar
   157    65    63   ar
   158    94    93    2
   159    88    86   ar
   160    88    90   ar
   161   100    93   am
   162    86    84   ar
   163    83    82   ar
   164    93    92    1
   165    62    61   ar
   166    90    89   ar
   167    63    61   ar
   168    61    60    1
   169    73    72    1
   170    72    69    1
   171    84    82   ar
   172    84    87   ar
   173    82    81    1
   174    89    87   ar
   175    92    95    1
   176    92    91    1
   177    60    57    1
   178    81    78    1
   179    95    96    1
   180    69    68    1
   181    69    70    1
   182    57    58    1
   183    57    56    1
   184    96    97    1
   185    70    71    2
   186    78    77    1
   187    78    79    1
   188    97    98    1
   189    58    59    2
   190    79    80    2
   191    98    99    1
