@<TRIPOS>MOLECULE
tmp/4bfgA00.pdb
 83 83 0 0 0
SMALL
GASTEIGER

@<TRIPOS>ATOM
      1  N        -35.0210   43.5610   30.8520 N.3    32  ILE32      -0.1245
      2  CA       -33.8380   42.7140   31.0840 C.3    32  ILE32       0.1561
      3  C        -32.6780   43.3280   30.2820 C.2    32  ILE32       0.2260
      4  O        -32.8430   43.5600   29.0820 O.2    32  ILE32      -0.2867
      5  CB       -34.0910   41.2340   30.7440 C.3    32  ILE32       0.0252
      6  CG1      -35.3170   40.6710   31.5240 C.3    32  ILE32       0.0019
      7  CG2      -32.8480   40.3850   31.0310 C.3    32  ILE32       0.0019
      8  CD1      -35.9800   39.5090   30.8030 C.3    32  ILE32       0.0001
      9  N        -33.8910   43.6110   26.4390 N.3    48  TYR48      -0.1241
     10  CA       -35.2400   43.1980   26.0410 C.3    48  TYR48       0.1605
     11  C        -36.2660   43.9040   26.9100 C.2    48  TYR48       0.2264
     12  O        -36.2390   43.7730   28.1440 O.2    48  TYR48      -0.2867
     13  CB       -35.3830   41.6730   26.0480 C.3    48  TYR48       0.0534
     14  CG       -36.7130   41.1810   25.5170 C.ar   48  TYR48      -0.0201
     15  CD1      -36.9630   41.1280   24.1440 C.ar   48  TYR48      -0.0009
     16  CD2      -37.7020   40.7090   26.3810 C.ar   48  TYR48      -0.0009
     17  CE1      -38.1810   40.6600   23.6470 C.ar   48  TYR48       0.0417
     18  CE2      -38.9310   40.2510   25.8960 C.ar   48  TYR48       0.0417
     19  CZ       -39.1670   40.2320   24.5280 C.ar   48  TYR48       0.1957
     20  OH       -40.3670   39.7710   24.0400 O.3    48  TYR48      -0.2866
     21  N        -36.4260   44.0420   21.4710 N.3    55  ASN55      -0.1240
     22  CA       -35.1150   43.4560   21.6450 C.3    55  ASN55       0.1653
     23  C        -34.0510   44.4930   21.1570 C.2    55  ASN55       0.2266
     24  O        -34.3380   45.3080   20.2650 O.2    55  ASN55      -0.2867
     25  CB       -35.1050   42.2240   20.8450 C.3    55  ASN55       0.1155
     26  CG       -34.1620   41.1450   21.2720 C.2    55  ASN55       0.2627
     27  OD1      -33.0050   41.3650   21.6520 O.2    55  ASN55      -0.2716
     28  ND2      -34.6460   39.9470   21.1120 N.am   55  ASN55      -0.0877
     29  N        -27.9800   36.9860   22.6230 N.3    66  TRP66      -0.1227
     30  CA       -28.9060   36.2900   23.5130 C.3    66  TRP66       0.1737
     31  C        -28.7680   34.8480   23.1240 C.2    66  TRP66       0.2595
     32  O        -28.4360   34.5650   21.9690 O.2    66  TRP66      -0.2718
     33  CB       -30.3640   36.6820   23.2140 C.3    66  TRP66       0.0564
     34  CG       -30.7550   38.0410   23.7110 C.ar   66  TRP66       0.0003
     35  CD1      -30.9100   39.1700   22.9680 C.ar   66  TRP66       0.0946
     36  CD2      -31.0170   38.4130   25.0730 C.ar   66  TRP66       0.0152
     37  NE1      -31.3190   40.2130   23.7730 N.ar   66  TRP66      -0.2442
     38  CE2      -31.3860   39.7750   25.0720 C.ar   66  TRP66       0.0810
     39  CE3      -31.0000   37.7170   26.2980 C.ar   66  TRP66       0.0012
     40  CZ2      -31.6920   40.4650   26.2450 C.ar   66  TRP66       0.0191
     41  CZ3      -31.3100   38.4040   27.4580 C.ar   66  TRP66       0.0001
     42  CH2      -31.6540   39.7560   27.4290 C.ar   66  TRP66       0.0015
     43  N        -29.0420   33.9170   24.0540 N.am   67  ALA67      -0.1966
     44  CA       -29.0240   32.5120   23.7020 C.3    67  ALA67       0.1728
     45  C        -30.2680   32.2470   22.8050 C.2    67  ALA67       0.2617
     46  O        -31.3030   32.8780   22.9900 O.2    67  ALA67      -0.2715
     47  CB       -29.0820   31.6570   24.9580 C.3    67  ALA67       0.0334
     48  N        -30.1520   31.3690   21.8110 N.am   68  SER68      -0.1936
     49  CA       -31.3120   31.0620   20.9740 C.3    68  SER68       0.2055
     50  C        -32.1060   29.9890   21.7200 C.2    68  SER68       0.2643
     51  O        -31.5730   28.9210   22.0280 O.2    68  SER68      -0.2714
     52  CB       -30.8920   30.5940   19.5830 C.3    68  SER68       0.2130
     53  OG       -32.0300   30.1860   18.8420 O.3    68  SER68      -0.2179
     54  N        -33.3430   30.3240   22.0960 N.am   69  THR69      -0.1950
     55  CA       -34.2070   29.4310   22.8710 C.3    69  THR69       0.1897
     56  C        -35.6980   29.6080   22.4940 C.2    69  THR69       0.2313
     57  O        -36.0910   30.7240   22.1220 O.2    69  THR69      -0.2863
     58  CB       -33.8850   29.5620   24.3860 C.3    69  THR69       0.1794
     59  OG1      -34.5310   28.5330   25.1320 O.3    69  THR69      -0.2208
     60  CG2      -34.2250   30.9150   24.9480 C.3    69  THR69       0.0378
     61  N        -37.5630   32.1370   24.9230 N.3    72  HIS72      -0.1226
     62  CA       -36.9340   33.4650   24.9680 C.3    72  HIS72       0.1752
     63  C        -36.4270   33.8590   26.3760 C.2    72  HIS72       0.2597
     64  O        -36.6580   34.9630   26.8870 O.2    72  HIS72      -0.2718
     65  CB       -37.8030   34.5180   24.2590 C.3    72  HIS72       0.0759
     66  CG       -38.1550   34.0960   22.8640 C.ar   72  HIS72       0.0818
     67  ND1      -37.2470   34.2190   21.8180 N.ar   72  HIS72      -0.2268
     68  CD2      -39.2670   33.4690   22.4050 C.ar   72  HIS72       0.1154
     69  CE1      -37.8540   33.7200   20.7520 C.ar   72  HIS72       0.1986
     70  NE2      -39.0720   33.2520   21.0570 N.ar   72  HIS72      -0.2212
     71  N        -35.7560   32.8810   26.9950 N.am   73  SER73      -0.1938
     72  CA       -35.0860   32.9210   28.2840 C.3    73  SER73       0.2040
     73  C        -34.0130   34.0210   28.2020 C.2    73  SER73       0.2485
     74  O        -33.3580   34.1720   27.1620 O.2    73  SER73      -0.2729
     75  CB       -34.4280   31.5700   28.5690 C.3    73  SER73       0.2129
     76  OG       -33.9000   31.5200   29.8860 O.3    73  SER73      -0.2179
     77  N        -33.8170   34.8030   29.2780 N.am   74  PRO74      -0.2726
     78  CA       -32.8440   35.9020   29.2050 C.3    74  PRO74       0.1402
     79  C        -31.3690   35.5020   29.3790 C.2    74  PRO74       0.2269
     80  O        -30.5530   36.3020   29.8610 O.2    74  PRO74      -0.2865
     81  CB       -33.3330   36.8660   30.2760 C.3    74  PRO74       0.0296
     82  CG       -34.1010   36.0390   31.2430 C.3    74  PRO74       0.0237
     83  CD       -34.5040   34.7620   30.5900 C.3    74  PRO74       0.0939
@<TRIPOS>BOND
     1    53    52    1
     2    52    49    1
     3    24    23    2
     4    69    70   ar
     5    69    67   ar
     6    25    26    1
     7    25    22    1
     8    49    50    1
     9    49    48    1
    10    70    68   ar
    11    28    26   am
    12    23    22    1
    13    26    27    2
    14    21    22    1
    15    50    51    2
    16    50    54   am
    17    48    45   am
    18    67    66   ar
    19    32    31    2
    20    54    55    1
    21    57    56    2
    22    68    66   ar
    23    56    55    1
    24    29    30    1
    25    45    46    2
    26    45    44    1
    27    66    65    1
    28    55    58    1
    29    35    34   ar
    30    35    37   ar
    31    31    30    1
    32    31    43   am
    33    33    30    1
    34    33    34    1
    35    17    15   ar
    36    17    19   ar
    37    44    43    1
    38    44    47    1
    39    34    36   ar
    40    37    38   ar
    41    20    19    1
    42    15    14   ar
    43    65    62    1
    44    58    60    1
    45    58    59    1
    46    19    18   ar
    47    61    62    1
    48    62    63    1
    49    38    36   ar
    50    38    40   ar
    51    36    39   ar
    52    14    13    1
    53    14    16   ar
    54    18    16   ar
    55    10    13    1
    56    10     9    1
    57    10    11    1
    58    40    42   ar
    59    39    41   ar
    60    63    64    2
    61    63    71   am
    62    11    12    2
    63    71    72    1
    64    74    73    2
    65    42    41   ar
    66    73    72    1
    67    73    77   am
    68    72    75    1
    69    75    76    1
    70     4     3    2
    71    78    77    1
    72    78    79    1
    73    78    81    1
    74    77    83    1
    75    79    80    2
    76    81    82    1
    77     3     2    1
    78    83    82    1
    79     5     7    1
    80     5     2    1
    81     5     6    1
    82     8     6    1
    83     1     2    1
