@<TRIPOS>MOLECULE
tmp/4bfmA00.pdb
 193 181 0 0 0
SMALL
GASTEIGER

@<TRIPOS>ATOM
      1  N        -13.4150   -7.6810  -27.3160 N.3    16  ILE16      -0.1231
      2  CA       -12.8590   -6.8410  -28.3780 C.3    16  ILE16       0.1692
      3  C        -12.2850   -7.6650  -29.5190 C.2    16  ILE16       0.2593
      4  O        -11.9730   -7.1260  -30.5730 O.2    16  ILE16      -0.2718
      5  CB       -11.7620   -5.9150  -27.8350 C.3    16  ILE16       0.0266
      6  CG1      -10.7210   -6.7170  -27.0580 C.3    16  ILE16       0.0019
      7  CG2      -12.3740   -4.8680  -26.9210 C.3    16  ILE16       0.0020
      8  CD1       -9.4360   -5.9470  -26.8310 C.3    16  ILE16       0.0001
      9  N        -12.1430   -8.9700  -29.3150 N.am   17  GLY17      -0.1942
     10  CA       -11.6380   -9.8430  -30.3600 C.3    17  GLY17       0.2014
     11  C        -11.7870  -11.3180  -30.0400 C.2    17  GLY17       0.2640
     12  O        -11.9670  -11.7040  -28.8800 O.2    17  GLY17      -0.2714
     13  N        -11.7300  -12.1550  -31.0700 N.am   18  THR18      -0.1936
     14  CA       -11.6960  -13.5960  -30.8670 C.3    18  THR18       0.2028
     15  C        -10.7730  -14.2300  -31.8700 C.2    18  THR18       0.2643
     16  O        -10.3840  -13.6180  -32.8650 O.2    18  THR18      -0.2714
     17  CB       -13.0580  -14.2720  -31.0600 C.3    18  THR18       0.1808
     18  OG1      -13.3240  -14.3960  -32.4530 O.3    18  THR18      -0.2208
     19  CG2      -14.1640  -13.4820  -30.3990 C.3    18  THR18       0.0379
     20  N        -10.4490  -15.4840  -31.5980 N.am   19  GLY19      -0.1939
     21  CA        -9.5410  -16.2560  -32.4120 C.3    19  GLY19       0.2014
     22  C         -9.9010  -17.7180  -32.2600 C.2    19  GLY19       0.2639
     23  O        -10.9510  -18.0500  -31.7100 O.2    19  GLY19      -0.2714
     24  N         -9.0200  -18.5920  -32.7280 N.am   20  GLY20      -0.1939
     25  CA        -9.2550  -20.0220  -32.6630 C.3    20  GLY20       0.2014
     26  C         -9.1470  -20.5990  -31.2620 C.2    20  GLY20       0.2639
     27  O         -9.6280  -21.7020  -31.0130 O.2    20  GLY20      -0.2714
     28  N         -8.5280  -19.8590  -30.3410 N.am   21  PHE21      -0.1959
     29  CA        -8.2500  -20.3710  -29.0000 C.3    21  PHE21       0.1771
     30  C         -8.8500  -19.4680  -27.9310 C.2    21  PHE21       0.2619
     31  O         -9.3310  -19.9470  -26.8900 O.2    21  PHE21      -0.2715
     32  CB        -6.7370  -20.5090  -28.7890 C.3    21  PHE21       0.0574
     33  CG        -6.0470  -21.2720  -29.8900 C.ar   21  PHE21      -0.0200
     34  CD1       -5.9380  -20.7290  -31.1640 C.ar   21  PHE21      -0.0042
     35  CD2       -5.5270  -22.5380  -29.6600 C.ar   21  PHE21      -0.0042
     36  CE1       -5.3310  -21.4300  -32.1930 C.ar   21  PHE21      -0.0003
     37  CE2       -4.9090  -23.2520  -30.6780 C.ar   21  PHE21      -0.0003
     38  CZ        -4.8120  -22.6980  -31.9460 C.ar   21  PHE21      -0.0000
     39  N         -8.8440  -18.1640  -28.1990 N.am   22  ALA22      -0.1977
     40  CA        -9.1580  -17.1910  -27.1700 C.3    22  ALA22       0.1597
     41  C        -10.2930  -16.2340  -27.4990 C.2    22  ALA22       0.2287
     42  O        -10.5450  -15.8640  -28.6510 O.2    22  ALA22      -0.2864
     43  CB        -7.9050  -16.4000  -26.8060 C.3    22  ALA22       0.0319
     44  N        -10.9760  -12.4300  -26.3570 N.3    24  VAL24      -0.1245
     45  CA       -10.1540  -11.3700  -25.8000 C.3    24  VAL24       0.1561
     46  C        -11.0000  -10.1930  -25.3500 C.2    24  VAL24       0.2260
     47  O        -11.7430   -9.6070  -26.1350 O.2    24  VAL24      -0.2867
     48  CB        -9.0740  -10.9080  -26.7870 C.3    24  VAL24       0.0252
     49  CG1       -8.1220   -9.8930  -26.1010 C.3    24  VAL24       0.0019
     50  CG2       -8.3140  -12.1280  -27.3320 C.3    24  VAL24       0.0019
     51  N         -5.7300   -5.8620  -22.2200 N.3    37  ALA37      -0.1245
     52  CA        -6.4600   -6.8600  -22.9810 C.3    37  ALA37       0.1562
     53  C         -6.2200   -8.2290  -22.3580 C.2    37  ALA37       0.2260
     54  O         -5.0760   -8.6100  -22.1220 O.2    37  ALA37      -0.2867
     55  CB        -5.9950   -6.8480  -24.4140 C.3    37  ALA37       0.0290
     56  N         -6.6810  -12.3040  -22.6980 N.3    39  LYS39      -0.1245
     57  CA        -7.0230  -13.5190  -23.4170 C.3    39  LYS39       0.1561
     58  C         -7.5930  -14.5440  -22.4570 C.2    39  LYS39       0.2260
     59  O         -6.9750  -14.8910  -21.4540 O.2    39  LYS39      -0.2867
     60  CB        -5.8080  -14.1060  -24.1240 C.3    39  LYS39       0.0271
     61  CG        -5.3510  -13.2580  -25.2840 C.3    39  LYS39       0.0035
     62  CD        -4.1190  -13.8230  -25.9680 C.3    39  LYS39       0.0206
     63  CE        -4.4320  -15.1090  -26.7080 C.3    39  LYS39       0.1093
     64  NZ        -3.3960  -15.3890  -27.7600 N.3    39  LYS39      -0.1314
     65  N         -8.9570  -18.3700  -22.2260 N.3    41  MET41      -0.1245
     66  CA        -8.9630  -19.6770  -22.8670 C.3    41  MET41       0.1570
     67  C         -9.5540  -20.7330  -21.9680 C.2    41  MET41       0.2261
     68  O         -9.3150  -20.7440  -20.7590 O.2    41  MET41      -0.2867
     69  CB        -7.5450  -20.0650  -23.2730 C.3    41  MET41       0.0387
     70  CG        -7.1070  -19.3430  -24.5490 C.3    41  MET41       0.0595
     71  SD        -5.3780  -18.9400  -24.6320 S.3    41  MET41      -0.1393
     72  CE        -5.1970  -17.9530  -23.1650 C.3    41  MET41       0.0692
     73  N          3.0240  -20.3220  -25.9600 N.3    56  GLU56      -0.1245
     74  CA         2.9190  -18.8740  -26.0910 C.3    56  GLU56       0.1567
     75  C          3.3320  -18.1820  -24.7810 C.2    56  GLU56       0.2260
     76  O          4.0650  -17.1790  -24.7920 O.2    56  GLU56      -0.2867
     77  CB         1.5000  -18.4780  -26.5230 C.3    56  GLU56       0.0388
     78  CG         0.9910  -17.1470  -25.9630 C.3    56  GLU56       0.1160
     79  CD        -0.1700  -16.5630  -26.7800 C.2    56  GLU56       0.3649
     80  OE1       -1.2700  -17.1630  -26.7200 O.co2  56  GLU56      -0.2457
     81  OE2        0.0110  -15.5190  -27.4700 O.co2  56  GLU56      -0.2457
     82  N          3.9630   -7.1750  -27.9610 N.3    69  CYS69      -0.1235
     83  CA         2.8640   -6.9610  -27.0270 C.3    69  CYS69       0.1677
     84  C          3.1730   -7.6350  -25.6840 C.2    69  CYS69       0.2270
     85  O          3.3180   -8.8590  -25.5970 O.2    69  CYS69      -0.2867
     86  CB         1.5660   -7.4850  -27.6360 C.3    69  CYS69       0.0956
     87  SG         0.1440   -7.4210  -26.5350 S.3    69  CYS69      -0.0801
     88  N         -2.5730   -8.7660  -21.2360 N.3    85  LEU85      -0.1231
     89  CA        -1.6360   -8.2160  -22.2020 C.3    85  LEU85       0.1693
     90  C         -1.7450   -6.7010  -22.3450 C.2    85  LEU85       0.2592
     91  O         -2.7370   -6.0880  -21.9680 O.2    85  LEU85      -0.2718
     92  CB        -1.8800   -8.8330  -23.5800 C.3    85  LEU85       0.0284
     93  CG        -1.8650  -10.3560  -23.7270 C.3    85  LEU85       0.0019
     94  CD1       -2.3250  -10.6970  -25.1260 C.3    85  LEU85       0.0001
     95  CD2       -0.4910  -10.9430  -23.4990 C.3    85  LEU85       0.0001
     96  N         -0.7030   -6.1150  -22.9180 N.am   86  GLU86      -0.1966
     97  CA        -0.7190   -4.7320  -23.3470 C.3    86  GLU86       0.1733
     98  C         -1.8910   -4.4850  -24.3020 C.2    86  GLU86       0.2616
     99  O         -2.0270   -5.1430  -25.3320 O.2    86  GLU86      -0.2715
    100  CB         0.6130   -4.4410  -24.0330 C.3    86  GLU86       0.0429
    101  CG         0.8240   -3.0380  -24.5560 C.3    86  GLU86       0.1163
    102  CD         2.1900   -2.8800  -25.2290 C.2    86  GLU86       0.3649
    103  OE1        2.9840   -3.8590  -25.2650 O.co2  86  GLU86      -0.2457
    104  OE2        2.4750   -1.7740  -25.7350 O.co2  86  GLU86      -0.2457
    105  N         -2.7460   -3.5320  -23.9460 N.am   87  TYR87      -0.1960
    106  CA        -3.8770   -3.1570  -24.7850 C.3    87  TYR87       0.1771
    107  C         -3.4300   -2.3280  -25.9760 C.2    87  TYR87       0.2619
    108  O         -2.8100   -1.2820  -25.8180 O.2    87  TYR87      -0.2715
    109  CB        -4.9000   -2.3830  -23.9470 C.3    87  TYR87       0.0574
    110  CG        -6.0680   -1.8460  -24.7350 C.ar   87  TYR87      -0.0198
    111  CD1       -6.7600   -2.6570  -25.6210 C.ar   87  TYR87      -0.0009
    112  CD2       -6.4810   -0.5270  -24.5940 C.ar   87  TYR87      -0.0009
    113  CE1       -7.8370   -2.1740  -26.3540 C.ar   87  TYR87       0.0417
    114  CE2       -7.5600   -0.0300  -25.3250 C.ar   87  TYR87       0.0417
    115  CZ        -8.2310   -0.8580  -26.2020 C.ar   87  TYR87       0.1957
    116  OH        -9.2950   -0.3770  -26.9360 O.3    87  TYR87      -0.2866
    117  N         -3.7440   -2.8080  -27.1780 N.am   88  CYS88      -0.1968
    118  CA        -3.4220   -2.1090  -28.4170 C.3    88  CYS88       0.1712
    119  C         -4.7480   -1.7500  -29.0990 C.2    88  CYS88       0.2296
    120  O         -5.3800   -2.6170  -29.7160 O.2    88  CYS88      -0.2864
    121  CB        -2.5850   -2.9980  -29.3380 C.3    88  CYS88       0.0983
    122  SG        -1.1230   -3.7370  -28.5740 S.3    88  CYS88      -0.0798
    123  N         -6.0660   -1.5650  -33.4980 N.3    91  GLY91      -0.1210
    124  CA        -6.5020   -2.6740  -34.3310 C.3    91  GLY91       0.1956
    125  C         -5.3840   -3.2820  -35.1640 C.2    91  GLY91       0.2611
    126  O         -4.2220   -2.9010  -35.0340 O.2    91  GLY91      -0.2717
    127  N         -5.7510   -4.2200  -36.0330 N.am   92  GLU92      -0.1979
    128  CA        -4.7780   -4.9970  -36.7830 C.3    92  GLU92       0.1602
    129  C         -4.2410   -4.2330  -37.9770 C.2    92  GLU92       0.2287
    130  O         -4.9460   -3.4330  -38.5830 O.2    92  GLU92      -0.2864
    131  CB        -5.4060   -6.3030  -37.2920 C.3    92  GLU92       0.0415
    132  CG        -6.0400   -7.1890  -36.2270 C.3    92  GLU92       0.1163
    133  CD        -6.6450   -8.4660  -36.8180 C.2    92  GLU92       0.3649
    134  OE1       -6.7330   -8.5730  -38.0590 O.co2  92  GLU92      -0.2457
    135  OE2       -7.0320   -9.3660  -36.0520 O.co2  92  GLU92      -0.2457
    136  N          4.0070  -17.7090  -37.4430 N.3   131  ASP131     -0.1239
    137  CA         2.6650  -17.2490  -37.8140 C.3   131  ASP131      0.1674
    138  C          2.6530  -15.7320  -38.0640 C.2   131  ASP131      0.2266
    139  O          1.7540  -15.0200  -37.6210 O.2   131  ASP131     -0.2867
    140  CB         1.6510  -17.6370  -36.7270 C.3   131  ASP131      0.1410
    141  CG         0.2050  -17.6140  -37.2190 C.2   131  ASP131      0.3668
    142  OD1       -0.0300  -17.7220  -38.4420 O.co2 131  ASP131     -0.2456
    143  OD2       -0.7030  -17.4970  -36.3700 O.co2 131  ASP131     -0.2456
    144  N          1.9650  -12.3870  -39.9860 N.3   133  LYS133     -0.1245
    145  CA         0.9390  -11.9450  -40.9150 C.3   133  LYS133      0.1561
    146  C          0.2810  -10.7120  -40.3290 C.2   133  LYS133      0.2260
    147  O          0.4100  -10.4490  -39.1400 O.2   133  LYS133     -0.2867
    148  CB        -0.0980  -13.0430  -41.1230 C.3   133  LYS133      0.0271
    149  CG        -0.7570  -13.4630  -39.8510 C.3   133  LYS133      0.0035
    150  CD        -1.6610  -14.6310  -40.0770 C.3   133  LYS133      0.0206
    151  CE        -2.3590  -14.9340  -38.7830 C.3   133  LYS133      0.1093
    152  NZ        -3.1130  -16.2000  -38.8150 N.3   133  LYS133     -0.1314
    153  N         -2.6180   -9.8990  -39.4140 N.3   135  GLU135     -0.1231
    154  CA        -3.5790  -10.1000  -38.3340 C.3   135  GLU135      0.1699
    155  C         -2.9020  -10.1970  -36.9630 C.2   135  GLU135      0.2592
    156  O         -3.5290   -9.9650  -35.9210 O.2   135  GLU135     -0.2718
    157  CB        -4.3810  -11.3790  -38.5740 C.3   135  GLU135      0.0402
    158  CG        -5.3100  -11.3270  -39.7840 C.3   135  GLU135      0.1161
    159  CD        -4.6420  -11.7590  -41.0770 C.2   135  GLU135      0.3649
    160  OE1       -3.4080  -11.9930  -41.0870 O.co2 135  GLU135     -0.2457
    161  OE2       -5.3590  -11.8740  -42.0960 O.co2 135  GLU135     -0.2457
    162  N         -1.6260  -10.5640  -36.9670 N.am  136  ASN136     -0.1974
    163  CA        -0.8710  -10.7380  -35.7370 C.3   136  ASN136      0.1688
    164  C          0.0360   -9.5390  -35.4350 C.2   136  ASN136      0.2292
    165  O          0.9750   -9.6390  -34.6520 O.2   136  ASN136     -0.2864
    166  CB        -0.0670  -12.0450  -35.8030 C.3   136  ASN136      0.1181
    167  CG        -0.9440  -13.2830  -35.5800 C.2   136  ASN136      0.2629
    168  OD1       -2.0490  -13.1830  -35.0440 O.2   136  ASN136     -0.2716
    169  ND2       -0.4430  -14.4550  -35.9780 N.am  136  ASN136     -0.0877
    170  N         -0.4830   -5.5550  -34.2380 N.3   138  LEU138     -0.1245
    171  CA        -1.4870   -4.6190  -33.7350 C.3   138  LEU138      0.1561
    172  C         -0.9170   -3.2340  -33.5630 C.2   138  LEU138      0.2260
    173  O          0.2530   -3.0690  -33.2230 O.2   138  LEU138     -0.2867
    174  CB        -2.0470   -5.0830  -32.3830 C.3   138  LEU138      0.0270
    175  CG        -2.7360   -6.4510  -32.3690 C.3   138  LEU138      0.0019
    176  CD1       -3.3860   -6.6990  -31.0200 C.3   138  LEU138      0.0001
    177  CD2       -3.7630   -6.5930  -33.5110 C.3   138  LEU138      0.0001
    178  N          1.8700  -10.0860  -31.9300 N.3   148  ILE148     -0.1231
    179  CA         1.1330  -10.9420  -30.9990 C.3   148  ILE148      0.1692
    180  C          1.1320  -12.3880  -31.4530 C.2   148  ILE148      0.2592
    181  O          1.7570  -12.7420  -32.4590 O.2   148  ILE148     -0.2718
    182  CB        -0.3520  -10.5150  -30.8690 C.3   148  ILE148      0.0266
    183  CG1       -1.0680  -10.5880  -32.2220 C.3   148  ILE148      0.0019
    184  CG2       -0.4650   -9.1140  -30.3060 C.3   148  ILE148      0.0020
    185  CD1       -2.5910  -10.5350  -32.0930 C.3   148  ILE148      0.0001
    186  N          0.4120  -13.2120  -30.7000 N.am  149  ASP149     -0.1974
    187  CA         0.1050  -14.5950  -31.0710 C.3   149  ASP149      0.1709
    188  C          1.3490  -15.4730  -31.2360 C.2   149  ASP149      0.2293
    189  O          1.7380  -15.8460  -32.3560 O.2   149  ASP149     -0.2864
    190  CB        -0.7510  -14.6020  -32.3340 C.3   149  ASP149      0.1436
    191  CG        -1.7070  -15.7840  -32.3980 C.2   149  ASP149      0.3671
    192  OD1       -1.8370  -16.5430  -31.4000 O.co2 149  ASP149     -0.2456
    193  OD2       -2.3290  -15.9570  -33.4690 O.co2 149  ASP149     -0.2456
@<TRIPOS>BOND
     1   161   159   ar
     2   148   145    1
     3   148   149    1
     4   160   159   ar
     5   159   158    1
     6   145   146    1
     7   145   144    1
     8   146   147    2
     9   150   149    1
    10   150   151    1
    11   158   157    1
    12   153   154    1
    13   152   151    1
    14   130   129    2
    15   157   154    1
    16   142   141   ar
    17   154   155    1
    18   138   137    1
    19   138   139    2
    20   134   133   ar
    21   129   128    1
    22   137   136    1
    23   137   140    1
    24   131   128    1
    25   131   132    1
    26   141   140    1
    27   141   143   ar
    28   162   155   am
    29   162   163    1
    30   155   156    2
    31   133   132    1
    32   133   135   ar
    33   128   127    1
    34   127   125   am
    35   169   167   am
    36   166   163    1
    37   166   167    1
    38   163   164    1
    39   167   168    2
    40   164   165    2
    41   125   126    2
    42   125   124    1
    43   124   123    1
    44   170   171    1
    45   171   172    1
    46   171   174    1
    47   172   173    2
    48   177   175    1
    49   193   191   ar
    50    16    15    2
    51    24    25    1
    52    24    22   am
    53    25    26    1
    54   181   180    2
    55    18    17    1
    56    21    22    1
    57    21    20    1
    58   191   190    1
    59   191   192   ar
    60   174   175    1
    61   175   176    1
    62   189   188    2
    63   190   187    1
    64    22    23    2
    65   183   185    1
    66   183   182    1
    67    36    38   ar
    68    36    34   ar
    69    38    37   ar
    70   178   179    1
    71    15    20   am
    72    15    14    1
    73   180   179    1
    74   180   186   am
    75    26    27    2
    76    26    28   am
    77   188   187    1
    78    34    33   ar
    79   187   186    1
    80    13    14    1
    81    13    11   am
    82    17    14    1
    83    17    19    1
    84   179   182    1
    85   182   184    1
    86    37    35   ar
    87     4     3    2
    88    10    11    1
    89    10     9    1
    90    28    29    1
    91    11    12    2
    92    33    35   ar
    93    33    32    1
    94   120   119    2
    95     3     9   am
    96     3     2    1
    97   121   122    1
    98   121   118    1
    99   119   118    1
   100    29    32    1
   101    29    30    1
   102    42    41    2
   103   118   117    1
   104     2     5    1
   105     2     1    1
   106    39    30   am
   107    39    40    1
   108    82    83    1
   109    30    31    2
   110     5     6    1
   111     5     7    1
   112    64    63    1
   113    86    83    1
   114    86    87    1
   115    41    40    1
   116    81    79   ar
   117    50    48    1
   118   117   107   am
   119    40    43    1
   120     6     8    1
   121    83    84    1
   122   116   115    1
   123    48    49    1
   124    48    45    1
   125    79    80   ar
   126    79    78    1
   127    63    62    1
   128    77    74    1
   129    77    78    1
   130    44    45    1
   131   113   115   ar
   132   113   111   ar
   133   115   114   ar
   134    47    46    2
   135    74    73    1
   136    74    75    1
   137   107   108    2
   138   107   106    1
   139    62    61    1
   140    45    46    1
   141   104   102   ar
   142    84    85    2
   143   111   110   ar
   144    99    98    2
   145   114   112   ar
   146    61    60    1
   147   103   102   ar
   148   102   101    1
   149    94    93    1
   150    76    75    2
   151   106   109    1
   152   106   105    1
   153   110   112   ar
   154   110   109    1
   155    71    70    1
   156    71    72    1
   157   101   100    1
   158    70    69    1
   159    55    52    1
   160    98   105   am
   161    98    97    1
   162    60    57    1
   163   100    97    1
   164    93    92    1
   165    93    95    1
   166    92    89    1
   167    57    56    1
   168    57    58    1
   169    97    96    1
   170    69    66    1
   171    52    53    1
   172    52    51    1
   173    96    90   am
   174    66    65    1
   175    66    67    1
   176    58    59    2
   177    53    54    2
   178    90    89    1
   179    90    91    2
   180    89    88    1
   181    67    68    2
