@<TRIPOS>MOLECULE
tmp/4bfpA00.pdb
 170 169 0 0 0
SMALL
GASTEIGER

@<TRIPOS>ATOM
      1  N        -34.4930   -4.8160   17.9210 N.3    80  HIS80      -0.1226
      2  CA       -34.9150   -5.0580   16.5510 C.3    80  HIS80       0.1752
      3  C        -33.7450   -5.5510   15.7140 C.2    80  HIS80       0.2597
      4  O        -32.6480   -4.9900   15.7670 O.2    80  HIS80      -0.2718
      5  CB       -35.4890   -3.7890   15.9260 C.3    80  HIS80       0.0759
      6  CG       -35.7750   -3.9220   14.4630 C.ar   80  HIS80       0.0818
      7  ND1      -36.9230   -4.5140   13.9790 N.ar   80  HIS80      -0.2268
      8  CD2      -35.0540   -3.5580   13.3770 C.ar   80  HIS80       0.1154
      9  CE1      -36.9010   -4.4970   12.6580 C.ar   80  HIS80       0.1986
     10  NE2      -35.7770   -3.9240   12.2680 N.ar   80  HIS80      -0.2212
     11  N        -33.9920   -6.6040   14.9440 N.am   81  GLY81      -0.1942
     12  CA       -32.9790   -7.1830   14.0850 C.3    81  GLY81       0.2014
     13  C        -33.4470   -7.2830   12.6470 C.2    81  GLY81       0.2640
     14  O        -34.5680   -7.7090   12.3740 O.2    81  GLY81      -0.2714
     15  N        -32.5780   -6.8730   11.7300 N.am   82  SER82      -0.1936
     16  CA       -32.8480   -6.9490   10.3010 C.3    82  SER82       0.2040
     17  C        -31.6450   -6.3890    9.5590 C.2    82  SER82       0.2485
     18  O        -30.8030   -5.7240   10.1600 O.2    82  SER82      -0.2729
     19  CB       -34.0960   -6.1430    9.9360 C.3    82  SER82       0.2129
     20  OG       -33.8830   -4.7510   10.1130 O.3    82  SER82      -0.2179
     21  N        -31.5620   -6.6440    8.2460 N.am   83  PRO83      -0.2715
     22  CA       -30.4480   -6.1200    7.4510 C.3    83  PRO83       0.1536
     23  C        -30.7190   -4.7240    6.8890 C.2    83  PRO83       0.2598
     24  O        -30.1610   -4.3620    5.8530 O.2    83  PRO83      -0.2715
     25  CB       -30.3150   -7.1490    6.3210 C.3    83  PRO83       0.0310
     26  CG       -31.6540   -7.8650    6.2570 C.3    83  PRO83       0.0237
     27  CD       -32.4950   -7.4340    7.4280 C.3    83  PRO83       0.0939
     28  N        -31.5540   -3.9460    7.5720 N.am   84  PHE84      -0.1974
     29  CA       -31.9170   -2.6180    7.0940 C.3    84  PHE84       0.1639
     30  C        -31.8000   -1.5510    8.1820 C.2    84  PHE84       0.2290
     31  O        -32.3810   -0.4730    8.0610 O.2    84  PHE84      -0.2864
     32  CB       -33.3460   -2.6320    6.5490 C.3    84  PHE84       0.0560
     33  CG       -33.6180   -3.7480    5.5800 C.ar   84  PHE84      -0.0200
     34  CD1      -33.0570   -3.7370    4.3140 C.ar   84  PHE84      -0.0042
     35  CD2      -34.4450   -4.8010    5.9320 C.ar   84  PHE84      -0.0042
     36  CE1      -33.3080   -4.7600    3.4210 C.ar   84  PHE84      -0.0003
     37  CE2      -34.7000   -5.8270    5.0430 C.ar   84  PHE84      -0.0003
     38  CZ       -34.1320   -5.8060    3.7860 C.ar   84  PHE84      -0.0000
     39  N        -30.5160    1.9790    6.9470 N.3    87  ALA87      -0.1231
     40  CA       -31.4850    2.8920    6.3520 C.3    87  ALA87       0.1694
     41  C        -32.4450    3.4180    7.4140 C.2    87  ALA87       0.2591
     42  O        -32.8960    4.5600    7.3480 O.2    87  ALA87      -0.2718
     43  CB       -32.2590    2.1940    5.2480 C.3    87  ALA87       0.0304
     44  N        -32.7480    2.5770    8.3980 N.am   88  ILE88      -0.1980
     45  CA       -33.7430    2.9050    9.4130 C.3    88  ILE88       0.1595
     46  C        -33.3030    4.0410   10.3360 C.2    88  ILE88       0.2287
     47  O        -34.1100    4.8980   10.6940 O.2    88  ILE88      -0.2864
     48  CB       -34.0950    1.6640   10.2550 C.3    88  ILE88       0.0276
     49  CG1      -34.8720    0.6590    9.4010 C.3    88  ILE88       0.0022
     50  CG2      -34.9210    2.0550   11.4730 C.3    88  ILE88       0.0022
     51  CD1      -34.9480   -0.7320   10.0000 C.3    88  ILE88       0.0001
     52  N        -33.8880    7.0490    7.8450 N.3    91  LYS91      -0.1231
     53  CA       -35.2270    7.2410    7.2980 C.3    91  LYS91       0.1693
     54  C        -36.3240    6.8500    8.2850 C.2    91  LYS91       0.2593
     55  O        -37.5020    7.1040    8.0420 O.2    91  LYS91      -0.2718
     56  CB       -35.3900    6.4370    6.0050 C.3    91  LYS91       0.0285
     57  CG       -34.7260    7.0670    4.7890 C.3    91  LYS91       0.0035
     58  CD       -33.2080    6.9590    4.8400 C.3    91  LYS91       0.0206
     59  CE       -32.5540    7.8320    3.7770 C.3    91  LYS91       0.1093
     60  NZ       -31.0670    7.7360    3.7970 N.3    91  LYS91      -0.1314
     61  N        -35.9370    6.2360    9.3980 N.am   92  GLY92      -0.1942
     62  CA       -36.9010    5.7560   10.3720 C.3    92  GLY92       0.2014
     63  C        -37.5920    4.4980    9.8820 C.2    92  GLY92       0.2639
     64  O        -37.3660    4.0600    8.7540 O.2    92  GLY92      -0.2714
     65  N        -38.4340    3.9130   10.7280 N.am   93  PHE93      -0.1959
     66  CA       -39.1800    2.7170   10.3520 C.3    93  PHE93       0.1771
     67  C        -40.2790    3.0570    9.3490 C.2    93  PHE93       0.2619
     68  O        -40.8510    4.1470    9.3860 O.2    93  PHE93      -0.2715
     69  CB       -39.7880    2.0460   11.5850 C.3    93  PHE93       0.0574
     70  CG       -38.7870    1.3130   12.4330 C.ar   93  PHE93      -0.0200
     71  CD1      -38.3160    0.0680   12.0490 C.ar   93  PHE93      -0.0042
     72  CD2      -38.3230    1.8640   13.6160 C.ar   93  PHE93      -0.0042
     73  CE1      -37.3970   -0.6100   12.8280 C.ar   93  PHE93      -0.0003
     74  CE2      -37.4040    1.1900   14.3970 C.ar   93  PHE93      -0.0003
     75  CZ       -36.9410   -0.0470   14.0030 C.ar   93  PHE93      -0.0000
     76  N        -40.5680    2.1110    8.4610 N.am   94  ASP94      -0.1971
     77  CA       -41.5540    2.3100    7.4060 C.3    94  ASP94       0.1709
     78  C        -42.3090    1.0080    7.1540 C.2    94  ASP94       0.2293
     79  O        -41.7410    0.0390    6.6520 O.2    94  ASP94      -0.2864
     80  CB       -40.8610    2.7700    6.1220 C.3    94  ASP94       0.1436
     81  CG       -41.8390    3.2570    5.0710 C.2    94  ASP94       0.3671
     82  OD1      -42.9880    2.7690    5.0460 O.co2  94  ASP94      -0.2456
     83  OD2      -41.4570    4.1350    4.2700 O.co2  94  ASP94      -0.2456
     84  N        -42.3350   -1.3210    3.7830 N.3    97  HIS97      -0.1226
     85  CA       -41.3340   -2.3190    3.4190 C.3    97  HIS97       0.1752
     86  C        -41.4320   -3.5650    4.2970 C.2    97  HIS97       0.2595
     87  O        -40.6400   -4.4970    4.1530 O.2    97  HIS97      -0.2718
     88  CB       -39.9280   -1.7270    3.5320 C.3    97  HIS97       0.0759
     89  CG       -39.6870   -0.5620    2.6240 C.ar   97  HIS97       0.0818
     90  ND1      -38.4510    0.0340    2.4920 N.ar   97  HIS97      -0.2268
     91  CD2      -40.5230    0.1180    1.8040 C.ar   97  HIS97       0.1154
     92  CE1      -38.5360    1.0310    1.6300 C.ar   97  HIS97       0.1986
     93  NE2      -39.7820    1.1040    1.1980 N.ar   97  HIS97      -0.2212
     94  N        -42.4030   -3.5780    5.2050 N.am   98  ALA98      -0.1980
     95  CA       -42.5570   -4.6790    6.1490 C.3    98  ALA98       0.1597
     96  C        -43.6390   -5.6480    5.6910 C.2    98  ALA98       0.2287
     97  O        -44.5970   -5.9070    6.4190 O.2    98  ALA98      -0.2864
     98  CB       -42.8890   -4.1410    7.5280 C.3    98  ALA98       0.0319
     99  N        -42.7500   -8.7840    4.3750 N.3   100  ILE100     -0.1231
    100  CA       -42.2430  -10.1380    4.5720 C.3   100  ILE100      0.1692
    101  C        -42.9300  -10.7830    5.7690 C.2   100  ILE100      0.2593
    102  O        -42.9930  -10.2020    6.8530 O.2   100  ILE100     -0.2718
    103  CB       -40.7150  -10.1510    4.7800 C.3   100  ILE100      0.0266
    104  CG1      -40.0030  -10.4840    3.4690 C.3   100  ILE100      0.0019
    105  CG2      -40.3210  -11.1780    5.8270 C.3   100  ILE100      0.0020
    106  CD1      -40.3730   -9.5760    2.3210 C.3   100  ILE100      0.0001
    107  N        -43.4470  -11.9880    5.5630 N.am  101  GLY101     -0.1942
    108  CA       -44.1710  -12.6920    6.6020 C.3   101  GLY101      0.2014
    109  C        -43.2520  -13.3940    7.5800 C.2   101  GLY101      0.2639
    110  O        -42.1710  -13.8620    7.2190 O.2   101  GLY101     -0.2714
    111  N        -43.6920  -13.4610    8.8310 N.am  102  GLY102     -0.1939
    112  CA       -42.9710  -14.1730    9.8660 C.3   102  GLY102      0.2014
    113  C        -43.9160  -15.0920   10.6130 C.2   102  GLY102      0.2638
    114  O        -45.0240  -15.3660   10.1490 O.2   102  GLY102     -0.2714
    115  N        -43.4820  -15.5610   11.7770 N.am  103  MET103     -0.1976
    116  CA       -44.2770  -16.4840   12.5770 C.3   103  MET103      0.1605
    117  C        -45.6440  -15.8960   12.9200 C.2   103  MET103      0.2287
    118  O        -46.6280  -16.6250   13.0470 O.2   103  MET103     -0.2864
    119  CB       -43.5400  -16.8280   13.8710 C.3   103  MET103      0.0413
    120  CG       -44.2400  -17.8840   14.7010 C.3   103  MET103      0.0598
    121  SD       -43.9750  -19.5380   14.0470 S.3   103  MET103     -0.1393
    122  CE       -42.9680  -20.2160   15.3570 C.3   103  MET103      0.0692
    123  N        -45.1860   -7.5070    9.0540 N.3   107  GLY107     -0.1210
    124  CA       -45.0670   -6.3590    9.9330 C.3   107  GLY107      0.1956
    125  C        -43.6540   -6.1900   10.4540 C.2   107  GLY107      0.2612
    126  O        -42.7620   -6.9730   10.1240 O.2   107  GLY107     -0.2717
    127  N        -43.4490   -5.1640   11.2740 N.am  108  ILE108     -0.1965
    128  CA       -42.1380   -4.8910   11.8500 C.3   108  ILE108      0.1727
    129  C        -41.9880   -5.6240   13.1810 C.2   108  ILE108      0.2616
    130  O        -42.7950   -5.4460   14.0930 O.2   108  ILE108     -0.2715
    131  CB       -41.9220   -3.3800   12.0630 C.3   108  ILE108      0.0290
    132  CG1      -42.2260   -2.6180   10.7690 C.3   108  ILE108      0.0022
    133  CG2      -40.4960   -3.1080   12.5220 C.3   108  ILE108      0.0023
    134  CD1      -42.0950   -1.1130   10.8900 C.3   108  ILE108      0.0001
    135  N        -40.9390   -6.4340   13.2890 N.am  109  TYR109     -0.1974
    136  CA       -40.7620   -7.3300   14.4250 C.3   109  TYR109      0.1639
    137  C        -39.7660   -6.7930   15.4440 C.2   109  TYR109      0.2290
    138  O        -38.7080   -6.2770   15.0860 O.2   109  TYR109     -0.2864
    139  CB       -40.2870   -8.7020   13.9400 C.3   109  TYR109      0.0560
    140  CG       -41.3970   -9.6130   13.4650 C.ar  109  TYR109     -0.0198
    141  CD1      -42.1560   -9.2920   12.3490 C.ar  109  TYR109     -0.0009
    142  CD2      -41.6860  -10.7950   14.1360 C.ar  109  TYR109     -0.0009
    143  CE1      -43.1690  -10.1200   11.9130 C.ar  109  TYR109      0.0417
    144  CE2      -42.6960  -11.6310   13.7060 C.ar  109  TYR109      0.0417
    145  CZ       -43.4360  -11.2890   12.5950 C.ar  109  TYR109      0.1957
    146  OH       -44.4450  -12.1190   12.1640 O.3   109  TYR109     -0.2866
    147  N        -32.2150  -12.4410   12.9920 N.3   120  TYR120     -0.1241
    148  CA       -32.6820  -11.8210   11.7580 C.3   120  TYR120      0.1605
    149  C        -31.7380  -10.7450   11.2340 C.2   120  TYR120      0.2264
    150  O        -32.0510  -10.0610   10.2600 O.2   120  TYR120     -0.2867
    151  CB       -34.0780  -11.2340   11.9680 C.3   120  TYR120      0.0534
    152  CG       -35.1140  -12.2730   12.3300 C.ar  120  TYR120     -0.0201
    153  CD1      -35.7790  -12.9900   11.3440 C.ar  120  TYR120     -0.0009
    154  CD2      -35.4230  -12.5430   13.6550 C.ar  120  TYR120     -0.0009
    155  CE1      -36.7250  -13.9450   11.6670 C.ar  120  TYR120      0.0417
    156  CE2      -36.3680  -13.4960   13.9890 C.ar  120  TYR120      0.0417
    157  CZ       -37.0160  -14.1930   12.9910 C.ar  120  TYR120      0.1957
    158  OH       -37.9570  -15.1410   13.3190 O.3   120  TYR120     -0.2866
    159  N        -30.9210  -11.7180    7.8310 N.3   123  GLY123     -0.1210
    160  CA       -32.0810  -12.1200    7.0560 C.3   123  GLY123      0.1956
    161  C        -32.9580  -13.1370    7.7600 C.2   123  GLY123      0.2611
    162  O        -32.6240  -13.6180    8.8420 O.2   123  GLY123     -0.2717
    163  N        -34.0860  -13.4650    7.1380 N.am  124  ILE124     -0.1979
    164  CA       -35.0140  -14.4430    7.6940 C.3   124  ILE124      0.1595
    165  C        -34.3010  -15.7720    7.9180 C.2   124  ILE124      0.2287
    166  O        -33.6990  -16.3250    6.9970 O.2   124  ILE124     -0.2864
    167  CB       -36.2180  -14.6730    6.7620 C.3   124  ILE124      0.0276
    168  CG1      -37.0110  -13.3750    6.5710 C.3   124  ILE124      0.0022
    169  CG2      -37.1210  -15.7690    7.3170 C.3   124  ILE124      0.0022
    170  CD1      -37.6290  -12.8270    7.8430 C.3   124  ILE124      0.0001
@<TRIPOS>BOND
     1    93    92   ar
     2    93    91   ar
     3    92    90   ar
     4    91    89   ar
     5   106   104    1
     6    90    89   ar
     7    89    88    1
     8    85    88    1
     9    85    84    1
    10    85    86    1
    11    36    38   ar
    12    36    34   ar
    13   104   103    1
    14    59    60    1
    15    59    58    1
    16    38    37   ar
    17    87    86    2
    18    83    81   ar
    19    86    94   am
    20    34    33   ar
    21    99   100    1
    22   100   103    1
    23   100   101    1
    24   103   105    1
    25    57    58    1
    26    57    56    1
    27    37    35   ar
    28    82    81   ar
    29    81    80    1
    30    94    95    1
    31    43    40    1
    32   107   101   am
    33   107   108    1
    34    33    35   ar
    35    33    32    1
    36    96    95    1
    37    96    97    2
    38   101   102    2
    39    24    23    2
    40    56    53    1
    41    80    77    1
    42    95    98    1
    43    26    25    1
    44    26    27    1
    45    25    22    1
    46    40    39    1
    47    40    41    1
    48    32    29    1
    49   168   167    1
    50   168   170    1
    51   108   109    1
    52    79    78    2
    53   167   169    1
    54   167   164    1
    55    23    22    1
    56    23    28   am
    57   166   165    2
    58   160   161    1
    59   160   159    1
    60    29    28    1
    61    29    30    1
    62   163   164    1
    63   163   161   am
    64    78    77    1
    65   110   109    2
    66    53    52    1
    67    53    54    1
    68    42    41    2
    69    77    76    1
    70    41    44   am
    71    27    21    1
    72    22    21    1
    73   109   111   am
    74   164   165    1
    75   161   162    2
    76    55    54    2
    77    31    30    2
    78    21    17   am
    79    54    61   am
    80    44    45    1
    81    76    67   am
    82    64    63    2
    83   111   112    1
    84   123   124    1
    85    67    68    2
    86    67    66    1
    87    61    62    1
    88    49    51    1
    89    49    48    1
    90    45    48    1
    91    45    46    1
    92    17    18    2
    93    17    16    1
    94   112   113    1
    95    63    62    1
    96    63    65   am
    97   124   125    1
    98    19    20    1
    99    19    16    1
   100   126   125    2
   101   114   113    2
   102    48    50    1
   103   150   149    2
   104    16    15    1
   105    46    47    2
   106    66    65    1
   107    66    69    1
   108   125   127   am
   109   113   115   am
   110   132   134    1
   111   132   131    1
   112   149   148    1
   113   127   128    1
   114   153   155   ar
   115   153   152   ar
   116    69    70    1
   117   155   157   ar
   118    15    13   am
   119   148   151    1
   120   148   147    1
   121   115   116    1
   122   128   131    1
   123   128   129    1
   124   143   141   ar
   125   143   145   ar
   126   151   152    1
   127    71    70   ar
   128    71    73   ar
   129   131   133    1
   130   146   145    1
   131    10     9   ar
   132    10     8   ar
   133   152   154   ar
   134   141   140   ar
   135    14    13    2
   136    70    72   ar
   137   116   117    1
   138   116   119    1
   139   145   144   ar
   140    13    12    1
   141     9     7   ar
   142    73    75   ar
   143   117   118    2
   144   157   158    1
   145   157   156   ar
   146   129   135   am
   147   129   130    2
   148   135   136    1
   149     8     6   ar
   150   140   139    1
   151   140   142   ar
   152    72    74   ar
   153   154   156   ar
   154   144   142   ar
   155   119   120    1
   156   139   136    1
   157     7     6   ar
   158    75    74   ar
   159   121   120    1
   160   121   122    1
   161    12    11    1
   162   136   137    1
   163     6     5    1
   164    11     3   am
   165   138   137    2
   166     3     4    2
   167     3     2    1
   168     5     2    1
   169     2     1    1
