@<TRIPOS>MOLECULE
tmp/4bfqE01.pdb
 92 82 0 0 0
SMALL
GASTEIGER

@<TRIPOS>ATOM
      1  N          1.1380   -2.8370    5.9780 N.3    34  THR34      -0.1218
      2  CA         0.3130   -4.0260    5.8670 C.3    34  THR34       0.1862
      3  C          0.0630   -4.5140    7.2740 C.2    34  THR34       0.2287
      4  O          0.9940   -4.8690    7.9790 O.2    34  THR34      -0.2866
      5  CB         1.0210   -5.1220    5.0650 C.3    34  THR34       0.1770
      6  OG1        1.1950   -4.6530    3.7350 O.3    34  THR34      -0.2211
      7  CG2        0.2470   -6.4000    5.0510 C.3    34  THR34       0.0375
      8  N          3.6730   -5.1720    8.6310 N.3    53  TYR53      -0.1241
      9  CA         4.8640   -4.9120    7.8100 C.3    53  TYR53       0.1605
     10  C          4.8080   -3.4870    7.3310 C.2    53  TYR53       0.2264
     11  O          3.7520   -2.9930    7.0040 O.2    53  TYR53      -0.2867
     12  CB         4.9360   -5.7960    6.5670 C.3    53  TYR53       0.0534
     13  CG         4.4100   -7.1660    6.7160 C.ar   53  TYR53      -0.0201
     14  CD1        4.7500   -7.9370    7.8060 C.ar   53  TYR53      -0.0009
     15  CD2        3.5790   -7.7070    5.7610 C.ar   53  TYR53      -0.0009
     16  CE1        4.2470   -9.2150    7.9600 C.ar   53  TYR53       0.0417
     17  CE2        3.0760   -8.9900    5.8850 C.ar   53  TYR53       0.0417
     18  CZ         3.4140   -9.7440    6.9920 C.ar   53  TYR53       0.1957
     19  OH         2.9250  -11.0300    7.1460 O.3    53  TYR53      -0.2866
     20  N          6.3360   -1.2360    4.5020 N.3    55  GLN55      -0.1245
     21  CA         7.0620   -1.1030    3.2470 C.3    55  GLN55       0.1566
     22  C          7.7250    0.2650    3.1730 C.2    55  GLN55       0.2260
     23  O          7.0570    1.2770    3.2770 O.2    55  GLN55      -0.2867
     24  CB         6.1410   -1.3110    2.0390 C.3    55  GLN55       0.0367
     25  CG         6.7840   -0.9650    0.6940 C.3    55  GLN55       0.0905
     26  CD         5.9960   -1.4520   -0.5100 C.2    55  GLN55       0.2608
     27  OE1        5.7530   -2.6480   -0.6660 O.2    55  GLN55      -0.2717
     28  NE2        5.6150   -0.5210   -1.3840 N.am   55  GLN55      -0.0878
     29  N         18.7360   -5.9960  -10.4420 N.3    75  ASP75      -0.1239
     30  CA        18.4750   -5.8170   -9.0090 C.3    75  ASP75       0.1674
     31  C         19.2340   -6.8440   -8.1890 C.2    75  ASP75       0.2266
     32  O         19.7120   -7.8310   -8.7260 O.2    75  ASP75      -0.2867
     33  CB        16.9820   -5.9520   -8.7210 C.3    75  ASP75       0.1410
     34  CG        16.4580   -7.3510   -9.0130 C.2    75  ASP75       0.3668
     35  OD1       16.7150   -8.2700   -8.1990 O.co2  75  ASP75      -0.2456
     36  OD2       15.7970   -7.5310  -10.0620 O.co2  75  ASP75      -0.2456
     37  N         19.7170   -8.4260   -3.7640 N.3    77  ARG77      -0.1245
     38  CA        19.3560   -8.4430   -2.3360 C.3    77  ARG77       0.1563
     39  C         20.6050   -8.1800   -1.5440 C.2    77  ARG77       0.2260
     40  O         21.6840   -8.6570   -1.9180 O.2    77  ARG77      -0.2867
     41  CB        18.8100   -9.8090   -1.9400 C.3    77  ARG77       0.0307
     42  CG        17.3370   -9.9910   -2.2260 C.3    77  ARG77       0.0489
     43  CD        17.0240  -10.0980   -3.7050 C.3    77  ARG77       0.2205
     44  NE        15.6000  -10.3510   -3.9030 N.pl3  77  ARG77      -0.0865
     45  CZ        14.9610  -10.2550   -5.0670 C.cat  77  ARG77       0.5346
     46  NH1       15.6030   -9.8960   -6.1740 N.pl3  77  ARG77       0.1354
     47  NH2       13.6620  -10.5220   -5.1170 N.pl3  77  ARG77       0.1354
     48  N         16.1020   -4.9090   -1.0800 N.3   106  VAL106     -0.1245
     49  CA        16.2780   -5.0950   -2.5070 C.3   106  VAL106      0.1561
     50  C         16.7010   -3.7790   -3.1210 C.2   106  VAL106      0.2260
     51  O         16.0730   -2.7510   -2.8790 O.2   106  VAL106     -0.2867
     52  CB        14.9960   -5.5700   -3.1840 C.3   106  VAL106      0.0252
     53  CG1       15.1880   -5.6100   -4.6890 C.3   106  VAL106      0.0019
     54  CG2       14.6020   -6.9450   -2.6320 C.3   106  VAL106      0.0019
     55  N         17.6490   -1.8030   -6.7600 N.3   108  THR108     -0.1218
     56  CA        17.4190   -1.8900   -8.1990 C.3   108  THR108      0.1862
     57  C         18.3650   -0.9410   -8.9460 C.2   108  THR108      0.2287
     58  O         18.8470    0.0330   -8.3810 O.2   108  THR108     -0.2866
     59  CB        15.9250   -1.6000   -8.4870 C.3   108  THR108      0.1770
     60  OG1       15.1130   -2.5220   -7.7490 O.3   108  THR108     -0.2211
     61  CG2       15.5910   -1.7390   -9.9430 C.3   108  THR108      0.0375
     62  N         14.0640   -1.1350   -1.6830 N.3   114  MET114     -0.1245
     63  CA        12.8540   -1.5580   -1.0120 C.3   114  MET114      0.1570
     64  C         13.2870   -2.3080    0.2290 C.2   114  MET114      0.2261
     65  O         14.1920   -3.1420    0.1680 O.2   114  MET114     -0.2867
     66  CB        12.0210   -2.4910   -1.8770 C.3   114  MET114      0.0387
     67  CG        11.1240   -1.8210   -2.8860 C.3   114  MET114      0.0595
     68  SD         9.7050   -2.8870   -3.2130 S.3   114  MET114     -0.1393
     69  CE         8.9200   -2.8530   -1.6080 C.3   114  MET114      0.0692
     70  N         11.2160   -4.0460    3.6130 N.3   116  ILE116     -0.1245
     71  CA         9.9210   -4.3220    4.2490 C.3   116  ILE116      0.1561
     72  C         10.0780   -5.0860    5.5820 C.2   116  ILE116      0.2260
     73  O          9.9100   -6.2990    5.6300 O.2   116  ILE116     -0.2867
     74  CB         8.9550   -5.0970    3.3310 C.3   116  ILE116      0.0252
     75  CG1        8.8940   -4.4900    1.9350 C.3   116  ILE116      0.0019
     76  CG2        7.5330   -5.0600    3.9220 C.3   116  ILE116      0.0019
     77  CD1        9.7780   -5.1730    0.9330 C.3   116  ILE116      0.0001
     78  N         -0.7960    5.1010   -1.3730 N.3   158  THR158     -0.1218
     79  CA        -2.2370    4.9810   -1.1920 C.3   158  THR158      0.1862
     80  C         -2.5490    5.3330    0.2460 C.2   158  THR158      0.2287
     81  O         -1.6870    5.2060    1.1150 O.2   158  THR158     -0.2866
     82  CB        -2.7080    3.5270   -1.4340 C.3   158  THR158      0.1770
     83  OG1       -4.0890    3.4120   -1.1160 O.3   158  THR158     -0.2211
     84  CG2       -1.9450    2.5180   -0.5720 C.3   158  THR158      0.0375
     85  N         -3.0510   -1.7920    3.7280 N.3   162  ASP162     -0.1239
     86  CA        -3.2570   -3.0880    3.1180 C.3   162  ASP162      0.1674
     87  C         -3.7370   -4.0620    4.1990 C.2   162  ASP162      0.2266
     88  O         -2.9900   -4.3780    5.1340 O.2   162  ASP162     -0.2867
     89  CB        -1.9620   -3.5480    2.4620 C.3   162  ASP162      0.1410
     90  CG        -1.9830   -5.0080    2.0700 C.2   162  ASP162      0.3668
     91  OD1       -3.0660   -5.5560    1.7480 O.co2 162  ASP162     -0.2456
     92  OD2       -0.8760   -5.6060    2.0760 O.co2 162  ASP162     -0.2456
@<TRIPOS>BOND
     1    29    30    1
     2    36    34   ar
     3    61    59    1
     4    34    33    1
     5    34    35   ar
     6    30    33    1
     7    30    31    1
     8    57    58    2
     9    57    56    1
    10    32    31    2
    11    59    56    1
    12    59    60    1
    13    56    55    1
    14    46    45    1
    15    47    45    1
    16    45    44    2
    17    53    52    1
    18    44    43    1
    19    37    38    1
    20    43    42    1
    21    68    67    1
    22    68    69    1
    23    52    54    1
    24    52    49    1
    25    50    51    2
    26    50    49    1
    27    67    66    1
    28    49    48    1
    29    38    41    1
    30    38    39    1
    31    42    41    1
    32    40    39    2
    33    66    63    1
    34    62    63    1
    35    82    79    1
    36    82    83    1
    37    82    84    1
    38    28    26   am
    39    78    79    1
    40    79    80    1
    41    63    64    1
    42    27    26    2
    43    26    25    1
    44    65    64    2
    45    80    81    2
    46    25    24    1
    47    77    75    1
    48    91    90   ar
    49    75    74    1
    50    24    21    1
    51    90    92   ar
    52    90    89    1
    53    89    86    1
    54    86    85    1
    55    86    87    1
    56    22    21    1
    57    22    23    2
    58    21    20    1
    59    74    76    1
    60    74    71    1
    61    70    71    1
    62     6     5    1
    63    87    88    2
    64    71    72    1
    65     7     5    1
    66     5     2    1
    67    72    73    2
    68    15    17   ar
    69    15    13   ar
    70     2     1    1
    71     2     3    1
    72    17    18   ar
    73    12    13    1
    74    12     9    1
    75    13    14   ar
    76    18    19    1
    77    18    16   ar
    78    11    10    2
    79     3     4    2
    80    10     9    1
    81    14    16   ar
    82     9     8    1
