@<TRIPOS>MOLECULE
tmp/4bfqE02.pdb
 88 85 0 0 0
SMALL
GASTEIGER

@<TRIPOS>ATOM
      1  N          5.9300    7.4910   16.7850 N.3    91  TYR91      -0.1241
      2  CA         6.0670    8.5780   17.7630 C.3    91  TYR91       0.1605
      3  C          5.3710    8.3040   19.1020 C.2    91  TYR91       0.2264
      4  O          5.5030    9.0960   20.0160 O.2    91  TYR91      -0.2867
      5  CB         5.5320    9.8980   17.1890 C.3    91  TYR91       0.0534
      6  CG         6.3530   10.4980   16.0700 C.ar   91  TYR91      -0.0201
      7  CD1        7.6570   10.0570   15.7950 C.ar   91  TYR91      -0.0009
      8  CD2        5.8310   11.5360   15.2700 C.ar   91  TYR91      -0.0009
      9  CE1        8.3920   10.6120   14.7630 C.ar   91  TYR91       0.0417
     10  CE2        6.5730   12.0900   14.2250 C.ar   91  TYR91       0.0417
     11  CZ         7.8560   11.6310   13.9900 C.ar   91  TYR91       0.1957
     12  OH         8.6230   12.1780   13.0060 O.3    91  TYR91      -0.2866
     13  N          1.6380    7.9500   14.8320 N.3   141  LYS141     -0.1245
     14  CA         2.3320    8.7020   13.8270 C.3   141  LYS141      0.1561
     15  C          3.7190    8.1070   13.6360 C.2   141  LYS141      0.2260
     16  O          4.3710    7.7160   14.5960 O.2   141  LYS141     -0.2867
     17  CB         2.4720   10.1660   14.2430 C.3   141  LYS141      0.0271
     18  CG         1.1640   10.9150   14.3730 C.3   141  LYS141      0.0035
     19  CD         1.4050   12.3920   14.6150 C.3   141  LYS141      0.0206
     20  CE         0.1860   13.0540   15.2220 C.3   141  LYS141      0.1093
     21  NZ        -1.1060   12.6230   14.6180 N.3   141  LYS141     -0.1314
     22  N         10.4830   10.5840   10.6380 N.3   144  SER144     -0.1217
     23  CA        11.8890   10.6470   10.9680 C.3   144  SER144      0.1889
     24  C         12.0200   11.2210   12.3570 C.2   144  SER144      0.2288
     25  O         11.2010   12.0200   12.7910 O.2   144  SER144     -0.2866
     26  CB        12.6430   11.5290   10.0000 C.3   144  SER144      0.2089
     27  OG        13.9680   11.6720   10.4580 O.3   144  SER144     -0.2183
     28  N          5.7350   25.2720   11.7800 N.3   186  TYR186     -0.1241
     29  CA         5.7100   26.0370   13.0220 C.3   186  TYR186      0.1605
     30  C          6.1270   27.4690   12.7420 C.2   186  TYR186      0.2264
     31  O          6.8190   27.7410   11.7700 O.2   186  TYR186     -0.2867
     32  CB         6.5740   25.3670   14.0740 C.3   186  TYR186      0.0534
     33  CG         6.0790   23.9820   14.3860 C.ar  186  TYR186     -0.0201
     34  CD1        5.0100   23.7890   15.2590 C.ar  186  TYR186     -0.0009
     35  CD2        6.6470   22.8680   13.7850 C.ar  186  TYR186     -0.0009
     36  CE1        4.5440   22.5230   15.5460 C.ar  186  TYR186      0.0417
     37  CE2        6.1920   21.5940   14.0800 C.ar  186  TYR186      0.0417
     38  CZ         5.1470   21.4340   14.9610 C.ar  186  TYR186      0.1957
     39  OH         4.6690   20.1820   15.2620 O.3   186  TYR186     -0.2866
     40  N          7.9740   29.7240   14.3290 N.3   188  CYS188     -0.1221
     41  CA         9.3880   30.0140   14.4980 C.3   188  CYS188      0.1808
     42  C         10.2090   29.7320   13.2510 C.2   188  CYS188      0.2601
     43  O         11.1390   30.4710   12.9340 O.2   188  CYS188     -0.2717
     44  CB         9.9690   29.1620   15.6270 C.3   188  CYS188      0.0970
     45  SG         9.9200   27.3850   15.2780 S.3   188  CYS188     -0.0800
     46  N          9.8700   28.6530   12.5530 N.am  189  CYS189     -0.1970
     47  CA        10.8490   27.9240   11.7610 C.3   189  CYS189      0.1712
     48  C         10.3800   27.6810   10.3360 C.2   189  CYS189      0.2296
     49  O          9.2090   27.4220   10.1080 O.2   189  CYS189     -0.2864
     50  CB        11.1460   26.6150   12.4900 C.3   189  CYS189      0.0983
     51  SG        11.6340   26.9340   14.2200 S.3   189  CYS189     -0.0798
     52  N         11.2750   25.2130    8.2020 N.3   191  GLU191     -0.1245
     53  CA        11.2340   23.8420    7.7370 C.3   191  GLU191      0.1567
     54  C          9.9420   23.1160    8.1690 C.2   191  GLU191      0.2260
     55  O          9.4940   23.2470    9.2950 O.2   191  GLU191     -0.2867
     56  CB        12.5280   23.0780    8.1140 C.3   191  GLU191      0.0388
     57  CG        12.7110   22.6300    9.5630 C.3   191  GLU191      0.1160
     58  CD        13.1810   23.7410   10.4960 C.2   191  GLU191      0.3649
     59  OE1       13.3620   24.8840   10.0580 O.co2 191  GLU191     -0.2457
     60  OE2       13.3500   23.4810   11.7040 O.co2 191  GLU191     -0.2457
     61  N          7.5700   19.7750    9.0890 N.3   193  TYR193     -0.1227
     62  CA         7.7270   18.4860    9.7560 C.3   193  TYR193      0.1736
     63  C          6.6320   17.5670    9.2800 C.2   193  TYR193      0.2595
     64  O          5.4540   17.9560    9.2120 O.2   193  TYR193     -0.2718
     65  CB         7.7450   18.6630   11.2660 C.3   193  TYR193      0.0548
     66  CG         8.9940   19.3530   11.6570 C.ar  193  TYR193     -0.0200
     67  CD1        9.0830   20.7510   11.6300 C.ar  193  TYR193     -0.0009
     68  CD2       10.1350   18.6230   11.9620 C.ar  193  TYR193     -0.0009
     69  CE1       10.2660   21.3980   11.9410 C.ar  193  TYR193      0.0417
     70  CE2       11.3270   19.2600   12.2630 C.ar  193  TYR193      0.0417
     71  CZ        11.3850   20.6420   12.2500 C.ar  193  TYR193      0.1957
     72  OH        12.5650   21.2690   12.5620 O.3   193  TYR193     -0.2866
     73  N          7.0440   16.3700    8.8730 N.am  194  ILE194     -0.1966
     74  CA         6.1770   15.4650    8.1500 C.3   194  ILE194      0.1727
     75  C          6.0660   14.1410    8.8750 C.2   194  ILE194      0.2616
     76  O          7.0660   13.5980    9.3500 O.2   194  ILE194     -0.2715
     77  CB         6.7240   15.1740    6.7420 C.3   194  ILE194      0.0290
     78  CG1        7.0590   16.4810    6.0310 C.3   194  ILE194      0.0022
     79  CG2        5.6970   14.3950    5.9370 C.3   194  ILE194      0.0023
     80  CD1        7.6150   16.2850    4.6380 C.3   194  ILE194      0.0001
     81  N          4.8480   13.6050    8.9350 N.am  195  ASP195     -0.1971
     82  CA         4.6700   12.2660    9.4430 C.3   195  ASP195      0.1709
     83  C          3.5770   11.5460    8.6550 C.2   195  ASP195      0.2293
     84  O          2.8110   12.1700    7.9290 O.2   195  ASP195     -0.2864
     85  CB         4.3620   12.3200   10.9300 C.3   195  ASP195      0.1436
     86  CG         3.0410   12.9640   11.2210 C.2   195  ASP195      0.3671
     87  OD1        2.0140   12.4450   10.7360 O.co2 195  ASP195     -0.2456
     88  OD2        3.0210   13.9950   11.9230 O.co2 195  ASP195     -0.2456
@<TRIPOS>BOND
     1    80    78    1
     2    79    77    1
     3    78    77    1
     4    77    74    1
     5    53    56    1
     6    53    54    1
     7    53    52    1
     8    84    83    2
     9    56    57    1
    10    74    73    1
    11    74    75    1
    12    54    55    2
    13    83    82    1
    14    73    63   am
    15    75    81   am
    16    75    76    2
    17    81    82    1
    18    61    62    1
    19    64    63    2
    20    63    62    1
    21    82    85    1
    22    57    58    1
    23    62    65    1
    24    26    27    1
    25    26    23    1
    26    59    58   ar
    27    49    48    2
    28    48    47    1
    29    58    60   ar
    30    22    23    1
    31    87    86   ar
    32    85    86    1
    33    23    24    1
    34    86    88   ar
    35    65    66    1
    36    67    66   ar
    37    67    69   ar
    38    66    68   ar
    39    47    50    1
    40    47    46    1
    41    31    30    2
    42    28    29    1
    43    69    71   ar
    44    68    70   ar
    45    71    70   ar
    46    71    72    1
    47    24    25    2
    48    50    51    1
    49    46    42   am
    50    30    29    1
    51    43    42    2
    52    12    11    1
    53    29    32    1
    54    42    41    1
    55    15    14    1
    56    15    16    2
    57    35    37   ar
    58    35    33   ar
    59    14    17    1
    60    14    13    1
    61    11    10   ar
    62    11     9   ar
    63    32    33    1
    64    37    38   ar
    65    51    45    1
    66    10     8   ar
    67    17    18    1
    68    40    41    1
    69    18    19    1
    70    33    34   ar
    71    41    44    1
    72    19    20    1
    73    21    20    1
    74     9     7   ar
    75    38    39    1
    76    38    36   ar
    77    34    36   ar
    78     8     6   ar
    79    45    44    1
    80     7     6   ar
    81     6     5    1
    82     1     2    1
    83     5     2    1
    84     2     3    1
    85     3     4    2
