@<TRIPOS>MOLECULE
tmp/4bfrA00.pdb
 190 182 0 0 0
SMALL
GASTEIGER

@<TRIPOS>ATOM
      1  N          4.5910   83.1750   88.1510 N.3   574  LYS574     -0.1231
      2  CA         4.7850   83.9760   86.9380 C.3   574  LYS574      0.1693
      3  C          3.5040   84.1160   86.1020 C.2   574  LYS574      0.2592
      4  O          2.4680   83.5440   86.4510 O.2   574  LYS574     -0.2718
      5  CB         5.9580   83.4200   86.0920 C.3   574  LYS574      0.0285
      6  CG         5.7830   81.9740   85.6240 C.3   574  LYS574      0.0035
      7  CD         6.9880   81.4620   84.8570 C.3   574  LYS574      0.0206
      8  CE         6.8050   80.0230   84.4430 C.3   574  LYS574      0.1093
      9  NZ         7.9900   79.5020   83.7130 N.3   574  LYS574     -0.1314
     10  N          3.5800   84.9010   85.0080 N.am  575  TYR575     -0.1962
     11  CA         2.4790   85.1240   84.0710 C.3   575  TYR575      0.1771
     12  C          3.0000   85.2610   82.6390 C.2   575  TYR575      0.2619
     13  O          4.1230   85.7280   82.4380 O.2   575  TYR575     -0.2715
     14  CB         1.6180   86.3420   84.4790 C.3   575  TYR575      0.0574
     15  CG         2.2730   87.6930   84.2910 C.ar  575  TYR575     -0.0198
     16  CD1        3.0290   88.2690   85.3060 C.ar  575  TYR575     -0.0009
     17  CD2        2.0880   88.4230   83.1200 C.ar  575  TYR575     -0.0009
     18  CE1        3.6250   89.5180   85.1440 C.ar  575  TYR575      0.0417
     19  CE2        2.6910   89.6640   82.9390 C.ar  575  TYR575      0.0417
     20  CZ         3.4470   90.2150   83.9590 C.ar  575  TYR575      0.1957
     21  OH         4.0050   91.4560   83.7930 O.3   575  TYR575     -0.2866
     22  N          2.1820   84.8680   81.6490 N.am  576  MET576     -0.1977
     23  CA         2.5410   84.9760   80.2360 C.3   576  MET576      0.1605
     24  C          2.1790   86.3810   79.7450 C.2   576  MET576      0.2287
     25  O          1.1110   86.8930   80.0870 O.2   576  MET576     -0.2864
     26  CB         1.8290   83.8920   79.4110 C.3   576  MET576      0.0413
     27  CG         2.4500   83.6500   78.0550 C.3   576  MET576      0.0598
     28  SD         1.5090   82.4460   77.0890 S.3   576  MET576     -0.1393
     29  CE         2.4700   82.4200   75.5940 C.3   576  MET576      0.0692
     30  N         -2.3670   84.6820   81.0930 N.3   582  PRO582     -0.2102
     31  CA        -2.6340   83.5670   82.0260 C.3   582  PRO582      0.1504
     32  C         -1.6470   83.5000   83.1890 C.2   582  PRO582      0.2576
     33  O         -0.4690   83.8150   83.0130 O.2   582  PRO582     -0.2718
     34  CB        -2.5620   82.3250   81.1360 C.3   582  PRO582      0.0282
     35  CG        -1.6990   82.7130   80.0060 C.3   582  PRO582      0.0208
     36  CD        -1.8860   84.1870   79.7860 C.3   582  PRO582      0.0893
     37  N         -2.1370   83.1050   84.3760 N.am  583  LEU583     -0.1966
     38  CA        -1.3420   83.0180   85.6030 C.3   583  LEU583      0.1728
     39  C         -0.7690   81.6240   85.8430 C.2   583  LEU583      0.2616
     40  O         -1.4430   80.6290   85.5890 O.2   583  LEU583     -0.2715
     41  CB        -2.1760   83.4560   86.8270 C.3   583  LEU583      0.0311
     42  CG        -2.7170   84.8920   86.8390 C.3   583  LEU583      0.0022
     43  CD1       -3.8690   85.0310   87.8080 C.3   583  LEU583      0.0001
     44  CD2       -1.6340   85.8890   87.1840 C.3   583  LEU583      0.0001
     45  N          0.4720   81.5650   86.3530 N.am  584  TRP584     -0.1974
     46  CA         1.1820   80.3330   86.7000 C.3   584  TRP584      0.1640
     47  C          1.4640   80.3950   88.2020 C.2   584  TRP584      0.2290
     48  O          2.1810   81.2890   88.6600 O.2   584  TRP584     -0.2864
     49  CB         2.4860   80.2130   85.8870 C.3   584  TRP584      0.0576
     50  CG         3.2060   78.8960   86.0050 C.ar  584  TRP584      0.0006
     51  CD1        3.8910   78.4300   87.0890 C.ar  584  TRP584      0.0946
     52  CD2        3.4210   77.9400   84.9560 C.ar  584  TRP584      0.0152
     53  NE1        4.4610   77.2100   86.8020 N.ar  584  TRP584     -0.2442
     54  CE2        4.1970   76.8890   85.4970 C.ar  584  TRP584      0.0810
     55  CE3        3.0160   77.8570   83.6140 C.ar  584  TRP584      0.0012
     56  CZ2        4.5780   75.7730   84.7430 C.ar  584  TRP584      0.0191
     57  CZ3        3.3940   76.7500   82.8680 C.ar  584  TRP584      0.0001
     58  CH2        4.1610   75.7220   83.4330 C.ar  584  TRP584      0.0015
     59  N         -2.2070   76.3860   86.5900 N.3   600  ILE600     -0.1245
     60  CA        -2.3320   77.4820   85.6210 C.3   600  ILE600      0.1561
     61  C         -3.7630   78.0130   85.6230 C.2   600  ILE600      0.2260
     62  O         -4.7000   77.2400   85.4230 O.2   600  ILE600     -0.2867
     63  CB        -1.8800   77.0890   84.1770 C.3   600  ILE600      0.0252
     64  CG1       -0.4280   76.5810   84.1430 C.3   600  ILE600      0.0019
     65  CG2       -2.0740   78.2570   83.1790 C.3   600  ILE600      0.0019
     66  CD1       -0.1240   75.6360   82.9850 C.3   600  ILE600      0.0001
     67  N         -6.3230   80.3770   83.6090 N.3   602  LYS602     -0.1245
     68  CA        -6.5500   81.0160   82.3100 C.3   602  LYS602      0.1561
     69  C         -7.9080   81.7080   82.2750 C.2   602  LYS602      0.2260
     70  O         -8.9290   81.0620   82.5160 O.2   602  LYS602     -0.2867
     71  CB        -6.4170   80.0070   81.1520 C.3   602  LYS602      0.0271
     72  CG        -4.9900   79.5330   80.9050 C.3   602  LYS602      0.0035
     73  CD        -4.8010   79.0030   79.4930 C.3   602  LYS602      0.0206
     74  CE        -3.3770   78.5680   79.2500 C.3   602  LYS602      0.1093
     75  NZ        -3.2020   77.9800   77.8960 N.3   602  LYS602     -0.1314
     76  N        -11.6190   76.7870   77.5990 N.3   607  LEU607     -0.1245
     77  CA       -10.9250   75.5400   77.9330 C.3   607  LEU607      0.1561
     78  C        -11.8150   74.2890   77.8280 C.2   607  LEU607      0.2260
     79  O        -11.4060   73.2110   78.2690 O.2   607  LEU607     -0.2867
     80  CB       -10.2500   75.6290   79.3190 C.3   607  LEU607      0.0270
     81  CG        -9.0790   76.6120   79.4550 C.3   607  LEU607      0.0019
     82  CD1       -8.7440   76.8500   80.9120 C.3   607  LEU607      0.0001
     83  CD2       -7.8400   76.1290   78.7000 C.3   607  LEU607      0.0001
     84  N        -10.0660   71.7160   75.5620 N.3   610  ASP610     -0.1239
     85  CA        -8.9630   71.1030   76.3070 C.3   610  ASP610      0.1674
     86  C         -9.4820   70.0280   77.2630 C.2   610  ASP610      0.2266
     87  O         -8.8490   68.9810   77.4000 O.2   610  ASP610     -0.2867
     88  CB        -8.1740   72.1680   77.0810 C.3   610  ASP610      0.1410
     89  CG        -7.3050   73.0370   76.2000 C.2   610  ASP610      0.3668
     90  OD1       -6.1560   72.6350   75.9220 O.co2 610  ASP610     -0.2456
     91  OD2       -7.7680   74.1240   75.7980 O.co2 610  ASP610     -0.2456
     92  N         -3.0610   65.2770   81.9410 N.3   636  TYR636     -0.1241
     93  CA        -3.1530   66.2370   83.0480 C.3   636  TYR636      0.1605
     94  C         -4.5590   66.8170   83.2160 C.2   636  TYR636      0.2264
     95  O         -5.3290   66.8710   82.2520 O.2   636  TYR636     -0.2867
     96  CB        -2.0970   67.3550   82.9010 C.3   636  TYR636      0.0534
     97  CG        -2.2170   68.1650   81.6280 C.ar  636  TYR636     -0.0201
     98  CD1       -1.5640   67.7720   80.4630 C.ar  636  TYR636     -0.0009
     99  CD2       -2.9580   69.3440   81.5950 C.ar  636  TYR636     -0.0009
    100  CE1       -1.6760   68.5100   79.2870 C.ar  636  TYR636      0.0417
    101  CE2       -3.0760   70.0910   80.4250 C.ar  636  TYR636      0.0417
    102  CZ        -2.4310   69.6720   79.2740 C.ar  636  TYR636      0.1957
    103  OH        -2.5400   70.4110   78.1230 O.3   636  TYR636     -0.2866
    104  N         -5.6720   74.5900   85.0050 N.3   648  ILE648     -0.1231
    105  CA        -4.8540   73.5540   84.3600 C.3   648  ILE648      0.1692
    106  C         -3.8040   73.0100   85.3420 C.2   648  ILE648      0.2592
    107  O         -3.1000   73.7930   85.9840 O.2   648  ILE648     -0.2718
    108  CB        -4.2140   74.0940   83.0370 C.3   648  ILE648      0.0266
    109  CG1       -5.2880   74.4110   81.9740 C.3   648  ILE648      0.0019
    110  CG2       -3.1620   73.1310   82.4650 C.3   648  ILE648      0.0020
    111  CD1       -4.9230   75.5310   81.0270 C.3   648  ILE648      0.0001
    112  N         -3.7020   71.6680   85.4420 N.am  649  GLU649     -0.1966
    113  CA        -2.7370   70.9700   86.2930 C.3   649  GLU649      0.1733
    114  C         -1.3530   71.0090   85.6330 C.2   649  GLU649      0.2616
    115  O         -1.2360   70.7310   84.4360 O.2   649  GLU649     -0.2715
    116  CB        -3.1850   69.5130   86.5210 C.3   649  GLU649      0.0429
    117  CG        -2.4290   68.7900   87.6230 C.3   649  GLU649      0.1163
    118  CD        -2.4450   67.2790   87.5160 C.2   649  GLU649      0.3649
    119  OE1       -3.5420   66.6790   87.5950 O.co2 649  GLU649     -0.2457
    120  OE2       -1.3510   66.6880   87.3750 O.co2 649  GLU649     -0.2457
    121  N         -0.3130   71.3490   86.4160 N.am  650  VAL650     -0.1963
    122  CA         1.0700   71.4240   85.9300 C.3   650  VAL650      0.1727
    123  C          1.7950   70.1000   86.1750 C.2   650  VAL650      0.2616
    124  O          1.8060   69.5980   87.3010 O.2   650  VAL650     -0.2715
    125  CB         1.8470   72.6420   86.5230 C.3   650  VAL650      0.0290
    126  CG1        3.3390   72.5990   86.1780 C.3   650  VAL650      0.0023
    127  CG2        1.2280   73.9680   86.0870 C.3   650  VAL650      0.0023
    128  N          2.4000   69.5460   85.1120 N.am  651  VAL651     -0.1977
    129  CA         3.1960   68.3220   85.1670 C.3   651  VAL651      0.1596
    130  C          4.6010   68.7720   85.5910 C.2   651  VAL651      0.2287
    131  O          5.2470   69.5380   84.8720 O.2   651  VAL651     -0.2864
    132  CB         3.1740   67.5440   83.8150 C.3   651  VAL651      0.0276
    133  CG1        4.1460   66.3670   83.8210 C.3   651  VAL651      0.0022
    134  CG2        1.7670   67.0640   83.4710 C.3   651  VAL651      0.0022
    135  N          9.0000   69.4170   83.6840 N.3   654  SER654     -0.1217
    136  CA         8.7310   69.2760   82.2530 C.3   654  SER654      0.1889
    137  C          8.9860   70.5700   81.4840 C.2   654  SER654      0.2288
    138  O          8.6730   71.6560   81.9790 O.2   654  SER654     -0.2866
    139  CB         7.3070   68.7850   82.0160 C.3   654  SER654      0.2089
    140  OG         6.3430   69.7580   82.3850 O.3   654  SER654     -0.2183
    141  N          9.1690   72.3500   77.1830 N.3   656  THR656     -0.1218
    142  CA         8.7950   72.2850   75.7660 C.3   656  THR656      0.1862
    143  C         10.0250   71.9350   74.9200 C.2   656  THR656      0.2287
    144  O         11.1520   72.1190   75.3880 O.2   656  THR656     -0.2866
    145  CB         8.2070   73.6370   75.3000 C.3   656  THR656      0.1770
    146  OG1        9.1850   74.6660   75.4510 O.3   656  THR656     -0.2211
    147  CG2        6.9380   74.0200   76.0360 C.3   656  THR656      0.0375
    148  N          6.5300   74.4180   70.8590 N.3   720  ASP720     -0.1239
    149  CA         5.9470   75.0210   72.0620 C.3   720  ASP720      0.1674
    150  C          4.7500   74.2540   72.6560 C.2   720  ASP720      0.2266
    151  O          4.4390   74.4600   73.8320 O.2   720  ASP720     -0.2867
    152  CB         5.5780   76.4910   71.8070 C.3   720  ASP720      0.1410
    153  CG         6.7780   77.4140   71.7730 C.2   720  ASP720      0.3668
    154  OD1        7.2600   77.8010   72.8590 O.co2 720  ASP720     -0.2456
    155  OD2        7.2350   77.7510   70.6610 O.co2 720  ASP720     -0.2456
    156  N          5.6340   68.8400   75.1770 N.3   723  MET723     -0.1245
    157  CA         6.4920   68.8590   76.3610 C.3   723  MET723      0.1570
    158  C          7.0510   67.4860   76.7130 C.2   723  MET723      0.2261
    159  O          6.4070   66.4670   76.4530 O.2   723  MET723     -0.2867
    160  CB         5.7470   69.4410   77.5710 C.3   723  MET723      0.0387
    161  CG         5.4080   70.9040   77.4470 C.3   723  MET723      0.0595
    162  SD         5.0650   71.6100   79.0690 S.3   723  MET723     -0.1393
    163  CE         4.3560   73.1610   78.6030 C.3   723  MET723      0.0692
    164  N          4.4360   64.4360   76.2780 N.3   731  PHE731     -0.1241
    165  CA         3.0180   64.7940   76.3230 C.3   731  PHE731      0.1605
    166  C          2.6990   66.0760   75.5600 C.2   731  PHE731      0.2264
    167  O          3.5380   66.9760   75.4720 O.2   731  PHE731     -0.2867
    168  CB         2.4950   64.8520   77.7740 C.3   731  PHE731      0.0534
    169  CG         3.1080   65.9140   78.6580 C.ar  731  PHE731     -0.0203
    170  CD1        4.3160   65.6880   79.3090 C.ar  731  PHE731     -0.0042
    171  CD2        2.4590   67.1240   78.8710 C.ar  731  PHE731     -0.0042
    172  CE1        4.8790   66.6670   80.1300 C.ar  731  PHE731     -0.0003
    173  CE2        3.0200   68.0990   79.6970 C.ar  731  PHE731     -0.0003
    174  CZ         4.2240   67.8640   80.3220 C.ar  731  PHE731     -0.0000
    175  N          0.3280   69.5680   74.8810 N.3   733  ILE733     -0.1231
    176  CA        -0.3450   70.6470   75.6150 C.3   733  ILE733      0.1692
    177  C         -1.0530   71.6170   74.6580 C.2   733  ILE733      0.2592
    178  O         -0.8270   71.5530   73.4460 O.2   733  ILE733     -0.2718
    179  CB         0.5830   71.3900   76.6320 C.3   733  ILE733      0.0266
    180  CG1        1.8020   72.0540   75.9570 C.3   733  ILE733      0.0019
    181  CG2        1.0090   70.5020   77.7930 C.3   733  ILE733      0.0020
    182  CD1        1.7130   73.5610   75.8660 C.3   733  ILE733      0.0001
    183  N         -1.8960   72.5190   75.2160 N.am  734  ASP734     -0.1974
    184  CA        -2.6430   73.5700   74.5130 C.3   734  ASP734      0.1709
    185  C         -3.4540   73.0370   73.3140 C.2   734  ASP734      0.2293
    186  O         -3.0370   73.1760   72.1590 O.2   734  ASP734     -0.2864
    187  CB        -1.7050   74.7350   74.1170 C.3   734  ASP734      0.1436
    188  CG        -2.4090   76.0030   73.6790 C.2   734  ASP734      0.3671
    189  OD1       -3.0240   76.6690   74.5410 O.co2 734  ASP734     -0.2456
    190  OD2       -2.2910   76.3660   72.4900 O.co2 734  ASP734     -0.2456
@<TRIPOS>BOND
     1   155   153   ar
     2   148   149    1
     3   153   152    1
     4   153   154   ar
     5   152   149    1
     6   149   150    1
     7   186   185    2
     8   190   188   ar
     9   150   151    2
    10   185   184    1
    11   178   177    2
    12   188   187    1
    13   188   189   ar
    14   187   184    1
    15   184   183    1
    16   177   183   am
    17   177   176    1
    18   175   176    1
    19   143   144    2
    20   143   142    1
    21   156   157    1
    22   145   146    1
    23   145   142    1
    24   145   147    1
    25   167   166    2
    26   166   165    1
    27    84    85    1
    28    29    28    1
    29   176   179    1
    30   142   141    1
    31    91    89   ar
    32   182   180    1
    33    90    89   ar
    34   180   179    1
    35    89    88    1
    36   164   165    1
    37    85    88    1
    38    85    86    1
    39   165   168    1
    40   157   158    1
    41   157   160    1
    42   159   158    2
    43   179   181    1
    44    28    27    1
    45    86    87    2
    46   161   160    1
    47   161   162    1
    48    76    77    1
    49   168   169    1
    50    78    77    1
    51    78    79    2
    52    75    74    1
    53    77    80    1
    54    27    26    1
    55   103   102    1
    56   163   162    1
    57   169   171   ar
    58   169   170   ar
    59    83    81    1
    60   171   173   ar
    61    74    73    1
    62   102   100   ar
    63   102   101   ar
    64   100    98   ar
    65   170   172   ar
    66    80    81    1
    67    26    23    1
    68    81    82    1
    69    73    72    1
    70   173   174   ar
    71    24    25    2
    72    24    23    1
    73    36    35    1
    74    36    30    1
    75    35    34    1
    76   172   174   ar
    77    23    22    1
    78   101    99   ar
    79    98    97   ar
    80    72    71    1
    81   111   109    1
    82    30    31    1
    83    34    31    1
    84    71    68    1
    85   137   138    2
    86   137   136    1
    87    99    97   ar
    88    97    96    1
    89    22    12   am
    90    92    93    1
    91   109   108    1
    92   139   136    1
    93   139   140    1
    94    31    32    1
    95    95    94    2
    96   136   135    1
    97    69    68    1
    98    69    70    2
    99    68    67    1
   100    13    12    2
   101   110   108    1
   102    12    11    1
   103    57    58   ar
   104    57    55   ar
   105    96    93    1
   106    19    17   ar
   107    19    20   ar
   108    66    64    1
   109    33    32    2
   110   108   105    1
   111    93    94    1
   112    17    15   ar
   113    65    63    1
   114    32    37   am
   115    58    56   ar
   116   134   132    1
   117    55    52   ar
   118     9     8    1
   119    21    20    1
   120   132   133    1
   121   132   129    1
   122    20    18   ar
   123    11    14    1
   124    11    10    1
   125    64    63    1
   126    63    60    1
   127    15    14    1
   128    15    16   ar
   129   105   104    1
   130   105   106    1
   131    37    38    1
   132   115   114    2
   133     8     7    1
   134    56    54   ar
   135     7     6    1
   136   131   130    2
   137    52    54   ar
   138    52    50   ar
   139    10     3   am
   140   128   129    1
   141   128   123   am
   142    18    16   ar
   143   129   130    1
   144   106   112   am
   145   106   107    2
   146    62    61    2
   147   112   113    1
   148    54    53   ar
   149    40    39    2
   150    38    39    1
   151    38    41    1
   152    60    61    1
   153    60    59    1
   154     6     5    1
   155   114   113    1
   156   114   121   am
   157    39    45   am
   158    49    50    1
   159    49    46    1
   160   122   123    1
   161   122   121    1
   162   122   125    1
   163    50    51   ar
   164   127   125    1
   165     5     2    1
   166     3     4    2
   167     3     2    1
   168   123   124    2
   169   126   125    1
   170   113   116    1
   171    45    46    1
   172   116   117    1
   173    46    47    1
   174    53    51   ar
   175    41    42    1
   176    42    44    1
   177    42    43    1
   178     2     1    1
   179   120   118   ar
   180   118   119   ar
   181   118   117    1
   182    47    48    2
