@<TRIPOS>MOLECULE
tmp/4bftB00.pdb
 203 194 0 0 0
SMALL
GASTEIGER

@<TRIPOS>ATOM
      1  N        -64.4780  -15.8880   14.9250 N.3    93  VAL93      -0.1231
      2  CA       -65.7410  -15.9680   15.6650 C.3    93  VAL93       0.1692
      3  C        -66.7720  -16.4500   14.6680 C.2    93  VAL93       0.2591
      4  O        -66.7350  -16.0050   13.5170 O.2    93  VAL93      -0.2718
      5  CB       -66.1240  -14.5450   16.1360 C.3    93  VAL93       0.0266
      6  CG1      -67.5950  -14.4320   16.5350 C.3    93  VAL93       0.0020
      7  CG2      -65.1790  -14.0840   17.2450 C.3    93  VAL93       0.0020
      8  N        -67.6770  -17.3430   15.0810 N.am   94  ALA94      -0.1980
      9  CA       -68.7840  -17.8550   14.2090 C.3    94  ALA94       0.1597
     10  C        -68.4400  -19.0140   13.2510 C.2    94  ALA94       0.2287
     11  O        -69.3080  -19.4540   12.4800 O.2    94  ALA94      -0.2864
     12  CB       -69.4520  -16.7360   13.4210 C.3    94  ALA94       0.0319
     13  N        -61.0160  -17.9090   25.5570 N.3   123  ASP123     -0.1239
     14  CA       -62.0080  -16.9570   26.0810 C.3   123  ASP123      0.1674
     15  C        -61.6990  -16.5930   27.5200 C.2   123  ASP123      0.2266
     16  O        -61.6750  -15.4240   27.8640 O.2   123  ASP123     -0.2867
     17  CB       -63.4130  -17.5450   26.0140 C.3   123  ASP123      0.1410
     18  CG       -63.8440  -17.8350   24.5980 C.2   123  ASP123      0.3668
     19  OD1      -63.2880  -17.2070   23.6470 O.co2 123  ASP123     -0.2456
     20  OD2      -64.7640  -18.6800   24.4450 O.co2 123  ASP123     -0.2456
     21  N        -59.2270  -13.7160   28.3030 N.3   126  LEU126     -0.1245
     22  CA       -59.5530  -12.3140   28.0570 C.3   126  LEU126      0.1561
     23  C        -59.4220  -11.5250   29.3670 C.2   126  LEU126      0.2260
     24  O        -59.6730  -12.0660   30.4430 O.2   126  LEU126     -0.2867
     25  CB       -60.9850  -12.2040   27.5790 C.3   126  LEU126      0.0270
     26  CG       -61.3110  -12.7380   26.1990 C.3   126  LEU126      0.0019
     27  CD1      -62.7920  -13.0860   26.1980 C.3   126  LEU126      0.0001
     28  CD2      -60.9180  -11.7280   25.1020 C.3   126  LEU126      0.0001
     29  N        -62.1140   -2.0820   25.6200 N.3   138  MET138     -0.1245
     30  CA       -63.4810   -2.5450   25.3430 C.3   138  MET138      0.1570
     31  C        -63.8200   -2.6400   23.8570 C.2   138  MET138      0.2261
     32  O        -64.3540   -3.6400   23.4370 O.2   138  MET138     -0.2867
     33  CB       -64.5380   -1.7220   26.0950 C.3   138  MET138      0.0387
     34  CG       -64.6750   -2.1250   27.5480 C.3   138  MET138      0.0595
     35  SD       -65.0790   -3.8800   27.6370 S.3   138  MET138     -0.1393
     36  CE       -65.3400   -4.0650   29.3900 C.3   138  MET138      0.0692
     37  N        -62.1830   -6.1110   22.2550 N.3   141  LYS141     -0.1231
     38  CA       -62.3230   -7.4530   22.8180 C.3   141  LYS141      0.1693
     39  C        -62.2810   -8.4690   21.6600 C.2   141  LYS141      0.2592
     40  O        -62.9400   -8.2990   20.6300 O.2   141  LYS141     -0.2718
     41  CB       -63.6160   -7.5380   23.6240 C.3   141  LYS141      0.0285
     42  CG       -63.6400   -8.5890   24.7270 C.3   141  LYS141      0.0035
     43  CD       -64.9740   -8.5500   25.4550 C.3   141  LYS141      0.0206
     44  CE       -65.0120   -9.4670   26.6640 C.3   141  LYS141      0.1093
     45  NZ       -66.0240   -8.9540   27.6400 N.3   141  LYS141     -0.1314
     46  N        -61.4420   -9.4890   21.8000 N.am  142  GLY142     -0.1957
     47  CA       -61.1860  -10.4060   20.6800 C.3   142  GLY142      0.1869
     48  C        -59.8820  -10.0930   19.9980 C.2   142  GLY142      0.2309
     49  O        -59.2590  -10.9480   19.3890 O.2   142  GLY142     -0.2863
     50  N        -56.2700   -9.8490   25.7530 N.3   147  TYR147     -0.1241
     51  CA       -56.0550  -11.0930   26.4880 C.3   147  TYR147      0.1605
     52  C        -54.8860  -10.8780   27.3610 C.2   147  TYR147      0.2264
     53  O        -53.9760  -10.1480   27.0030 O.2   147  TYR147     -0.2867
     54  CB       -55.6300  -12.2190   25.5250 C.3   147  TYR147      0.0534
     55  CG       -56.7350  -12.6990   24.6280 C.ar  147  TYR147     -0.0201
     56  CD1      -56.9970  -12.0610   23.4180 C.ar  147  TYR147     -0.0009
     57  CD2      -57.5260  -13.7860   24.9920 C.ar  147  TYR147     -0.0009
     58  CE1      -58.0170  -12.5070   22.5990 C.ar  147  TYR147      0.0417
     59  CE2      -58.5580  -14.2330   24.1680 C.ar  147  TYR147      0.0417
     60  CZ       -58.7820  -13.5900   22.9710 C.ar  147  TYR147      0.1957
     61  OH       -59.8120  -13.9960   22.1600 O.3   147  TYR147     -0.2866
     62  N        -64.5780  -17.8350   31.2200 N.3   171  TYR171     -0.1241
     63  CA       -65.2470  -16.6900   30.6340 C.3   171  TYR171      0.1605
     64  C        -66.7180  -17.0150   30.5670 C.2   171  TYR171      0.2264
     65  O        -67.0670  -18.1820   30.4540 O.2   171  TYR171     -0.2867
     66  CB       -64.7290  -16.4540   29.2330 C.3   171  TYR171      0.0534
     67  CG       -65.3290  -15.2270   28.5720 C.ar  171  TYR171     -0.0201
     68  CD1      -65.0310  -13.9460   29.0530 C.ar  171  TYR171     -0.0009
     69  CD2      -66.1790  -15.3400   27.4730 C.ar  171  TYR171     -0.0009
     70  CE1      -65.5670  -12.8250   28.4650 C.ar  171  TYR171      0.0417
     71  CE2      -66.7170  -14.2110   26.8800 C.ar  171  TYR171      0.0417
     72  CZ       -66.4010  -12.9700   27.3890 C.ar  171  TYR171      0.1957
     73  OH       -66.9070  -11.8400   26.8260 O.3   171  TYR171     -0.2866
     74  N        -70.0670  -16.1550   28.3020 N.3   173  HIS173     -0.1241
     75  CA       -70.6640  -15.4850   27.1630 C.3   173  HIS173      0.1621
     76  C        -72.0250  -14.7670   27.4480 C.2   173  HIS173      0.2264
     77  O        -72.3340  -13.7400   26.8060 O.2   173  HIS173     -0.2867
     78  CB       -70.6890  -16.3960   25.9390 C.3   173  HIS173      0.0745
     79  CG       -69.4170  -16.3530   25.1520 C.ar  173  HIS173      0.0817
     80  ND1      -68.4620  -17.3510   25.2120 N.ar  173  HIS173     -0.2268
     81  CD2      -68.9260  -15.4100   24.3160 C.ar  173  HIS173      0.1154
     82  CE1      -67.4360  -17.0210   24.4540 C.ar  173  HIS173      0.1986
     83  NE2      -67.6960  -15.8520   23.8910 N.ar  173  HIS173     -0.2212
     84  N        -70.7920  -11.6540   29.3140 N.3   176  TYR176     -0.1241
     85  CA       -69.7680  -10.9540   28.5310 C.3   176  TYR176      0.1605
     86  C        -68.6070  -10.5640   29.4320 C.2   176  TYR176      0.2264
     87  O        -68.2140   -9.4070   29.4820 O.2   176  TYR176     -0.2867
     88  CB       -70.3830   -9.7010   27.9340 C.3   176  TYR176      0.0534
     89  CG       -69.5850   -9.0390   26.8390 C.ar  176  TYR176     -0.0201
     90  CD1      -69.2440   -9.7460   25.6770 C.ar  176  TYR176     -0.0009
     91  CD2      -69.2070   -7.6970   26.9350 C.ar  176  TYR176     -0.0009
     92  CE1      -68.5280   -9.1440   24.6550 C.ar  176  TYR176      0.0417
     93  CE2      -68.4960   -7.0900   25.9150 C.ar  176  TYR176      0.0417
     94  CZ       -68.1600   -7.8340   24.7840 C.ar  176  TYR176      0.1957
     95  OH       -67.4770   -7.2720   23.7600 O.3   176  TYR176     -0.2866
     96  N        -59.6150  -17.8100   19.0760 N.3   197  LEU197     -0.1245
     97  CA       -59.2170  -16.9460   17.9600 C.3   197  LEU197      0.1561
     98  C        -57.7050  -16.7460   17.8370 C.2   197  LEU197      0.2260
     99  O        -57.1920  -16.5100   16.7260 O.2   197  LEU197     -0.2867
    100  CB       -59.7520  -15.5100   18.1910 C.3   197  LEU197      0.0270
    101  CG       -61.1060  -15.2890   18.8630 C.3   197  LEU197      0.0019
    102  CD1      -61.3770  -13.8290   19.1920 C.3   197  LEU197      0.0001
    103  CD2      -62.1760  -15.8160   17.9200 C.3   197  LEU197      0.0001
    104  N        -72.5180  -15.5320   11.2790 N.3   229  TYR229     -0.1241
    105  CA       -72.3860  -14.6170   12.4010 C.3   229  TYR229      0.1605
    106  C        -73.7510  -14.0400   12.7460 C.2   229  TYR229      0.2264
    107  O        -74.2720  -14.2520   13.8460 O.2   229  TYR229     -0.2867
    108  CB       -71.3830  -13.4910   12.1350 C.3   229  TYR229      0.0534
    109  CG       -71.3530  -12.5100   13.3120 C.ar  229  TYR229     -0.0201
    110  CD1      -70.8970  -12.9160   14.5620 C.ar  229  TYR229     -0.0009
    111  CD2      -71.8340  -11.2110   13.1750 C.ar  229  TYR229     -0.0009
    112  CE1      -70.8920  -12.0480   15.6380 C.ar  229  TYR229      0.0417
    113  CE2      -71.8360  -10.3340   14.2400 C.ar  229  TYR229      0.0417
    114  CZ       -71.3720  -10.7600   15.4750 C.ar  229  TYR229      0.1957
    115  OH       -71.3680   -9.8900   16.5400 O.3   229  TYR229     -0.2866
    116  N        -76.3920  -16.5140   14.1560 N.3   232  ARG232     -0.1231
    117  CA       -76.1910  -16.8360   15.5690 C.3   232  ARG232      0.1694
    118  C        -76.6840  -15.6860   16.4470 C.2   232  ARG232      0.2592
    119  O        -77.1840  -15.9020   17.5580 O.2   232  ARG232     -0.2718
    120  CB       -74.7250  -17.1700   15.8820 C.3   232  ARG232      0.0321
    121  CG       -74.5110  -17.5970   17.3360 C.3   232  ARG232      0.0489
    122  CD       -73.0720  -17.9930   17.6540 C.3   232  ARG232      0.2205
    123  NE       -72.4670  -18.9050   16.6750 N.pl3 232  ARG232     -0.0865
    124  CZ       -71.2860  -19.4920   16.8520 C.cat 232  ARG232      0.5346
    125  NH1      -70.5890  -19.2680   17.9670 N.pl3 232  ARG232      0.1354
    126  NH2      -70.7880  -20.2930   15.9110 N.pl3 232  ARG232      0.1354
    127  N        -76.5470  -14.4710   15.9260 N.am  233  PHE233     -0.1976
    128  CA       -76.9280  -13.2810   16.6500 C.3   233  PHE233      0.1639
    129  C        -78.4660  -13.1900   16.7450 C.2   233  PHE233      0.2290
    130  O        -78.9990  -12.9050   17.8230 O.2   233  PHE233     -0.2864
    131  CB       -76.3140  -12.0440   15.9830 C.3   233  PHE233      0.0560
    132  CG       -76.6180  -10.7550   16.6880 C.ar  233  PHE233     -0.0200
    133  CD1      -77.7780  -10.0320   16.3940 C.ar  233  PHE233     -0.0042
    134  CD2      -75.7440  -10.2410   17.6210 C.ar  233  PHE233     -0.0042
    135  CE1      -78.0600   -8.8330   17.0380 C.ar  233  PHE233     -0.0003
    136  CE2      -76.0160   -9.0370   18.2640 C.ar  233  PHE233     -0.0003
    137  CZ       -77.1750   -8.3380   17.9800 C.ar  233  PHE233     -0.0000
    138  N        -79.7890  -15.7560   19.1590 N.3   236  MET236     -0.1245
    139  CA       -79.5180  -15.3830   20.5410 C.3   236  MET236      0.1570
    140  C        -80.6190  -14.5050   21.1190 C.2   236  MET236      0.2261
    141  O        -80.7710  -14.4140   22.3450 O.2   236  MET236     -0.2867
    142  CB       -78.1850  -14.6650   20.6390 C.3   236  MET236      0.0387
    143  CG       -77.0170  -15.6220   20.7030 C.3   236  MET236      0.0595
    144  SD       -75.4460  -14.7790   20.9270 S.3   236  MET236     -0.1393
    145  CE       -74.3830  -16.2090   20.7170 C.3   236  MET236      0.0692
    146  N        -79.8130  -13.5770   24.6600 N.3   241  PHE241     -0.1241
    147  CA       -80.2770  -12.1740   24.7990 C.3   241  PHE241      0.1605
    148  C        -81.5630  -12.0090   25.6330 C.2   241  PHE241      0.2264
    149  O        -81.6730  -11.0620   26.4340 O.2   241  PHE241     -0.2867
    150  CB       -80.4410  -11.4690   23.4440 C.3   241  PHE241      0.0534
    151  CG       -79.1600  -11.3580   22.6430 C.ar  241  PHE241     -0.0203
    152  CD1      -77.9090  -11.4330   23.2630 C.ar  241  PHE241     -0.0042
    153  CD2      -79.2100  -11.1520   21.2670 C.ar  241  PHE241     -0.0042
    154  CE1      -76.7490  -11.3350   22.5190 C.ar  241  PHE241     -0.0003
    155  CE2      -78.0520  -11.0450   20.5250 C.ar  241  PHE241     -0.0003
    156  CZ       -76.8200  -11.1360   21.1510 C.ar  241  PHE241     -0.0000
    157  N        -76.4450   -7.9880   26.7780 N.3   248  PHE248     -0.1241
    158  CA       -77.0960   -7.5870   25.5460 C.3   248  PHE248      0.1605
    159  C        -78.5650   -8.0060   25.5900 C.2   248  PHE248      0.2264
    160  O        -79.0710   -8.6540   24.6770 O.2   248  PHE248     -0.2867
    161  CB       -76.3360   -8.1970   24.3510 C.3   248  PHE248      0.0534
    162  CG       -74.8410   -8.0550   24.4600 C.ar  248  PHE248     -0.0203
    163  CD1      -74.2330   -6.8120   24.2850 C.ar  248  PHE248     -0.0042
    164  CD2      -74.0430   -9.1490   24.7970 C.ar  248  PHE248     -0.0042
    165  CE1      -72.8600   -6.6760   24.4270 C.ar  248  PHE248     -0.0003
    166  CE2      -72.6700   -9.0120   24.9270 C.ar  248  PHE248     -0.0003
    167  CZ       -72.0840   -7.7730   24.7390 C.ar  248  PHE248     -0.0000
    168  N        -80.9990   -6.1670   23.2270 N.3   251  TYR251     -0.1241
    169  CA       -80.9440   -6.6400   21.8530 C.3   251  TYR251      0.1605
    170  C        -82.0570   -7.6490   21.5620 C.2   251  TYR251      0.2264
    171  O        -82.3690   -7.8830   20.3910 O.2   251  TYR251     -0.2867
    172  CB       -79.5650   -7.2450   21.5140 C.3   251  TYR251      0.0534
    173  CG       -78.4790   -6.2440   21.1320 C.ar  251  TYR251     -0.0201
    174  CD1      -78.7670   -5.1030   20.3610 C.ar  251  TYR251     -0.0009
    175  CD2      -77.1560   -6.4450   21.5280 C.ar  251  TYR251     -0.0009
    176  CE1      -77.7620   -4.1940   20.0170 C.ar  251  TYR251      0.0417
    177  CE2      -76.1530   -5.5460   21.1880 C.ar  251  TYR251      0.0417
    178  CZ       -76.4580   -4.4280   20.4370 C.ar  251  TYR251      0.1957
    179  OH       -75.4540   -3.5560   20.1070 O.3   251  TYR251     -0.2866
    180  N        -71.7890   -4.9930   13.7310 N.3   266  ILE266     -0.1245
    181  CA       -70.8310   -5.4460   14.7220 C.3   266  ILE266      0.1561
    182  C        -69.7420   -6.2630   14.0110 C.2   266  ILE266      0.2260
    183  O        -68.5570   -6.0960   14.2620 O.2   266  ILE266     -0.2867
    184  CB       -71.4960   -6.2870   15.8190 C.3   266  ILE266      0.0252
    185  CG1      -72.4490   -5.4300   16.6450 C.3   266  ILE266      0.0019
    186  CG2      -70.4330   -6.9630   16.6810 C.3   266  ILE266      0.0019
    187  CD1      -73.4250   -6.2400   17.4570 C.3   266  ILE266      0.0001
    188  N        -66.1050   -4.5470   14.2100 N.3   270  ILE270     -0.1231
    189  CA       -65.2830   -5.3180   15.1140 C.3   270  ILE270      0.1692
    190  C        -64.7640   -6.6620   14.5390 C.2   270  ILE270      0.2592
    191  O        -63.5660   -6.8540   14.3670 O.2   270  ILE270     -0.2718
    192  CB       -65.9730   -5.5040   16.4910 C.3   270  ILE270      0.0266
    193  CG1      -66.2100   -4.1340   17.1180 C.3   270  ILE270      0.0019
    194  CG2      -65.1170   -6.3640   17.4050 C.3   270  ILE270      0.0020
    195  CD1      -66.5620   -4.1960   18.5840 C.3   270  ILE270      0.0001
    196  N        -65.6540   -7.6010   14.2570 N.am  271  ASN271     -0.1974
    197  CA       -65.2050   -8.9720   14.0700 C.3   271  ASN271      0.1688
    198  C        -64.5900   -9.2580   12.7270 C.2   271  ASN271      0.2292
    199  O        -63.7640  -10.1570   12.6220 O.2   271  ASN271     -0.2864
    200  CB       -66.3000   -9.9890   14.3780 C.3   271  ASN271      0.1181
    201  CG       -66.6600  -10.0120   15.8360 C.2   271  ASN271      0.2629
    202  OD1      -65.8010  -10.0670   16.7050 O.2   271  ASN271     -0.2716
    203  ND2      -67.9410   -9.9810   16.1140 N.am  271  ASN271     -0.0877
@<TRIPOS>BOND
     1   104   105    1
     2   108   105    1
     3   108   109    1
     4   105   106    1
     5    11    10    2
     6   199   198    2
     7   198   197    1
     8   106   107    2
     9   111   109   ar
    10   111   113   ar
    11    10     9    1
    12   109   110   ar
    13    12     9    1
    14     4     3    2
    15   180   181    1
    16   182   183    2
    17   182   181    1
    18   197   196    1
    19   197   200    1
    20   116   117    1
    21     9     8    1
    22   188   189    1
    23   113   114   ar
    24   196   190   am
    25   191   190    2
    26   200   201    1
    27   190   189    1
    28   110   112   ar
    29     3     8   am
    30     3     2    1
    31   181   184    1
    32     1     2    1
    33   189   192    1
    34   114   112   ar
    35   114   115    1
    36   117   120    1
    37   117   118    1
    38     2     5    1
    39   184   185    1
    40   184   186    1
    41   201   203   am
    42   201   202    2
    43   120   121    1
    44   126   124    1
    45   127   118   am
    46   127   128    1
    47   131   128    1
    48   131   132    1
    49     5     6    1
    50     5     7    1
    51   133   132   ar
    52   133   135   ar
    53   118   119    2
    54   192   193    1
    55   192   194    1
    56   185   187    1
    57   128   129    1
    58   123   124    2
    59   123   122    1
    60   132   134   ar
    61    99    98    2
    62   129   130    2
    63   124   125    1
    64   135   137   ar
    65   193   195    1
    66   121   122    1
    67   134   136   ar
    68    98    97    1
    69   103   101    1
    70    97   100    1
    71    97    96    1
    72   137   136   ar
    73   100   101    1
    74   101   102    1
    75   138   139    1
    76    49    48    2
    77    48    47    1
    78   176   174   ar
    79   176   178   ar
    80   179   178    1
    81   174   173   ar
    82   171   170    2
    83   178   177   ar
    84   155   156   ar
    85   155   153   ar
    86   139   142    1
    87   139   140    1
    88    40    39    2
    89   142   143    1
    90    47    46    1
    91   143   144    1
    92   145   144    1
    93   140   141    2
    94   173   172    1
    95   173   175   ar
    96   156   154   ar
    97   177   175   ar
    98   153   151   ar
    99   172   169    1
   100   170   169    1
   101    39    46   am
   102    39    38    1
   103   169   168    1
   104    61    60    1
   105    37    38    1
   106   154   152   ar
   107    58    60   ar
   108    58    56   ar
   109   151   152   ar
   110   151   150    1
   111    38    41    1
   112    60    59   ar
   113    56    55   ar
   114    32    31    2
   115   150   147    1
   116    41    42    1
   117    19    18   ar
   118    95    94    1
   119    31    30    1
   120    83    81   ar
   121    83    82   ar
   122    59    57   ar
   123   163   165   ar
   124   163   162   ar
   125    81    79   ar
   126   161   162    1
   127   161   158    1
   128   165   167   ar
   129    20    18   ar
   130    82    80   ar
   131   162   164   ar
   132    18    17    1
   133    55    57   ar
   134    55    54    1
   135    92    94   ar
   136    92    90   ar
   137   146   147    1
   138   160   159    2
   139    42    43    1
   140   167   166   ar
   141    94    93   ar
   142   164   166   ar
   143   147   148    1
   144    28    26    1
   145    79    80   ar
   146    79    78    1
   147    30    29    1
   148    30    33    1
   149    43    44    1
   150    54    51    1
   151   158   159    1
   152   158   157    1
   153    13    14    1
   154   148   149    2
   155    90    89   ar
   156    50    51    1
   157    93    91   ar
   158    78    75    1
   159    17    14    1
   160    14    15    1
   161    33    34    1
   162    27    26    1
   163    26    25    1
   164    51    52    1
   165    44    45    1
   166    77    76    2
   167    73    72    1
   168    89    91   ar
   169    89    88    1
   170    71    72   ar
   171    71    69   ar
   172    53    52    2
   173    75    76    1
   174    75    74    1
   175    72    70   ar
   176    69    67   ar
   177    15    16    2
   178    34    35    1
   179    25    22    1
   180    35    36    1
   181    88    85    1
   182    22    21    1
   183    22    23    1
   184    70    68   ar
   185    85    84    1
   186    85    86    1
   187    67    68   ar
   188    67    66    1
   189    66    63    1
   190    23    24    2
   191    86    87    2
   192    65    64    2
   193    64    63    1
   194    63    62    1
