@<TRIPOS>MOLECULE
tmp/4bfuA00.pdb
 200 190 0 0 0
SMALL
GASTEIGER

@<TRIPOS>ATOM
      1  N        -23.0400  -14.3470   17.6050 N.3    93  VAL93      -0.1231
      2  CA       -21.8330  -14.4300   16.7640 C.3    93  VAL93       0.1692
      3  C        -20.7210  -14.8990   17.7050 C.2    93  VAL93       0.2591
      4  O        -20.6970  -14.4630   18.8470 O.2    93  VAL93      -0.2718
      5  CB       -21.4020  -13.0730   16.1370 C.3    93  VAL93       0.0266
      6  CG1      -19.9820  -13.1760   15.6020 C.3    93  VAL93       0.0020
      7  CG2      -22.3020  -12.6760   14.9740 C.3    93  VAL93       0.0020
      8  N        -19.8560  -15.8190   17.2490 N.am   94  ALA94      -0.1980
      9  CA       -18.6640  -16.2780   18.0280 C.3    94  ALA94       0.1597
     10  C        -18.9630  -17.2310   19.1790 C.2    94  ALA94       0.2287
     11  O        -18.1570  -17.3810   20.1040 O.2    94  ALA94      -0.2864
     12  CB       -17.8210  -15.0940   18.5360 C.3    94  ALA94       0.0319
     13  N        -21.5550  -21.8210   16.9720 N.3    97  LYS97      -0.1245
     14  CA       -22.6530  -22.4000   16.1980 C.3    97  LYS97       0.1561
     15  C        -22.0980  -23.2710   15.1010 C.2    97  LYS97       0.2260
     16  O        -22.4750  -24.4440   14.9390 O.2    97  LYS97      -0.2867
     17  CB       -23.4600  -21.2870   15.4870 C.3    97  LYS97       0.0271
     18  CG       -24.4800  -20.5420   16.3240 C.3    97  LYS97       0.0035
     19  CD       -25.3360  -19.6360   15.4300 C.3    97  LYS97       0.0206
     20  CE       -24.4850  -18.6860   14.5880 C.3    97  LYS97       0.1093
     21  NZ       -23.7240  -17.6580   15.3640 N.3    97  LYS97      -0.1314
     22  N        -26.1840  -16.6410    7.0560 N.3   123  ASP123     -0.1239
     23  CA       -25.2590  -15.5790    6.6190 C.3   123  ASP123      0.1674
     24  C        -25.4230  -15.2630    5.1190 C.2   123  ASP123      0.2266
     25  O        -25.3030  -14.1210    4.7010 O.2   123  ASP123     -0.2867
     26  CB       -23.8140  -16.0300    6.7880 C.3   123  ASP123      0.1410
     27  CG       -23.4240  -16.2670    8.2170 C.2   123  ASP123      0.3668
     28  OD1      -24.2500  -16.0550    9.1270 O.co2 123  ASP123     -0.2456
     29  OD2      -22.2650  -16.6780    8.4150 O.co2 123  ASP123     -0.2456
     30  N        -28.1140  -12.5200    4.2180 N.3   126  LEU126     -0.1245
     31  CA       -27.8170  -11.0970    4.4040 C.3   126  LEU126      0.1561
     32  C        -27.8440  -10.3980    3.0400 C.2   126  LEU126      0.2260
     33  O        -27.4310  -10.9770    2.0200 O.2   126  LEU126     -0.2867
     34  CB       -26.4230  -10.9070    4.9810 C.3   126  LEU126      0.0270
     35  CG       -26.1290  -11.2570    6.4290 C.3   126  LEU126      0.0019
     36  CD1      -24.6120  -11.3480    6.6140 C.3   126  LEU126      0.0001
     37  CD2      -26.7330  -10.1990    7.3170 C.3   126  LEU126      0.0001
     38  N        -25.9230   -0.6170    6.9820 N.3   138  MET138     -0.1245
     39  CA       -24.5890   -1.1550    7.2630 C.3   138  MET138      0.1570
     40  C        -24.3080   -1.3320    8.7610 C.2   138  MET138      0.2261
     41  O        -23.7760   -2.3470    9.1840 O.2   138  MET138     -0.2867
     42  CB       -23.4960   -0.2860    6.6450 C.3   138  MET138      0.0387
     43  CG       -22.8300   -0.8820    5.4220 C.3   138  MET138      0.0595
     44  SD       -22.1570   -2.5430    5.6950 S.3   138  MET138     -0.1393
     45  CE       -22.5390   -3.1320    4.0720 C.3   138  MET138      0.0692
     46  N        -25.8800   -4.5380   10.1120 N.3   141  LYS141     -0.1231
     47  CA       -25.5490   -5.8550    9.5600 C.3   141  LYS141      0.1693
     48  C        -25.6300   -6.9310   10.6460 C.2   141  LYS141      0.2592
     49  O        -24.9720   -6.8470   11.7070 O.2   141  LYS141     -0.2718
     50  CB       -24.1840   -5.8470    8.9000 C.3   141  LYS141      0.0285
     51  CG       -23.6960   -7.2390    8.5210 C.3   141  LYS141      0.0035
     52  CD       -22.2650   -7.2040    7.9590 C.3   141  LYS141      0.0206
     53  CE       -22.2410   -6.8620    6.4830 C.3   141  LYS141      0.1093
     54  NZ       -20.9710   -7.3600    5.8990 N.3   141  LYS141     -0.1314
     55  N        -26.4750   -7.9190   10.3670 N.am  142  GLY142     -0.1957
     56  CA       -26.7220   -9.0350   11.2450 C.3   142  GLY142      0.1869
     57  C        -27.9110   -8.8380   12.1600 C.2   142  GLY142      0.2309
     58  O        -28.2480   -9.7480   12.9190 O.2   142  GLY142     -0.2863
     59  N        -31.2590   -9.1130    6.6470 N.3   147  TYR147     -0.1241
     60  CA       -31.4150  -10.3050    5.8360 C.3   147  TYR147      0.1605
     61  C        -32.5480  -10.1200    4.8390 C.2   147  TYR147      0.2264
     62  O        -33.5500   -9.4940    5.1380 O.2   147  TYR147     -0.2867
     63  CB       -31.7330  -11.4970    6.7290 C.3   147  TYR147      0.0534
     64  CG       -30.6370  -11.8970    7.7100 C.ar  147  TYR147     -0.0201
     65  CD1      -30.4410  -11.2080    8.9100 C.ar  147  TYR147     -0.0009
     66  CD2      -29.7930  -12.9820    7.4300 C.ar  147  TYR147     -0.0009
     67  CE1      -29.4340  -11.5740    9.7960 C.ar  147  TYR147      0.0417
     68  CE2      -28.7920  -13.3670    8.3190 C.ar  147  TYR147      0.0417
     69  CZ       -28.6170  -12.6660    9.5010 C.ar  147  TYR147      0.1957
     70  OH       -27.6280  -13.0770   10.3830 O.3   147  TYR147     -0.2866
     71  N        -21.9510  -16.2630    1.7120 N.3   171  TYR171     -0.1241
     72  CA       -21.3340  -15.1230    2.3960 C.3   171  TYR171      0.1605
     73  C        -19.8810  -15.4190    2.7600 C.2   171  TYR171      0.2264
     74  O        -19.6110  -16.4040    3.4640 O.2   171  TYR171     -0.2867
     75  CB       -22.0730  -14.8010    3.7080 C.3   171  TYR171      0.0534
     76  CG       -21.5830  -13.5530    4.4490 C.ar  171  TYR171     -0.0201
     77  CD1      -21.9090  -12.2920    3.9840 C.ar  171  TYR171     -0.0009
     78  CD2      -20.8300  -13.6440    5.6440 C.ar  171  TYR171     -0.0009
     79  CE1      -21.5080  -11.1440    4.6580 C.ar  171  TYR171      0.0417
     80  CE2      -20.4170  -12.4900    6.3430 C.ar  171  TYR171      0.0417
     81  CZ       -20.7580  -11.2440    5.8250 C.ar  171  TYR171      0.1957
     82  OH       -20.3950  -10.0680    6.4290 O.3   171  TYR171     -0.2866
     83  N        -16.6230  -15.1370    4.8730 N.3   173  HIS173     -0.1241
     84  CA       -15.9910  -14.6460    6.0960 C.3   173  HIS173      0.1621
     85  C        -14.5810  -14.0650    5.8640 C.2   173  HIS173      0.2264
     86  O        -13.8860  -13.7640    6.8240 O.2   173  HIS173     -0.2867
     87  CB       -15.9930  -15.7160    7.1850 C.3   173  HIS173      0.0745
     88  CG       -17.3620  -16.0400    7.7040 C.ar  173  HIS173      0.0817
     89  ND1      -17.7050  -15.9130    9.0340 N.ar  173  HIS173     -0.2268
     90  CD2      -18.4730  -16.4870    7.0700 C.ar  173  HIS173      0.1154
     91  CE1      -18.9650  -16.2720    9.1980 C.ar  173  HIS173      0.1986
     92  NE2      -19.4530  -16.6260    8.0220 N.ar  173  HIS173     -0.2212
     93  N        -16.0880  -10.4020    4.0360 N.3   176  TYR176     -0.1241
     94  CA       -17.2730   -9.9900    4.7840 C.3   176  TYR176      0.1605
     95  C        -18.3990   -9.4420    3.9230 C.2   176  TYR176      0.2264
     96  O        -18.9220   -8.3580    4.1820 O.2   176  TYR176     -0.2867
     97  CB       -16.9000   -9.0570    5.9460 C.3   176  TYR176      0.0534
     98  CG       -16.3000   -9.8700    7.0500 C.ar  176  TYR176     -0.0201
     99  CD1      -17.0850  -10.7580    7.7820 C.ar  176  TYR176     -0.0009
    100  CD2      -14.9360   -9.8360    7.3010 C.ar  176  TYR176     -0.0009
    101  CE1      -16.5300  -11.5460    8.7640 C.ar  176  TYR176      0.0417
    102  CE2      -14.3740  -10.6240    8.2750 C.ar  176  TYR176      0.0417
    103  CZ       -15.1730  -11.4750    9.0040 C.ar  176  TYR176      0.1957
    104  OH       -14.6120  -12.2670    9.9700 O.3   176  TYR176     -0.2866
    105  N        -27.7470  -16.5660   13.0600 N.3   197  LEU197     -0.1245
    106  CA       -28.1260  -15.7420   14.2300 C.3   197  LEU197      0.1561
    107  C        -29.6450  -15.6310   14.4110 C.2   197  LEU197      0.2260
    108  O        -30.1310  -15.5150   15.5300 O.2   197  LEU197     -0.2867
    109  CB       -27.6020  -14.2950   14.0720 C.3   197  LEU197      0.0270
    110  CG       -26.1180  -13.9590   13.8500 C.3   197  LEU197      0.0019
    111  CD1      -25.8640  -12.4710   13.6070 C.3   197  LEU197      0.0001
    112  CD2      -25.3130  -14.4260   15.0430 C.3   197  LEU197      0.0001
    113  N        -15.1080  -13.5380   21.0830 N.3   229  TYR229     -0.1241
    114  CA       -15.2680  -12.6560   19.9310 C.3   229  TYR229      0.1605
    115  C        -13.9800  -11.8540   19.6860 C.2   229  TYR229      0.2264
    116  O        -13.5090  -11.7750   18.5500 O.2   229  TYR229     -0.2867
    117  CB       -16.4590  -11.6970   20.1230 C.3   229  TYR229      0.0534
    118  CG       -16.6100  -10.6610   19.0190 C.ar  229  TYR229     -0.0201
    119  CD1      -17.2370  -10.9880   17.8200 C.ar  229  TYR229     -0.0009
    120  CD2      -16.1220   -9.3670   19.1740 C.ar  229  TYR229     -0.0009
    121  CE1      -17.3850  -10.0620   16.8110 C.ar  229  TYR229      0.0417
    122  CE2      -16.2460   -8.4360   18.1610 C.ar  229  TYR229      0.0417
    123  CZ       -16.8880   -8.7840   16.9970 C.ar  229  TYR229      0.1957
    124  OH       -17.0320   -7.8600   16.0040 O.3   229  TYR229     -0.2866
    125  N        -11.0810  -14.0420   18.3920 N.3   232  ARG232     -0.1231
    126  CA       -11.2970  -14.3450   16.9960 C.3   232  ARG232      0.1694
    127  C        -10.8750  -13.1450   16.1500 C.2   232  ARG232      0.2592
    128  O        -10.3220  -13.3190   15.0650 O.2   232  ARG232     -0.2718
    129  CB       -12.7560  -14.7100   16.7450 C.3   232  ARG232      0.0321
    130  CG       -12.9430  -15.5210   15.4950 C.3   232  ARG232      0.0489
    131  CD       -14.3960  -15.9000   15.2520 C.3   232  ARG232      0.2205
    132  NE       -14.8120  -17.0580   16.0440 N.pl3 232  ARG232     -0.0865
    133  CZ       -15.9950  -17.6680   15.9200 C.cat 232  ARG232      0.5346
    134  NH1      -16.8920  -17.2350   15.0260 N.pl3 232  ARG232      0.1354
    135  NH2      -16.2720  -18.7170   16.6930 N.pl3 232  ARG232      0.1354
    136  N        -11.1330  -11.9310   16.6460 N.am  233  PHE233     -0.1976
    137  CA       -10.7760  -10.7300   15.8970 C.3   233  PHE233      0.1639
    138  C         -9.2420  -10.6340   15.8090 C.2   233  PHE233      0.2290
    139  O         -8.6720  -10.4430   14.7200 O.2   233  PHE233     -0.2864
    140  CB       -11.3610   -9.4810   16.5590 C.3   233  PHE233      0.0560
    141  CG       -11.1800   -8.2180   15.7530 C.ar  233  PHE233     -0.0200
    142  CD1      -12.1380   -7.8180   14.8150 C.ar  233  PHE233     -0.0042
    143  CD2      -10.0600   -7.4030   15.9390 C.ar  233  PHE233     -0.0042
    144  CE1      -11.9790   -6.6320   14.0840 C.ar  233  PHE233     -0.0003
    145  CE2       -9.8940   -6.2320   15.2040 C.ar  233  PHE233     -0.0003
    146  CZ       -10.8510   -5.8410   14.2750 C.ar  233  PHE233     -0.0000
    147  N         -7.6190  -12.8600   13.4550 N.3   236  MET236     -0.1245
    148  CA        -7.9360  -12.4980   12.0840 C.3   236  MET236      0.1570
    149  C         -6.8570  -11.5980   11.4830 C.2   236  MET236      0.2261
    150  O         -6.7630  -11.4770   10.2580 O.2   236  MET236     -0.2867
    151  CB        -9.3010  -11.8130   12.0030 C.3   236  MET236      0.0387
    152  CG       -10.4250  -12.6230   12.6370 C.3   236  MET236      0.0595
    153  SD       -12.0160  -12.5440   11.7910 S.3   236  MET236     -0.1393
    154  CE       -11.6950  -13.7070   10.4610 C.3   236  MET236      0.0692
    155  N         -7.5760  -10.3900    7.7070 N.3   241  PHE241     -0.1241
    156  CA        -7.0920   -9.0260    7.7230 C.3   241  PHE241      0.1605
    157  C         -5.7620   -8.8370    6.9440 C.2   241  PHE241      0.2264
    158  O         -5.4550   -7.7160    6.5020 O.2   241  PHE241     -0.2867
    159  CB        -6.9680   -8.5010    9.1570 C.3   241  PHE241      0.0534
    160  CG        -8.2640   -8.4640    9.9300 C.ar  241  PHE241     -0.0203
    161  CD1       -9.4910   -8.7220    9.3190 C.ar  241  PHE241     -0.0042
    162  CD2       -8.2530   -8.1390   11.2860 C.ar  241  PHE241     -0.0042
    163  CE1      -10.6710   -8.6740   10.0500 C.ar  241  PHE241     -0.0003
    164  CE2       -9.4280   -8.0870   12.0200 C.ar  241  PHE241     -0.0003
    165  CZ       -10.6420   -8.3630   11.4010 C.ar  241  PHE241     -0.0000
    166  N        -10.5470   -4.3220    6.0450 N.3   248  PHE248     -0.1241
    167  CA       -10.0560   -4.3900    7.4210 C.3   248  PHE248      0.1605
    168  C         -8.5200   -4.4870    7.4720 C.2   248  PHE248      0.2264
    169  O         -7.9320   -4.7540    8.5260 O.2   248  PHE248     -0.2867
    170  CB       -10.7120   -5.5790    8.1500 C.3   248  PHE248      0.0534
    171  CG       -12.2110   -5.4580    8.2950 C.ar  248  PHE248     -0.0203
    172  CD1      -13.0620   -5.8450    7.2620 C.ar  248  PHE248     -0.0042
    173  CD2      -12.7730   -4.9510    9.4650 C.ar  248  PHE248     -0.0042
    174  CE1      -14.4400   -5.7240    7.3920 C.ar  248  PHE248     -0.0003
    175  CE2      -14.1490   -4.8340    9.6070 C.ar  248  PHE248     -0.0003
    176  CZ       -14.9830   -5.2200    8.5670 C.ar  248  PHE248     -0.0000
    177  N        -16.8130   -2.9370   18.1570 N.3   266  ILE266     -0.1245
    178  CA       -17.7880   -3.5580   17.2690 C.3   266  ILE266      0.1561
    179  C        -18.7020   -4.4450   18.1170 C.2   266  ILE266      0.2260
    180  O        -19.8680   -4.5860   17.8260 O.2   266  ILE266     -0.2867
    181  CB       -17.1450   -4.4030   16.1470 C.3   266  ILE266      0.0252
    182  CG1      -16.1000   -3.5940   15.3740 C.3   266  ILE266      0.0019
    183  CG2      -18.2070   -4.8980   15.1840 C.3   266  ILE266      0.0019
    184  CD1      -15.3990   -4.3900   14.2790 C.3   266  ILE266      0.0001
    185  N        -22.5700   -3.2230   17.9000 N.3   270  ILE270     -0.1231
    186  CA       -23.3240   -4.0620   16.9950 C.3   270  ILE270      0.1692
    187  C        -23.6380   -5.4000   17.6240 C.2   270  ILE270      0.2592
    188  O        -24.8140   -5.7010   17.8240 O.2   270  ILE270     -0.2718
    189  CB       -22.6240   -4.2760   15.6460 C.3   270  ILE270      0.0266
    190  CG1      -22.3220   -2.9380   14.9590 C.3   270  ILE270      0.0019
    191  CG2      -23.4920   -5.1370   14.7390 C.3   270  ILE270      0.0020
    192  CD1      -21.8100   -3.1140   13.5400 C.3   270  ILE270      0.0001
    193  N        -22.6210   -6.2070   17.9550 N.am  271  ASN271     -0.1974
    194  CA       -22.9370   -7.6000   18.2250 C.3   271  ASN271      0.1688
    195  C        -23.5440   -7.8870   19.5740 C.2   271  ASN271      0.2292
    196  O        -24.3740   -8.7790   19.7060 O.2   271  ASN271     -0.2864
    197  CB       -21.7790   -8.5400   17.8790 C.3   271  ASN271      0.1181
    198  CG       -21.5220   -8.5690   16.3920 C.2   271  ASN271      0.2629
    199  OD1      -22.4280   -8.8280   15.5890 O.2   271  ASN271     -0.2716
    200  ND2      -20.3200   -8.2200   16.0070 N.am  271  ASN271     -0.0877
@<TRIPOS>BOND
     1    71    72    1
     2    33    32    2
     3    72    73    1
     4    72    75    1
     5    73    74    2
     6    32    31    1
     7    75    76    1
     8    95    96    2
     9    95    94    1
    10    77    76   ar
    11    77    79   ar
    12    93    94    1
    13    45    44    1
    14    30    31    1
    15    31    34    1
    16    76    78   ar
    17    79    81   ar
    18    25    24    2
    19    94    97    1
    20    61    62    2
    21    61    60    1
    22    83    84    1
    23    34    35    1
    24    24    23    1
    25    43    44    1
    26    43    42    1
    27    78    80   ar
    28    81    80   ar
    29    81    82    1
    30    60    59    1
    31    60    63    1
    32    85    84    1
    33    85    86    2
    34    54    53    1
    35    97    98    1
    36   166   167    1
    37    84    87    1
    38    35    36    1
    39    35    37    1
    40    53    52    1
    41   158   157    2
    42    23    26    1
    43    23    22    1
    44    42    39    1
    45    63    64    1
    46    26    27    1
    47   157   156    1
    48    38    39    1
    49    98   100   ar
    50    98    99   ar
    51    90    88   ar
    52    90    92   ar
    53    87    88    1
    54   172   174   ar
    55   172   171   ar
    56    39    40    1
    57   100   102   ar
    58   174   176   ar
    59   167   168    1
    60   167   170    1
    61    66    64   ar
    62    66    68   ar
    63   168   169    2
    64    88    89   ar
    65   155   156    1
    66    64    65   ar
    67   156   159    1
    68    99   101   ar
    69    52    51    1
    70    92    91   ar
    71   170   171    1
    72    27    29   ar
    73    27    28   ar
    74   102   103   ar
    75   171   173   ar
    76    68    69   ar
    77    51    50    1
    78   176   175   ar
    79    40    41    2
    80   101   103   ar
    81    50    47    1
    82    65    67   ar
    83   103   104    1
    84    89    91   ar
    85   159   160    1
    86   161   160   ar
    87   161   163   ar
    88   173   175   ar
    89    69    67   ar
    90    69    70    1
    91    47    46    1
    92    47    48    1
    93   160   162   ar
    94   163   165   ar
    95   150   149    2
    96    55    48   am
    97    55    56    1
    98   154   153    1
    99    48    49    2
   100    56    57    1
   101   162   164   ar
   102   165   164   ar
   103   149   148    1
   104   153   152    1
   105   151   148    1
   106   151   152    1
   107   148   147    1
   108    57    58    2
   109   105   106    1
   110   192   190    1
   111   111   110    1
   112   110   109    1
   113   110   112    1
   114   109   106    1
   115   144   146   ar
   116   144   142   ar
   117   106   107    1
   118   146   145   ar
   119   184   182    1
   120   107   108    2
   121    20    21    1
   122    20    19    1
   123   139   138    2
   124   191   189    1
   125   142   141   ar
   126    16    15    2
   127   190   189    1
   128     7     5    1
   129   134   133    1
   130   128   127    2
   131    15    14    1
   132   183   181    1
   133   145   143   ar
   134   131   130    1
   135   131   132    1
   136   182   181    1
   137    19    18    1
   138    17    14    1
   139    17    18    1
   140   130   129    1
   141   199   198    2
   142     6     5    1
   143   189   186    1
   144   141   143   ar
   145   141   140    1
   146   138   137    1
   147   137   140    1
   148   137   136    1
   149   133   132    2
   150   133   135    1
   151   124   123    1
   152   200   198   am
   153     5     2    1
   154   181   178    1
   155   127   136   am
   156   127   126    1
   157    14    13    1
   158   198   197    1
   159   129   126    1
   160     2     1    1
   161     2     3    1
   162   121   123   ar
   163   121   119   ar
   164   186   187    1
   165   186   185    1
   166   126   125    1
   167   123   122   ar
   168     8     3   am
   169     8     9    1
   170   178   179    1
   171   178   177    1
   172   187   188    2
   173   187   193   am
   174     3     4    2
   175   119   118   ar
   176   180   179    2
   177   197   194    1
   178   193   194    1
   179     9    12    1
   180     9    10    1
   181   122   120   ar
   182   194   195    1
   183   116   115    2
   184   118   120   ar
   185   118   117    1
   186    10    11    2
   187   195   196    2
   188   115   114    1
   189   114   117    1
   190   114   113    1
