@<TRIPOS>MOLECULE
tmp/4bfvB00.pdb
 204 195 0 0 0
SMALL
GASTEIGER

@<TRIPOS>ATOM
      1  N        -64.3340  -15.7640   14.6740 N.3    93  VAL93      -0.1231
      2  CA       -65.5790  -15.9290   15.4580 C.3    93  VAL93       0.1692
      3  C        -66.6360  -16.4700   14.4540 C.2    93  VAL93       0.2591
      4  O        -66.6500  -16.0430   13.2990 O.2    93  VAL93      -0.2718
      5  CB       -66.0120  -14.5950   16.1370 C.3    93  VAL93       0.0266
      6  CG1      -67.4240  -14.6610   16.7160 C.3    93  VAL93       0.0020
      7  CG2      -65.0480  -14.2120   17.2580 C.3    93  VAL93       0.0020
      8  N        -67.4630  -17.4340   14.8770 N.am   94  ALA94      -0.1980
      9  CA       -68.5970  -17.9390   14.0750 C.3    94  ALA94       0.1597
     10  C        -68.2410  -18.9030   12.9240 C.2    94  ALA94       0.2287
     11  O        -69.1180  -19.2850   12.1560 O.2    94  ALA94      -0.2864
     12  CB       -69.4420  -16.7940   13.5430 C.3    94  ALA94       0.0319
     13  N        -65.1270  -23.1270   15.2600 N.3    97  LYS97      -0.1245
     14  CA       -64.0010  -23.6730   16.0290 C.3    97  LYS97       0.1561
     15  C        -64.5180  -24.5160   17.1650 C.2    97  LYS97       0.2260
     16  O        -64.0170  -25.5960   17.4340 O.2    97  LYS97      -0.2867
     17  CB       -63.1750  -22.5680   16.6740 C.3    97  LYS97       0.0271
     18  CG       -62.4690  -21.6060   15.7470 C.3    97  LYS97       0.0035
     19  CD       -61.7070  -20.5870   16.5880 C.3    97  LYS97       0.0206
     20  CE       -62.6010  -19.8660   17.5920 C.3    97  LYS97       0.1093
     21  NZ       -63.6060  -19.0130   16.9140 N.3    97  LYS97      -0.1314
     22  N        -60.9630  -17.9050   25.6240 N.3   123  ASP123     -0.1239
     23  CA       -61.9280  -16.9220   26.0760 C.3   123  ASP123      0.1674
     24  C        -61.7110  -16.6220   27.5500 C.2   123  ASP123      0.2266
     25  O        -61.7150  -15.4620   27.9540 O.2   123  ASP123     -0.2867
     26  CB       -63.3380  -17.4620   25.8880 C.3   123  ASP123      0.1410
     27  CG       -63.7240  -17.5950   24.4220 C.2   123  ASP123      0.3668
     28  OD1      -62.8910  -17.2780   23.5440 O.co2 123  ASP123     -0.2456
     29  OD2      -64.8680  -18.0260   24.1490 O.co2 123  ASP123     -0.2456
     30  N        -59.2890  -13.8010   28.4510 N.3   126  LEU126     -0.1245
     31  CA       -59.5790  -12.3740   28.2460 C.3   126  LEU126      0.1561
     32  C        -59.5120  -11.6440   29.5750 C.2   126  LEU126      0.2260
     33  O        -59.9150  -12.1820   30.6050 O.2   126  LEU126     -0.2867
     34  CB       -60.9550  -12.1800   27.6390 C.3   126  LEU126      0.0270
     35  CG       -61.1360  -12.6620   26.2000 C.3   126  LEU126      0.0019
     36  CD1      -62.6020  -12.9920   26.0010 C.3   126  LEU126      0.0001
     37  CD2      -60.6530  -11.6350   25.1870 C.3   126  LEU126      0.0001
     38  N        -61.9730   -5.8850   22.5290 N.3   141  LYS141     -0.1231
     39  CA       -62.2050   -7.2300   23.0300 C.3   141  LYS141      0.1693
     40  C        -62.1950   -8.2660   21.9080 C.2   141  LYS141      0.2592
     41  O        -62.8610   -8.1110   20.8880 O.2   141  LYS141     -0.2718
     42  CB       -63.5150   -7.2710   23.8080 C.3   141  LYS141      0.0285
     43  CG       -63.5660   -8.3380   24.8880 C.3   141  LYS141      0.0035
     44  CD       -64.9020   -8.1890   25.5950 C.3   141  LYS141      0.0206
     45  CE       -65.2620   -9.3800   26.4440 C.3   141  LYS141      0.1093
     46  NZ       -65.8680   -8.8180   27.6870 N.3   141  LYS141     -0.1314
     47  N        -61.4020   -9.3140   22.0890 N.am  142  GLY142     -0.1957
     48  CA       -61.1810  -10.2990   21.0280 C.3   142  GLY142      0.1869
     49  C        -59.9140  -10.0360   20.2390 C.2   142  GLY142      0.2309
     50  O        -59.4320  -10.9170   19.5170 O.2   142  GLY142     -0.2863
     51  N        -56.3390  -10.0940   25.6670 N.3   147  TYR147     -0.1241
     52  CA       -56.0860  -11.2860   26.4870 C.3   147  TYR147      0.1605
     53  C        -54.9170  -11.1040   27.4310 C.2   147  TYR147      0.2264
     54  O        -53.9640  -10.4200   27.1030 O.2   147  TYR147     -0.2867
     55  CB       -55.7040  -12.4570   25.5860 C.3   147  TYR147      0.0534
     56  CG       -56.8120  -12.8850   24.6670 C.ar  147  TYR147     -0.0201
     57  CD1      -56.9980  -12.2660   23.4310 C.ar  147  TYR147     -0.0009
     58  CD2      -57.6670  -13.9230   25.0320 C.ar  147  TYR147     -0.0009
     59  CE1      -58.0190  -12.6560   22.5960 C.ar  147  TYR147      0.0417
     60  CE2      -58.6840  -14.3430   24.1890 C.ar  147  TYR147      0.0417
     61  CZ       -58.8460  -13.7080   22.9660 C.ar  147  TYR147      0.1957
     62  OH       -59.8500  -14.1130   22.1450 O.3   147  TYR147     -0.2866
     63  N        -64.7460  -17.9320   31.1440 N.3   171  TYR171     -0.1241
     64  CA       -65.4510  -16.8050   30.5700 C.3   171  TYR171      0.1605
     65  C        -66.9230  -17.1420   30.3620 C.2   171  TYR171      0.2264
     66  O        -67.2580  -18.2630   30.0040 O.2   171  TYR171     -0.2867
     67  CB       -64.8200  -16.4400   29.2300 C.3   171  TYR171      0.0534
     68  CG       -65.4370  -15.2520   28.5370 C.ar  171  TYR171     -0.0201
     69  CD1      -65.1210  -13.9530   28.9310 C.ar  171  TYR171     -0.0009
     70  CD2      -66.3170  -15.4140   27.4670 C.ar  171  TYR171     -0.0009
     71  CE1      -65.6640  -12.8500   28.2710 C.ar  171  TYR171      0.0417
     72  CE2      -66.8640  -14.3150   26.8180 C.ar  171  TYR171      0.0417
     73  CZ       -66.5180  -13.0430   27.2300 C.ar  171  TYR171      0.1957
     74  OH       -67.0410  -11.9470   26.6200 O.3   171  TYR171     -0.2866
     75  N        -70.1580  -16.1810   28.1360 N.3   173  HIS173     -0.1241
     76  CA       -70.7540  -15.4390   27.0370 C.3   173  HIS173      0.1621
     77  C        -72.0810  -14.7380   27.4190 C.2   173  HIS173      0.2264
     78  O        -72.3630  -13.6250   26.9420 O.2   173  HIS173     -0.2867
     79  CB       -70.8620  -16.2940   25.7760 C.3   173  HIS173      0.0745
     80  CG       -69.5460  -16.4630   25.0710 C.ar  173  HIS173      0.0817
     81  ND1      -68.7270  -17.5560   25.2680 N.ar  173  HIS173     -0.2268
     82  CD2      -68.8830  -15.6520   24.2130 C.ar  173  HIS173      0.1154
     83  CE1      -67.6320  -17.4260   24.5410 C.ar  173  HIS173      0.1986
     84  NE2      -67.7040  -16.2820   23.8850 N.ar  173  HIS173     -0.2212
     85  N        -70.9800  -11.6830   29.2990 N.3   176  TYR176     -0.1241
     86  CA       -69.9010  -10.9920   28.5590 C.3   176  TYR176      0.1605
     87  C        -68.6600  -10.6590   29.4160 C.2   176  TYR176      0.2264
     88  O        -68.1020   -9.5540   29.3220 O.2   176  TYR176     -0.2867
     89  CB       -70.4560   -9.7070   27.9540 C.3   176  TYR176      0.0534
     90  CG       -69.6570   -9.1090   26.8330 C.ar  176  TYR176     -0.0201
     91  CD1      -69.3140   -9.8740   25.7140 C.ar  176  TYR176     -0.0009
     92  CD2      -69.2780   -7.7660   26.8600 C.ar  176  TYR176     -0.0009
     93  CE1      -68.6190   -9.3220   24.6680 C.ar  176  TYR176      0.0417
     94  CE2      -68.5800   -7.2050   25.8040 C.ar  176  TYR176      0.0417
     95  CZ       -68.2640   -7.9930   24.7110 C.ar  176  TYR176      0.1957
     96  OH       -67.5740   -7.4690   23.6500 O.3   176  TYR176     -0.2866
     97  N        -59.6180  -17.6920   19.0410 N.3   197  LEU197     -0.1245
     98  CA       -59.2270  -16.6620   18.0980 C.3   197  LEU197      0.1561
     99  C        -57.7170  -16.5950   17.8930 C.2   197  LEU197      0.2260
    100  O        -57.2170  -16.5980   16.7480 O.2   197  LEU197     -0.2867
    101  CB       -59.6960  -15.2830   18.6260 C.3   197  LEU197      0.0270
    102  CG       -61.2000  -15.1610   18.9020 C.3   197  LEU197      0.0019
    103  CD1      -61.5910  -13.8370   19.5470 C.3   197  LEU197      0.0001
    104  CD2      -61.9690  -15.3570   17.5970 C.3   197  LEU197      0.0001
    105  N        -72.4810  -15.5950   11.0320 N.3   229  TYR229     -0.1241
    106  CA       -72.3490  -14.7310   12.1890 C.3   229  TYR229      0.1605
    107  C        -73.6770  -14.0080   12.4670 C.2   229  TYR229      0.2264
    108  O        -74.1830  -14.0320   13.5910 O.2   229  TYR229     -0.2867
    109  CB       -71.1920  -13.7270   12.0250 C.3   229  TYR229      0.0534
    110  CG       -71.2310  -12.6660   13.0820 C.ar  229  TYR229     -0.0201
    111  CD1      -70.7730  -12.9220   14.3590 C.ar  229  TYR229     -0.0009
    112  CD2      -71.7680  -11.4090   12.8100 C.ar  229  TYR229     -0.0009
    113  CE1      -70.8250  -11.9530   15.3350 C.ar  229  TYR229      0.0417
    114  CE2      -71.8260  -10.4350   13.7810 C.ar  229  TYR229      0.0417
    115  CZ       -71.3570  -10.7170   15.0440 C.ar  229  TYR229      0.1957
    116  OH       -71.4200   -9.7620   16.0210 O.3   229  TYR229     -0.2866
    117  N        -76.2970  -16.5270   13.5560 N.3   232  ARG232     -0.1231
    118  CA       -76.1220  -16.8620   14.9500 C.3   232  ARG232      0.1694
    119  C        -76.6360  -15.7370   15.8620 C.2   232  ARG232      0.2592
    120  O        -77.2840  -16.0030   16.8760 O.2   232  ARG232     -0.2718
    121  CB       -74.6750  -17.2550   15.2530 C.3   232  ARG232      0.0321
    122  CG       -74.6220  -18.4330   16.2170 C.3   232  ARG232      0.0489
    123  CD       -73.2420  -18.6530   16.7990 C.3   232  ARG232      0.2205
    124  NE       -72.3490  -19.3240   15.8610 N.pl3 232  ARG232     -0.0865
    125  CZ       -71.2210  -19.9310   16.2190 C.cat 232  ARG232      0.5346
    126  NH1      -70.8640  -19.9740   17.5040 N.pl3 232  ARG232      0.1354
    127  NH2      -70.4610  -20.5060   15.2940 N.pl3 232  ARG232      0.1354
    128  N        -76.3880  -14.4860   15.4580 N.am  233  PHE233     -0.1976
    129  CA       -76.8880  -13.3310   16.1850 C.3   233  PHE233      0.1639
    130  C        -78.4320  -13.3410   16.2380 C.2   233  PHE233      0.2290
    131  O        -79.0020  -13.3140   17.3290 O.2   233  PHE233     -0.2864
    132  CB       -76.3660  -12.0310   15.5710 C.3   233  PHE233      0.0560
    133  CG       -76.6130  -10.8180   16.4250 C.ar  233  PHE233     -0.0200
    134  CD1      -77.8620  -10.2110   16.4540 C.ar  233  PHE233     -0.0042
    135  CD2      -75.5940  -10.2790   17.2020 C.ar  233  PHE233     -0.0042
    136  CE1      -78.0970   -9.0950   17.2420 C.ar  233  PHE233     -0.0003
    137  CE2      -75.8190   -9.1490   17.9790 C.ar  233  PHE233     -0.0003
    138  CZ       -77.0740   -8.5640   18.0030 C.ar  233  PHE233     -0.0000
    139  N        -79.7050  -15.8940   18.5980 N.3   236  MET236     -0.1245
    140  CA       -79.3870  -15.6760   20.0200 C.3   236  MET236      0.1570
    141  C        -80.4810  -14.9170   20.7620 C.2   236  MET236      0.2261
    142  O        -80.5550  -14.9630   22.0040 O.2   236  MET236     -0.2867
    143  CB       -78.0420  -14.9680   20.1900 C.3   236  MET236      0.0387
    144  CG       -76.8960  -15.9110   20.5180 C.3   236  MET236      0.0595
    145  SD       -75.2710  -15.1920   20.1950 S.3   236  MET236     -0.1393
    146  CE       -74.2290  -16.4030   21.0010 C.3   236  MET236      0.0692
    147  N        -79.7340  -14.2130   24.4650 N.3   241  PHE241     -0.1241
    148  CA       -80.1380  -12.8210   24.6900 C.3   241  PHE241      0.1605
    149  C        -81.4280  -12.6880   25.4990 C.2   241  PHE241      0.2264
    150  O        -81.6350  -11.6670   26.1660 O.2   241  PHE241     -0.2867
    151  CB       -80.2720  -12.0470   23.3670 C.3   241  PHE241      0.0534
    152  CG       -78.9770  -11.8950   22.5900 C.ar  241  PHE241     -0.0203
    153  CD1      -77.7360  -12.1610   23.1720 C.ar  241  PHE241     -0.0042
    154  CD2      -78.9980  -11.4450   21.2740 C.ar  241  PHE241     -0.0042
    155  CE1      -76.5630  -12.0060   22.4520 C.ar  241  PHE241     -0.0003
    156  CE2      -77.8180  -11.2830   20.5520 C.ar  241  PHE241     -0.0003
    157  CZ       -76.6040  -11.5630   21.1420 C.ar  241  PHE241     -0.0000
    158  N        -76.5720   -8.7170   26.9590 N.3   248  PHE248     -0.1241
    159  CA       -77.1400   -8.1940   25.7340 C.3   248  PHE248      0.1605
    160  C        -78.6400   -8.4520   25.6690 C.2   248  PHE248      0.2264
    161  O        -79.2070   -8.6730   24.5870 O.2   248  PHE248     -0.2867
    162  CB       -76.4080   -8.7840   24.5340 C.3   248  PHE248      0.0534
    163  CG       -74.9350   -8.5020   24.5390 C.ar  248  PHE248     -0.0203
    164  CD1      -74.4560   -7.2290   24.2200 C.ar  248  PHE248     -0.0042
    165  CD2      -74.0260   -9.5030   24.8730 C.ar  248  PHE248     -0.0042
    166  CE1      -73.0970   -6.9610   24.2420 C.ar  248  PHE248     -0.0003
    167  CE2      -72.6630   -9.2440   24.8790 C.ar  248  PHE248     -0.0003
    168  CZ       -72.2030   -7.9710   24.5700 C.ar  248  PHE248     -0.0000
    169  N        -80.9790   -6.9390   23.0820 N.3   251  TYR251     -0.1241
    170  CA       -80.9760   -7.4470   21.7030 C.3   251  TYR251      0.1605
    171  C        -82.0760   -8.4980   21.4310 C.2   251  TYR251      0.2264
    172  O        -82.3370   -8.8320   20.2620 O.2   251  TYR251     -0.2867
    173  CB       -79.5870   -7.9900   21.2970 C.3   251  TYR251      0.0534
    174  CG       -78.5230   -6.9250   21.0080 C.ar  251  TYR251     -0.0201
    175  CD1      -78.8620   -5.7290   20.3620 C.ar  251  TYR251     -0.0009
    176  CD2      -77.1760   -7.1170   21.3800 C.ar  251  TYR251     -0.0009
    177  CE1      -77.9110   -4.7520   20.1020 C.ar  251  TYR251      0.0417
    178  CE2      -76.2140   -6.1410   21.1180 C.ar  251  TYR251      0.0417
    179  CZ       -76.5940   -4.9560   20.4750 C.ar  251  TYR251      0.1957
    180  OH       -75.6860   -3.9600   20.2000 O.3   251  TYR251     -0.2866
    181  N        -71.5920   -4.8080   13.8500 N.3   266  ILE266     -0.1245
    182  CA       -70.5810   -5.3920   14.7450 C.3   266  ILE266      0.1561
    183  C        -69.5720   -6.2150   13.9440 C.2   266  ILE266      0.2260
    184  O        -68.3660   -6.1660   14.1970 O.2   266  ILE266     -0.2867
    185  CB       -71.2230   -6.2720   15.8340 C.3   266  ILE266      0.0252
    186  CG1      -72.2570   -5.4600   16.6190 C.3   266  ILE266      0.0019
    187  CG2      -70.1680   -6.8870   16.7450 C.3   266  ILE266      0.0019
    188  CD1      -73.2220   -6.3180   17.4250 C.3   266  ILE266      0.0001
    189  N        -65.9010   -4.7300   14.0390 N.3   270  ILE270     -0.1231
    190  CA       -65.0840   -5.4330   15.0140 C.3   270  ILE270      0.1692
    191  C        -64.5900   -6.7770   14.4840 C.2   270  ILE270      0.2592
    192  O        -63.3940   -6.9730   14.3280 O.2   270  ILE270     -0.2718
    193  CB       -65.8020   -5.5940   16.3840 C.3   270  ILE270      0.0266
    194  CG1      -66.1950   -4.2310   16.9560 C.3   270  ILE270      0.0019
    195  CG2      -64.9190   -6.3170   17.3910 C.3   270  ILE270      0.0020
    196  CD1      -67.2090   -4.3320   18.0860 C.3   270  ILE270      0.0001
    197  N        -65.5050   -7.6910   14.1950 N.am  271  ASN271     -0.1974
    198  CA       -65.1040   -9.0670   13.9830 C.3   271  ASN271      0.1688
    199  C        -64.4600   -9.3670   12.6270 C.2   271  ASN271      0.2292
    200  O        -63.5640  -10.2050   12.5600 O.2   271  ASN271     -0.2864
    201  CB       -66.2150  -10.0430   14.3540 C.3   271  ASN271      0.1181
    202  CG       -66.5230  -10.0210   15.8490 C.2   271  ASN271      0.2629
    203  OD1      -65.6130   -9.9220   16.6720 O.2   271  ASN271     -0.2716
    204  ND2      -67.8100  -10.1050   16.2060 N.am  271  ASN271     -0.0877
@<TRIPOS>BOND
     1   105   106    1
     2   109   106    1
     3   109   110    1
     4    11    10    2
     5   106   107    1
     6   107   108    2
     7   200   199    2
     8   199   198    1
     9   112   110   ar
    10   112   114   ar
    11    10     9    1
    12   110   111   ar
    13     4     3    2
    14    12     9    1
    15   117   118    1
    16   114   115   ar
    17   181   182    1
    18   183   184    2
    19   183   182    1
    20   198   197    1
    21   198   201    1
    22   189   190    1
    23     9     8    1
    24   197   191   am
    25   192   191    2
    26   201   202    1
    27   111   113   ar
    28     3     8   am
    29     3     2    1
    30   191   190    1
    31     1     2    1
    32   182   185    1
    33   118   121    1
    34   118   119    1
    35   190   193    1
    36   115   113   ar
    37   115   116    1
    38   121   122    1
    39    13    14    1
    40   127   125    1
    41     2     5    1
    42   128   119   am
    43   128   129    1
    44   132   129    1
    45   132   133    1
    46    18    19    1
    47    18    17    1
    48   185   186    1
    49   185   187    1
    50   202   204   am
    51   202   203    2
    52   124   125    2
    53   124   123    1
    54   119   120    2
    55    14    17    1
    56    14    15    1
    57     5     6    1
    58     5     7    1
    59   129   130    1
    60   122   123    1
    61   125   126    1
    62   130   131    2
    63   193   194    1
    64   193   195    1
    65   133   134   ar
    66   133   135   ar
    67   134   136   ar
    68    19    20    1
    69   186   188    1
    70   100    99    2
    71    21    20    1
    72   194   196    1
    73    15    16    2
    74   135   137   ar
    75   136   138   ar
    76   104   102    1
    77    99    98    1
    78   137   138   ar
    79    98   101    1
    80    98    97    1
    81   139   140    1
    82   101   102    1
    83   102   103    1
    84    50    49    2
    85   140   143    1
    86   140   141    1
    87   177   175   ar
    88   177   179   ar
    89   143   144    1
    90   145   144    1
    91   145   146    1
    92   180   179    1
    93    49    48    1
    94   172   171    2
    95   175   174   ar
    96   179   178   ar
    97   156   157   ar
    98   156   154   ar
    99   141   142    2
   100    41    40    2
   101   174   173    1
   102   174   176   ar
   103    48    47    1
   104   178   176   ar
   105   157   155   ar
   106   154   152   ar
   107   173   170    1
   108   171   170    1
   109   170   169    1
   110    40    47   am
   111    40    39    1
   112    62    61    1
   113   155   153   ar
   114    38    39    1
   115   152   153   ar
   116   152   151    1
   117    59    61   ar
   118    59    57   ar
   119    61    60   ar
   120    39    42    1
   121   151   148    1
   122    57    56   ar
   123    28    27   ar
   124    96    95    1
   125    42    43    1
   126    84    82   ar
   127    84    83   ar
   128    29    27   ar
   129    60    58   ar
   130    82    80   ar
   131   164   166   ar
   132   164   163   ar
   133   166   168   ar
   134    27    26    1
   135   147   148    1
   136   162   163    1
   137   162   159    1
   138   163   165   ar
   139    83    81   ar
   140   168   167   ar
   141   161   160    2
   142    56    58   ar
   143    56    55    1
   144    93    95   ar
   145    93    91   ar
   146   148   149    1
   147    95    94   ar
   148   165   167   ar
   149    43    44    1
   150    80    81   ar
   151    80    79    1
   152    37    35    1
   153   149   150    2
   154    55    52    1
   155    44    45    1
   156    22    23    1
   157    51    52    1
   158   160   159    1
   159    91    90   ar
   160   159   158    1
   161    79    76    1
   162    94    92   ar
   163    26    23    1
   164    36    35    1
   165    23    24    1
   166    35    34    1
   167    45    46    1
   168    52    53    1
   169    74    73    1
   170    72    73   ar
   171    72    70   ar
   172    90    92   ar
   173    90    89    1
   174    78    77    2
   175    76    77    1
   176    76    75    1
   177    54    53    2
   178    73    71   ar
   179    70    68   ar
   180    24    25    2
   181    34    31    1
   182    89    86    1
   183    31    30    1
   184    31    32    1
   185    71    69   ar
   186    68    69   ar
   187    68    67    1
   188    86    85    1
   189    86    87    1
   190    67    64    1
   191    88    87    2
   192    32    33    2
   193    66    65    2
   194    65    64    1
   195    64    63    1
