@<TRIPOS>MOLECULE
tmp/4bfwA00.pdb
 213 205 0 0 0
SMALL
GASTEIGER

@<TRIPOS>ATOM
      1  N        -23.4270  -14.4890   16.8580 N.3    93  VAL93      -0.1231
      2  CA       -22.1490  -14.5340   16.0730 C.3    93  VAL93       0.1692
      3  C        -21.0560  -15.0670   17.0150 C.2    93  VAL93       0.2591
      4  O        -21.0320  -14.7080   18.2180 O.2    93  VAL93      -0.2718
      5  CB       -21.7440  -13.1430   15.4860 C.3    93  VAL93       0.0266
      6  CG1      -20.2990  -13.1310   15.0010 C.3    93  VAL93       0.0020
      7  CG2      -22.6650  -12.7370   14.3300 C.3    93  VAL93       0.0020
      8  N        -20.2180  -15.9660   16.4840 N.am   94  ALA94      -0.1980
      9  CA       -19.0120  -16.5040   17.1620 C.3    94  ALA94       0.1597
     10  C        -19.3220  -17.4900   18.2660 C.2    94  ALA94       0.2287
     11  O        -18.5070  -17.6860   19.1920 O.2    94  ALA94      -0.2864
     12  CB       -18.1600  -15.3650   17.7280 C.3    94  ALA94       0.0319
     13  N        -26.6390  -16.7100    5.5490 N.3   123  ASP123     -0.1239
     14  CA       -25.7620  -15.6550    5.0260 C.3   123  ASP123      0.1674
     15  C        -25.9630  -15.4240    3.5070 C.2   123  ASP123      0.2266
     16  O        -25.8430  -14.3010    3.0010 O.2   123  ASP123     -0.2867
     17  CB       -24.2920  -16.0050    5.3130 C.3   123  ASP123      0.1410
     18  CG       -23.9820  -16.1140    6.8200 C.2   123  ASP123      0.3668
     19  OD1      -24.8360  -15.7540    7.6530 O.co2 123  ASP123     -0.2456
     20  OD2      -22.8760  -16.5870    7.1720 O.co2 123  ASP123     -0.2456
     21  N        -28.5590  -12.6890    2.8320 N.3   126  LEU126     -0.1245
     22  CA       -28.3100  -11.2570    3.0520 C.3   126  LEU126      0.1561
     23  C        -28.4080  -10.5260    1.7170 C.2   126  LEU126      0.2260
     24  O        -28.0570  -11.1020    0.6840 O.2   126  LEU126     -0.2867
     25  CB       -26.9230  -11.0530    3.6200 C.3   126  LEU126      0.0270
     26  CG       -26.7160  -11.4390    5.0740 C.3   126  LEU126      0.0019
     27  CD1      -25.2200  -11.6270    5.3500 C.3   126  LEU126      0.0001
     28  CD2      -27.3580  -10.4230    6.0060 C.3   126  LEU126      0.0001
     29  N        -26.3200   -0.8200    5.4160 N.3   138  MET138     -0.1230
     30  CA       -24.9810   -1.3610    5.6440 C.3   138  MET138      0.1702
     31  C        -24.6210   -1.5110    7.1210 C.2   138  MET138      0.2592
     32  O        -23.9070   -2.4270    7.4730 O.2   138  MET138     -0.2718
     33  CB       -23.9100   -0.5570    4.9120 C.3   138  MET138      0.0401
     34  CG       -23.8520   -0.8080    3.4130 C.3   138  MET138      0.0596
     35  SD       -23.5360   -2.5260    2.9040 S.3   138  MET138     -0.1393
     36  CE       -22.0060   -2.8600    3.7930 C.3   138  MET138      0.0692
     37  N        -25.1060   -0.6230    7.9810 N.am  139  HIS139     -0.1976
     38  CA       -24.7830   -0.6660    9.4260 C.3   139  HIS139      0.1656
     39  C        -25.6330   -1.7010   10.1390 C.2   139  HIS139      0.2291
     40  O        -25.4850   -1.9250   11.3400 O.2   139  HIS139     -0.2864
     41  CB       -25.1280    0.6810   10.0490 C.3   139  HIS139      0.0771
     42  CG       -26.5190    1.1300    9.7380 C.ar  139  HIS139      0.0820
     43  ND1      -27.4490    1.4140   10.7200 N.ar  139  HIS139     -0.2267
     44  CD2      -27.1470    1.3150    8.5470 C.ar  139  HIS139      0.1154
     45  CE1      -28.5870    1.7650   10.1490 C.ar  139  HIS139      0.1986
     46  NE2      -28.4360    1.7100    8.8310 N.ar  139  HIS139     -0.2212
     47  N        -26.1210   -4.8840    8.8190 N.3   141  LYS141     -0.1231
     48  CA       -25.8350   -6.1850    8.2540 C.3   141  LYS141      0.1693
     49  C        -25.8970   -7.2250    9.3680 C.2   141  LYS141      0.2592
     50  O        -25.1690   -7.1340   10.3530 O.2   141  LYS141     -0.2718
     51  CB       -24.5010   -6.2140    7.5050 C.3   141  LYS141      0.0285
     52  CG       -24.2670   -7.5440    6.8080 C.3   141  LYS141      0.0035
     53  CD       -22.9500   -7.6480    6.0350 C.3   141  LYS141      0.0206
     54  CE       -23.1190   -7.2810    4.5660 C.3   141  LYS141      0.1093
     55  NZ       -21.8190   -7.3280    3.8430 N.3   141  LYS141     -0.1314
     56  N        -26.8050   -8.1940    9.1980 N.am  142  GLY142     -0.1957
     57  CA       -26.9690   -9.2800   10.1370 C.3   142  GLY142      0.1869
     58  C        -28.1630   -9.0920   11.0540 C.2   142  GLY142      0.2309
     59  O        -28.4890   -9.9960   11.8220 O.2   142  GLY142     -0.2863
     60  N        -31.7210   -9.1820    5.4420 N.3   147  TYR147     -0.1241
     61  CA       -31.9390  -10.3910    4.6910 C.3   147  TYR147      0.1605
     62  C        -33.0660  -10.1780    3.7250 C.2   147  TYR147      0.2264
     63  O        -34.0850   -9.5180    4.0520 O.2   147  TYR147     -0.2867
     64  CB       -32.2910  -11.5490    5.6220 C.3   147  TYR147      0.0534
     65  CG       -31.1620  -11.9220    6.5720 C.ar  147  TYR147     -0.0201
     66  CD1      -31.0210  -11.2800    7.8120 C.ar  147  TYR147     -0.0009
     67  CD2      -30.2250  -12.9000    6.2140 C.ar  147  TYR147     -0.0009
     68  CE1      -30.0030  -11.6290    8.6860 C.ar  147  TYR147      0.0417
     69  CE2      -29.1830  -13.2420    7.0690 C.ar  147  TYR147      0.0417
     70  CZ       -29.0790  -12.6070    8.3070 C.ar  147  TYR147      0.1957
     71  OH       -28.0540  -12.9680    9.1470 O.3   147  TYR147     -0.2866
     72  N        -22.7200  -16.3700   -0.0390 N.3   171  TYR171     -0.1241
     73  CA       -22.1190  -15.1930    0.5300 C.3   171  TYR171      0.1605
     74  C        -20.6270  -15.4590    0.6870 C.2   171  TYR171      0.2264
     75  O        -20.2390  -16.5690    1.0640 O.2   171  TYR171     -0.2867
     76  CB       -22.7520  -14.9160    1.8980 C.3   171  TYR171      0.0534
     77  CG       -22.2280  -13.6800    2.5850 C.ar  171  TYR171     -0.0201
     78  CD1      -22.5750  -12.4060    2.1320 C.ar  171  TYR171     -0.0009
     79  CD2      -21.4110  -13.7850    3.6840 C.ar  171  TYR171     -0.0009
     80  CE1      -22.1020  -11.2680    2.7570 C.ar  171  TYR171      0.0417
     81  CE2      -20.9320  -12.6610    4.3270 C.ar  171  TYR171      0.0417
     82  CZ       -21.2690  -11.4030    3.8540 C.ar  171  TYR171      0.1957
     83  OH       -20.7900  -10.2880    4.4930 O.3   171  TYR171     -0.2866
     84  N        -17.6350  -14.2650    3.0800 N.3   173  HIS173     -0.1241
     85  CA       -17.1800  -13.4580    4.2190 C.3   173  HIS173      0.1621
     86  C        -15.8700  -12.6750    3.9220 C.2   173  HIS173      0.2264
     87  O        -15.6660  -11.5480    4.4070 O.2   173  HIS173     -0.2867
     88  CB       -17.0250  -14.3220    5.4650 C.3   173  HIS173      0.0745
     89  CG       -18.3280  -14.6960    6.0820 C.ar  173  HIS173      0.0817
     90  ND1      -18.8430  -14.0460    7.1850 N.ar  173  HIS173     -0.2268
     91  CD2      -19.2450  -15.6310    5.7290 C.ar  173  HIS173      0.1154
     92  CE1      -20.0130  -14.5770    7.4940 C.ar  173  HIS173      0.1986
     93  NE2      -20.2780  -15.5380    6.6240 N.ar  173  HIS173     -0.2212
     94  N        -16.8590   -9.8770    2.0290 N.3   176  TYR176     -0.1241
     95  CA       -17.9720   -9.2390    2.7490 C.3   176  TYR176      0.1605
     96  C        -19.2090   -8.9900    1.8580 C.2   176  TYR176      0.2264
     97  O        -19.8730   -7.9460    1.9530 O.2   176  TYR176     -0.2867
     98  CB       -17.4890   -7.9310    3.3680 C.3   176  TYR176      0.0534
     99  CG       -18.3640   -7.3420    4.4610 C.ar  176  TYR176     -0.0201
    100  CD1      -18.6330   -8.0570    5.6300 C.ar  176  TYR176     -0.0009
    101  CD2      -18.8790   -6.0360    4.3490 C.ar  176  TYR176     -0.0009
    102  CE1      -19.4090   -7.5180    6.6340 C.ar  176  TYR176      0.0417
    103  CE2      -19.6570   -5.4850    5.3580 C.ar  176  TYR176      0.0417
    104  CZ       -19.9130   -6.2290    6.4990 C.ar  176  TYR176      0.1957
    105  OH       -20.6880   -5.7030    7.5190 O.3   176  TYR176     -0.2866
    106  N        -28.1590  -16.6000   12.1650 N.3   197  LEU197     -0.1245
    107  CA       -28.5090  -15.7300   13.2860 C.3   197  LEU197      0.1561
    108  C        -30.0180  -15.6220   13.4110 C.2   197  LEU197      0.2260
    109  O        -30.5440  -15.5110   14.5220 O.2   197  LEU197     -0.2867
    110  CB       -27.9930  -14.2880   13.0520 C.3   197  LEU197      0.0270
    111  CG       -26.4990  -14.1580   12.7230 C.3   197  LEU197      0.0019
    112  CD1      -26.1340  -12.7860   12.1450 C.3   197  LEU197      0.0001
    113  CD2      -25.6730  -14.4810   13.9660 C.3   197  LEU197      0.0001
    114  N        -15.3900  -13.8400   20.2000 N.3   229  TYR229     -0.1241
    115  CA       -15.4740  -12.9180   19.0720 C.3   229  TYR229      0.1605
    116  C        -14.0990  -12.2120   18.9190 C.2   229  TYR229      0.2264
    117  O        -13.5150  -12.1590   17.8210 O.2   229  TYR229     -0.2867
    118  CB       -16.6130  -11.8800   19.2510 C.3   229  TYR229      0.0534
    119  CG       -16.5880  -10.8900   18.1080 C.ar  229  TYR229     -0.0201
    120  CD1      -17.0240  -11.2770   16.8440 C.ar  229  TYR229     -0.0009
    121  CD2      -16.0150   -9.6100   18.2580 C.ar  229  TYR229     -0.0009
    122  CE1      -16.9690  -10.4100   15.7780 C.ar  229  TYR229      0.0417
    123  CE2      -15.9210   -8.7480   17.1790 C.ar  229  TYR229      0.0417
    124  CZ       -16.3970   -9.1490   15.9410 C.ar  229  TYR229      0.1957
    125  OH       -16.3290   -8.3160   14.8300 O.3   229  TYR229     -0.2866
    126  N        -11.2890  -14.4270   17.7600 N.3   232  ARG232     -0.1231
    127  CA       -11.3670  -14.8130   16.3460 C.3   232  ARG232      0.1694
    128  C        -11.0150  -13.6660   15.3940 C.2   232  ARG232      0.2592
    129  O        -10.5330  -13.8920   14.2790 O.2   232  ARG232     -0.2718
    130  CB       -12.7390  -15.4150   15.9920 C.3   232  ARG232      0.0321
    131  CG       -12.8570  -15.8250   14.5220 C.3   232  ARG232      0.0489
    132  CD       -14.1880  -16.4750   14.1330 C.3   232  ARG232      0.2205
    133  NE       -14.7470  -17.4140   15.1210 N.pl3 232  ARG232     -0.0865
    134  CZ       -15.9520  -17.9790   15.0050 C.cat 232  ARG232      0.5346
    135  NH1      -16.7080  -17.7210   13.9460 N.pl3 232  ARG232      0.1354
    136  NH2      -16.4030  -18.8120   15.9390 N.pl3 232  ARG232      0.1354
    137  N        -11.2750  -12.4370   15.8280 N.am  233  PHE233     -0.1976
    138  CA       -10.9250  -11.2600   15.0500 C.3   233  PHE233      0.1639
    139  C         -9.3780  -11.1970   14.9510 C.2   233  PHE233      0.2290
    140  O         -8.8190  -11.1080   13.8390 O.2   233  PHE233     -0.2864
    141  CB       -11.5200   -9.9960   15.7290 C.3   233  PHE233      0.0560
    142  CG       -11.3640   -8.7140   14.9250 C.ar  233  PHE233     -0.0200
    143  CD1      -10.1650   -7.9720   14.9630 C.ar  233  PHE233     -0.0042
    144  CD2      -12.4160   -8.2240   14.1490 C.ar  233  PHE233     -0.0042
    145  CE1      -10.0210   -6.7930   14.2240 C.ar  233  PHE233     -0.0003
    146  CE2      -12.2830   -7.0290   13.4270 C.ar  233  PHE233     -0.0003
    147  CZ       -11.0780   -6.3200   13.4520 C.ar  233  PHE233     -0.0000
    148  N         -7.8600  -13.6970   12.8290 N.3   236  MET236     -0.1245
    149  CA        -8.1540  -13.5340   11.4070 C.3   236  MET236      0.1570
    150  C         -7.1900  -12.5920   10.7110 C.2   236  MET236      0.2261
    151  O         -7.2340  -12.4280    9.4730 O.2   236  MET236     -0.2867
    152  CB        -9.5860  -13.0600   11.2020 C.3   236  MET236      0.0387
    153  CG       -10.6230  -14.1650   11.3160 C.3   236  MET236      0.0595
    154  SD       -12.2980  -13.4700   11.3820 S.3   236  MET236     -0.1393
    155  CE       -12.5740  -13.1930    9.6200 C.3   236  MET236      0.0692
    156  N         -7.9640  -11.8280    6.8210 N.3   241  PHE241     -0.1241
    157  CA        -7.6660  -10.3870    6.6670 C.3   241  PHE241      0.1605
    158  C         -6.3810  -10.1900    5.8450 C.2   241  PHE241      0.2264
    159  O         -6.3010   -9.2750    5.0230 O.2   241  PHE241     -0.2867
    160  CB        -7.5510   -9.6290    8.0160 C.3   241  PHE241      0.0534
    161  CG        -8.8020   -9.6630    8.8910 C.ar  241  PHE241     -0.0203
    162  CD1      -10.0890   -9.7800    8.3440 C.ar  241  PHE241     -0.0042
    163  CD2       -8.6820   -9.5420   10.2860 C.ar  241  PHE241     -0.0042
    164  CE1      -11.2070   -9.8130    9.1700 C.ar  241  PHE241     -0.0003
    165  CE2       -9.7890   -9.5780   11.1140 C.ar  241  PHE241     -0.0003
    166  CZ       -11.0560   -9.7080   10.5520 C.ar  241  PHE241     -0.0000
    167  N        -11.5360   -6.5980    4.5200 N.3   248  PHE248     -0.1241
    168  CA       -11.0100   -6.0300    5.7510 C.3   248  PHE248      0.1605
    169  C         -9.4860   -6.1650    5.8370 C.2   248  PHE248      0.2264
    170  O         -8.9020   -6.4140    6.9030 O.2   248  PHE248     -0.2867
    171  CB       -11.7580   -6.6050    6.9610 C.3   248  PHE248      0.0534
    172  CG       -13.2320   -6.2930    6.9450 C.ar  248  PHE248     -0.0203
    173  CD1      -13.6860   -4.9900    7.1920 C.ar  248  PHE248     -0.0042
    174  CD2      -14.1620   -7.2800    6.6270 C.ar  248  PHE248     -0.0042
    175  CE1      -15.0360   -4.6920    7.1600 C.ar  248  PHE248     -0.0003
    176  CE2      -15.5130   -6.9850    6.5950 C.ar  248  PHE248     -0.0003
    177  CZ       -15.9520   -5.6930    6.8610 C.ar  248  PHE248     -0.0000
    178  N         -7.0510   -4.6370    8.2350 N.3   251  TYR251     -0.1241
    179  CA        -7.1310   -5.1270    9.6130 C.3   251  TYR251      0.1605
    180  C         -5.9490   -6.0380    9.9230 C.2   251  TYR251      0.2264
    181  O         -5.6340   -6.2920   11.1070 O.2   251  TYR251     -0.2867
    182  CB        -8.4400   -5.8890    9.8830 C.3   251  TYR251      0.0534
    183  CG        -9.7020   -5.0630   10.0950 C.ar  251  TYR251     -0.0201
    184  CD1       -9.6620   -3.6730   10.2790 C.ar  251  TYR251     -0.0009
    185  CD2      -10.9470   -5.6920   10.0980 C.ar  251  TYR251     -0.0009
    186  CE1      -10.8340   -2.9460   10.4690 C.ar  251  TYR251      0.0417
    187  CE2      -12.1110   -4.9810   10.2890 C.ar  251  TYR251      0.0417
    188  CZ       -12.0530   -3.6160   10.4700 C.ar  251  TYR251      0.1957
    189  OH       -13.2290   -2.9500   10.6540 O.3   251  TYR251     -0.2866
    190  N        -16.6250   -3.2960   17.5450 N.3   266  ILE266     -0.1245
    191  CA       -17.5640   -3.8410   16.5690 C.3   266  ILE266      0.1561
    192  C        -18.5430   -4.6980   17.3590 C.2   266  ILE266      0.2260
    193  O        -19.7510   -4.6890   17.1280 O.2   266  ILE266     -0.2867
    194  CB       -16.8700   -4.6640   15.4830 C.3   266  ILE266      0.0252
    195  CG1      -16.1390   -3.7410   14.5200 C.3   266  ILE266      0.0019
    196  CG2      -17.8800   -5.4290   14.6430 C.3   266  ILE266      0.0019
    197  CD1      -14.9280   -4.3740   13.8520 C.3   266  ILE266      0.0001
    198  N        -22.2650   -3.4050   17.2400 N.3   270  ILE270     -0.1231
    199  CA       -23.1080   -4.1210   16.2870 C.3   270  ILE270      0.1692
    200  C        -23.5610   -5.5080   16.7300 C.2   270  ILE270      0.2592
    201  O        -24.7690   -5.7210   16.8060 O.2   270  ILE270     -0.2718
    202  CB       -22.5160   -4.1930   14.8750 C.3   270  ILE270      0.0266
    203  CG1      -22.0660   -2.7860   14.4490 C.3   270  ILE270      0.0019
    204  CG2      -23.5510   -4.8080   13.9600 C.3   270  ILE270      0.0020
    205  CD1      -21.3230   -2.7260   13.1250 C.3   270  ILE270      0.0001
    206  N        -22.6290   -6.4230   17.0530 N.am  271  ASN271     -0.1974
    207  CA       -23.0230   -7.8090   17.3410 C.3   271  ASN271      0.1688
    208  C        -23.6440   -8.0540   18.6890 C.2   271  ASN271      0.2292
    209  O        -24.5800   -8.8300   18.8100 O.2   271  ASN271     -0.2864
    210  CB       -21.9050   -8.7950   17.0440 C.3   271  ASN271      0.1181
    211  CG       -21.4840   -8.7280   15.6010 C.2   271  ASN271      0.2629
    212  OD1      -22.3340   -8.7400   14.7130 O.2   271  ASN271     -0.2716
    213  ND2      -20.1690   -8.5800   15.3520 N.am  271  ASN271     -0.0877
@<TRIPOS>BOND
     1    72    73    1
     2    73    74    1
     3    73    76    1
     4    24    23    2
     5    74    75    2
     6    23    22    1
     7    96    97    2
     8    96    95    1
     9    76    77    1
    10    94    95    1
    11    78    77   ar
    12    78    80   ar
    13    77    79   ar
    14    95    98    1
    15    80    82   ar
    16    21    22    1
    17    35    34    1
    18    35    36    1
    19    16    15    2
    20    22    25    1
    21    84    85    1
    22    98    99    1
    23    34    33    1
    24    15    14    1
    25    25    26    1
    26    79    81   ar
    27    62    63    2
    28    62    61    1
    29    55    54    1
    30    82    81   ar
    31    82    83    1
    32    86    85    1
    33    86    87    2
    34    85    88    1
    35   101    99   ar
    36   101   103   ar
    37    99   100   ar
    38   167   168    1
    39    54    53    1
    40    61    60    1
    41    61    64    1
    42    33    30    1
    43   159   158    2
    44    14    17    1
    45    14    13    1
    46    26    27    1
    47    26    28    1
    48    17    18    1
    49   103   104   ar
    50    29    30    1
    51    88    89    1
    52    64    65    1
    53   100   102   ar
    54    30    31    1
    55    91    89   ar
    56    91    93   ar
    57   168   169    1
    58   168   171    1
    59   169   170    2
    60   158   157    1
    61    53    52    1
    62    89    90   ar
    63    67    65   ar
    64    67    69   ar
    65   104   102   ar
    66   104   105    1
    67    65    66   ar
    68   176   174   ar
    69   176   177   ar
    70    93    92   ar
    71   174   172   ar
    72   157   156    1
    73   157   160    1
    74    52    51    1
    75    18    20   ar
    76    18    19   ar
    77   177   175   ar
    78   172   171    1
    79   172   173   ar
    80    69    70   ar
    81    31    32    2
    82    31    37   am
    83   175   173   ar
    84    90    92   ar
    85    51    48    1
    86    66    68   ar
    87    37    38    1
    88   160   161    1
    89   178   179    1
    90    48    47    1
    91    48    49    1
    92    70    68   ar
    93    70    71    1
    94   162   161   ar
    95   162   164   ar
    96    44    46   ar
    97    44    42   ar
    98    46    45   ar
    99   161   163   ar
   100   164   166   ar
   101    56    49   am
   102    56    57    1
   103    49    50    2
   104    38    41    1
   105    38    39    1
   106   151   150    2
   107   179   182    1
   108   179   180    1
   109   155   154    1
   110    42    41    1
   111    42    43   ar
   112   182   183    1
   113   180   181    2
   114   183   185   ar
   115   183   184   ar
   116   185   187   ar
   117    57    58    1
   118    39    40    2
   119    45    43   ar
   120   184   186   ar
   121   163   165   ar
   122   187   188   ar
   123   186   188   ar
   124   188   189    1
   125   166   165   ar
   126   150   149    1
   127    58    59    2
   128   152   153    1
   129   152   149    1
   130   153   154    1
   131   149   148    1
   132   112   111    1
   133   106   107    1
   134   111   110    1
   135   111   113    1
   136   110   107    1
   137   205   203    1
   138   107   108    1
   139   108   109    2
   140   146   147   ar
   141   146   144   ar
   142   147   145   ar
   143   140   139    2
   144   197   195    1
   145   135   134    1
   146   204   202    1
   147   132   131    1
   148   132   133    1
   149   144   142   ar
   150   145   143   ar
   151   129   128    2
   152     7     5    1
   153   203   202    1
   154   195   194    1
   155   131   130    1
   156   196   194    1
   157   212   211    2
   158   125   124    1
   159   202   199    1
   160   142   143   ar
   161   142   141    1
   162   139   138    1
   163     6     5    1
   164   134   133    2
   165   134   136    1
   166   138   141    1
   167   138   137    1
   168   213   211   am
   169   128   137   am
   170   128   127    1
   171   194   191    1
   172     5     2    1
   173   211   210    1
   174   122   124   ar
   175   122   120   ar
   176   124   123   ar
   177   130   127    1
   178     2     1    1
   179     2     3    1
   180   199   200    1
   181   199   198    1
   182   127   126    1
   183     8     3   am
   184     8     9    1
   185   191   192    1
   186   191   190    1
   187   200   201    2
   188   200   206   am
   189   120   119   ar
   190     3     4    2
   191   210   207    1
   192   206   207    1
   193   193   192    2
   194     9    12    1
   195     9    10    1
   196   123   121   ar
   197   207   208    1
   198   117   116    2
   199   119   121   ar
   200   119   118    1
   201    10    11    2
   202   208   209    2
   203   116   115    1
   204   115   118    1
   205   115   114    1
