@<TRIPOS>MOLECULE
tmp/4bfyB00.pdb
 208 200 0 0 0
SMALL
GASTEIGER

@<TRIPOS>ATOM
      1  N        -64.0450  -15.6260   14.6950 N.3    93  VAL93      -0.1245
      2  CA       -65.2350  -15.7900   15.4970 C.3    93  VAL93       0.1561
      3  C        -66.3320  -16.4240   14.6240 C.2    93  VAL93       0.2260
      4  O        -66.4710  -16.0750   13.4160 O.2    93  VAL93      -0.2867
      5  CB       -65.7340  -14.4540   16.0230 C.3    93  VAL93       0.0252
      6  CG1      -67.0890  -14.6380   16.7120 C.3    93  VAL93       0.0019
      7  CG2      -64.6890  -13.8170   16.9550 C.3    93  VAL93       0.0019
      8  N        -60.4400  -17.8520   25.6750 N.3   123  ASP123     -0.1239
      9  CA       -61.4140  -16.8990   26.2280 C.3   123  ASP123      0.1674
     10  C        -61.1600  -16.5810   27.7200 C.2   123  ASP123      0.2266
     11  O        -61.2620  -15.4320   28.1290 O.2   123  ASP123     -0.2867
     12  CB       -62.8500  -17.3810   26.0100 C.3   123  ASP123      0.1410
     13  CG       -63.1990  -17.5710   24.5130 C.2   123  ASP123      0.3668
     14  OD1      -62.4020  -17.1590   23.6260 O.co2 123  ASP123     -0.2456
     15  OD2      -64.2790  -18.1450   24.2360 O.co2 123  ASP123     -0.2456
     16  N        -58.7530  -13.6620   28.5860 N.3   126  LEU126     -0.1245
     17  CA       -59.1460  -12.2820   28.3380 C.3   126  LEU126      0.1561
     18  C        -59.0200  -11.4980   29.6310 C.2   126  LEU126      0.2260
     19  O        -59.1870  -12.0530   30.7140 O.2   126  LEU126     -0.2867
     20  CB       -60.5920  -12.2230   27.8410 C.3   126  LEU126      0.0270
     21  CG       -60.8550  -12.5760   26.3770 C.3   126  LEU126      0.0019
     22  CD1      -62.3460  -12.7440   26.0920 C.3   126  LEU126      0.0001
     23  CD2      -60.2310  -11.5360   25.4640 C.3   126  LEU126      0.0001
     24  N        -62.5520   -2.2250   25.2760 N.3   138  MET138     -0.1230
     25  CA       -63.8890   -2.8330   25.1880 C.3   138  MET138      0.1702
     26  C        -64.3630   -3.0820   23.7710 C.2   138  MET138      0.2592
     27  O        -65.0380   -4.0640   23.5130 O.2   138  MET138     -0.2718
     28  CB       -64.9500   -2.0260   25.9460 C.3   138  MET138      0.0401
     29  CG       -64.9190   -2.2600   27.4540 C.3   138  MET138      0.0596
     30  SD       -65.2790   -3.9630   27.9980 S.3   138  MET138     -0.1393
     31  CE       -67.0760   -3.9800   27.9790 C.3   138  MET138      0.0692
     32  N        -64.0100   -2.2080   22.8410 N.am  139  HIS139     -0.1976
     33  CA       -64.3930   -2.4460   21.4490 C.3   139  HIS139      0.1656
     34  C        -63.4640   -3.4450   20.7490 C.2   139  HIS139      0.2291
     35  O        -63.6040   -3.7230   19.5660 O.2   139  HIS139     -0.2864
     36  CB       -64.3970   -1.1340   20.7130 C.3   139  HIS139      0.0771
     37  CG       -63.0390   -0.5330   20.5790 C.ar  139  HIS139      0.0820
     38  ND1      -62.4990   -0.1910   19.3610 N.ar  139  HIS139     -0.2267
     39  CD2      -62.0930   -0.2580   21.5030 C.ar  139  HIS139      0.1154
     40  CE1      -61.2840    0.2960   19.5480 C.ar  139  HIS139      0.1986
     41  NE2      -61.0140    0.2550   20.8360 N.ar  139  HIS139     -0.2212
     42  N        -62.3970   -6.6570   22.2450 N.3   141  LYS141     -0.1231
     43  CA       -62.3380   -7.9900   22.8340 C.3   141  LYS141      0.1693
     44  C        -62.0410   -9.0160   21.7060 C.2   141  LYS141      0.2592
     45  O        -62.6720   -8.9470   20.6060 O.2   141  LYS141     -0.2718
     46  CB       -63.6450   -8.2810   23.5440 C.3   141  LYS141      0.0285
     47  CG       -63.6190   -9.5820   24.3260 C.3   141  LYS141      0.0035
     48  CD       -64.9030   -9.8360   25.0820 C.3   141  LYS141      0.0206
     49  CE       -64.8030   -9.2650   26.4770 C.3   141  LYS141      0.1093
     50  NZ       -66.1280   -9.3010   27.1410 N.3   141  LYS141     -0.1314
     51  N        -61.0520   -9.8980   21.9470 N.am  142  GLY142     -0.1957
     52  CA       -60.5390  -10.8270   20.9200 C.3   142  GLY142      0.1869
     53  C        -59.3590  -10.4040   20.0340 C.2   142  GLY142      0.2309
     54  O        -58.7660  -11.2350   19.3400 O.2   142  GLY142     -0.2863
     55  N        -56.0440  -10.0330   25.5380 N.3   147  TYR147     -0.1241
     56  CA       -55.6870  -11.1500   26.4000 C.3   147  TYR147      0.1605
     57  C        -54.4830  -10.8120   27.2070 C.2   147  TYR147      0.2264
     58  O        -53.5880  -10.0620   26.7820 O.2   147  TYR147     -0.2867
     59  CB       -55.3570  -12.4190   25.6160 C.3   147  TYR147      0.0534
     60  CG       -56.4460  -12.8770   24.6810 C.ar  147  TYR147     -0.0201
     61  CD1      -56.5960  -12.2850   23.4120 C.ar  147  TYR147     -0.0009
     62  CD2      -57.3050  -13.9270   25.0310 C.ar  147  TYR147     -0.0009
     63  CE1      -57.5770  -12.7000   22.5470 C.ar  147  TYR147      0.0417
     64  CE2      -58.2950  -14.3460   24.1480 C.ar  147  TYR147      0.0417
     65  CZ       -58.4180  -13.7180   22.9010 C.ar  147  TYR147      0.1957
     66  OH       -59.3840  -14.1240   21.9890 O.3   147  TYR147     -0.2866
     67  N        -64.0640  -17.9890   31.3860 N.3   171  TYR171     -0.1241
     68  CA       -64.8740  -16.9250   30.8380 C.3   171  TYR171      0.1605
     69  C        -66.3440  -17.3570   30.7720 C.2   171  TYR171      0.2264
     70  O        -66.6530  -18.4310   30.2390 O.2   171  TYR171     -0.2867
     71  CB       -64.3500  -16.5580   29.4440 C.3   171  TYR171      0.0534
     72  CG       -64.9980  -15.3500   28.7860 C.ar  171  TYR171     -0.0201
     73  CD1      -64.5360  -14.0630   29.0500 C.ar  171  TYR171     -0.0009
     74  CD2      -66.0560  -15.4980   27.8770 C.ar  171  TYR171     -0.0009
     75  CE1      -65.1090  -12.9570   28.4450 C.ar  171  TYR171      0.0417
     76  CE2      -66.6470  -14.3990   27.2740 C.ar  171  TYR171      0.0417
     77  CZ       -66.1650  -13.1300   27.5600 C.ar  171  TYR171      0.1957
     78  OH       -66.7170  -12.0180   26.9620 O.3   171  TYR171     -0.2866
     79  N        -69.7480  -16.8030   28.9760 N.3   173  HIS173     -0.1241
     80  CA       -70.2480  -16.2530   27.7100 C.3   173  HIS173      0.1621
     81  C        -71.6010  -15.5730   27.8650 C.2   173  HIS173      0.2264
     82  O        -71.9430  -14.6880   27.0730 O.2   173  HIS173     -0.2867
     83  CB       -70.3020  -17.3170   26.6200 C.3   173  HIS173      0.0745
     84  CG       -68.9590  -17.8760   26.2690 C.ar  173  HIS173      0.0817
     85  ND1      -68.4670  -19.0370   26.8300 N.ar  173  HIS173     -0.2268
     86  CD2      -67.9980  -17.4300   25.4250 C.ar  173  HIS173      0.1154
     87  CE1      -67.2600  -19.2800   26.3470 C.ar  173  HIS173      0.1986
     88  NE2      -66.9540  -18.3210   25.4900 N.ar  173  HIS173     -0.2212
     89  N        -70.6020  -12.2180   29.3960 N.3   176  TYR176     -0.1241
     90  CA       -69.5740  -11.5510   28.5880 C.3   176  TYR176      0.1605
     91  C        -68.4040  -11.0540   29.4040 C.2   176  TYR176      0.2264
     92  O        -67.9150   -9.9410   29.1710 O.2   176  TYR176     -0.2867
     93  CB       -70.1710  -10.3920   27.7890 C.3   176  TYR176      0.0534
     94  CG       -70.9470  -10.8780   26.6060 C.ar  176  TYR176     -0.0201
     95  CD1      -72.2830  -11.2980   26.7420 C.ar  176  TYR176     -0.0009
     96  CD2      -70.3460  -10.9650   25.3440 C.ar  176  TYR176     -0.0009
     97  CE1      -72.9990  -11.7570   25.6470 C.ar  176  TYR176      0.0417
     98  CE2      -71.0540  -11.4300   24.2450 C.ar  176  TYR176      0.0417
     99  CZ       -72.3800  -11.8160   24.3990 C.ar  176  TYR176      0.1957
    100  OH       -73.0860  -12.2880   23.3130 O.3   176  TYR176     -0.2866
    101  N        -59.0510  -17.6690   19.0810 N.3   197  LEU197     -0.1245
    102  CA       -58.7520  -16.8340   17.9060 C.3   197  LEU197      0.1561
    103  C        -57.2700  -16.5150   17.7740 C.2   197  LEU197      0.2260
    104  O        -56.7790  -16.1910   16.6900 O.2   197  LEU197     -0.2867
    105  CB       -59.4380  -15.4630   18.0420 C.3   197  LEU197      0.0270
    106  CG       -60.8770  -15.2890   18.4970 C.3   197  LEU197      0.0019
    107  CD1      -61.2450  -13.8270   18.5940 C.3   197  LEU197      0.0001
    108  CD2      -61.7510  -15.9420   17.4620 C.3   197  LEU197      0.0001
    109  N        -72.6360  -15.4750   11.4390 N.3   229  TYR229     -0.1241
    110  CA       -72.5370  -14.6360   12.6170 C.3   229  TYR229      0.1605
    111  C        -73.8770  -13.9550   12.8450 C.2   229  TYR229      0.2264
    112  O        -74.3610  -13.8580   13.9820 O.2   229  TYR229     -0.2867
    113  CB       -71.4100  -13.6020   12.4700 C.3   229  TYR229      0.0534
    114  CG       -71.3180  -12.7120   13.6650 C.ar  229  TYR229     -0.0201
    115  CD1      -70.6960  -13.1510   14.8320 C.ar  229  TYR229     -0.0009
    116  CD2      -71.8850  -11.4370   13.6600 C.ar  229  TYR229     -0.0009
    117  CE1      -70.6320  -12.3390   15.9530 C.ar  229  TYR229      0.0417
    118  CE2      -71.8220  -10.6160   14.7830 C.ar  229  TYR229      0.0417
    119  CZ       -71.1920  -11.0800   15.9190 C.ar  229  TYR229      0.1957
    120  OH       -71.1100  -10.2930   17.0300 O.3   229  TYR229     -0.2866
    121  N        -76.5480  -16.4020   13.9890 N.3   232  ARG232     -0.1231
    122  CA       -76.2540  -16.7190   15.3800 C.3   232  ARG232      0.1694
    123  C        -76.7560  -15.6010   16.2680 C.2   232  ARG232      0.2592
    124  O        -77.3790  -15.8460   17.2720 O.2   232  ARG232     -0.2718
    125  CB       -74.7510  -16.8870   15.5540 C.3   232  ARG232      0.0321
    126  CG       -74.3620  -17.4900   16.8780 C.3   232  ARG232      0.0489
    127  CD       -72.8780  -17.7440   16.9280 C.3   232  ARG232      0.2205
    128  NE       -72.1530  -16.5890   17.4290 N.pl3 232  ARG232     -0.0865
    129  CZ       -70.9070  -16.6310   17.8730 C.cat 232  ARG232      0.5346
    130  NH1      -70.2350  -17.7870   17.8800 N.pl3 232  ARG232      0.1354
    131  NH2      -70.3470  -15.5140   18.3280 N.pl3 232  ARG232      0.1354
    132  N        -76.5190  -14.3670   15.8490 N.am  233  PHE233     -0.1976
    133  CA       -76.9170  -13.2040   16.6010 C.3   233  PHE233      0.1639
    134  C        -78.4320  -13.1930   16.8360 C.2   233  PHE233      0.2290
    135  O        -78.8900  -13.0790   18.0030 O.2   233  PHE233     -0.2864
    136  CB       -76.4880  -11.9710   15.8330 C.3   233  PHE233      0.0560
    137  CG       -76.6080  -10.6860   16.6080 C.ar  233  PHE233     -0.0200
    138  CD1      -77.7870   -9.9470   16.5770 C.ar  233  PHE233     -0.0042
    139  CD2      -75.5250  -10.1900   17.3150 C.ar  233  PHE233     -0.0042
    140  CE1      -77.8950   -8.7550   17.2490 C.ar  233  PHE233     -0.0003
    141  CE2      -75.6180   -9.0010   18.0070 C.ar  233  PHE233     -0.0003
    142  CZ       -76.8030   -8.2770   17.9710 C.ar  233  PHE233     -0.0000
    143  N        -79.5410  -15.6820   19.3030 N.3   236  MET236     -0.1245
    144  CA       -79.2010  -15.3290   20.6780 C.3   236  MET236      0.1570
    145  C        -80.2480  -14.4830   21.4250 C.2   236  MET236      0.2261
    146  O        -80.1570  -14.2970   22.6480 O.2   236  MET236     -0.2867
    147  CB       -77.8420  -14.6400   20.7190 C.3   236  MET236      0.0387
    148  CG       -76.6810  -15.5710   20.3950 C.3   236  MET236      0.0595
    149  SD       -75.1060  -14.7150   20.2600 S.3   236  MET236     -0.1393
    150  CE       -74.7920  -14.3900   21.9910 C.3   236  MET236      0.0692
    151  N        -79.2640  -13.1240   25.2210 N.3   241  PHE241     -0.1241
    152  CA       -79.8600  -11.7890   25.3750 C.3   241  PHE241      0.1605
    153  C        -81.1760  -11.7730   26.1710 C.2   241  PHE241      0.2264
    154  O        -81.5270  -10.7590   26.7730 O.2   241  PHE241     -0.2867
    155  CB       -80.1170  -11.1180   24.0160 C.3   241  PHE241      0.0534
    156  CG       -78.9140  -11.0410   23.0930 C.ar  241  PHE241     -0.0203
    157  CD1      -77.6130  -10.9530   23.5840 C.ar  241  PHE241     -0.0042
    158  CD2      -79.1070  -11.0000   21.6990 C.ar  241  PHE241     -0.0042
    159  CE1      -76.5400  -10.8530   22.7020 C.ar  241  PHE241     -0.0003
    160  CE2      -78.0360  -10.9030   20.8260 C.ar  241  PHE241     -0.0003
    161  CZ       -76.7540  -10.8310   21.3270 C.ar  241  PHE241     -0.0000
    162  N        -76.3520   -7.3710   27.3300 N.3   248  PHE248     -0.1241
    163  CA       -76.8520   -7.2440   25.9730 C.3   248  PHE248      0.1605
    164  C        -78.3350   -7.5450   25.8290 C.2   248  PHE248      0.2264
    165  O        -78.8360   -7.8730   24.7440 O.2   248  PHE248     -0.2867
    166  CB       -75.9140   -7.9490   25.0010 C.3   248  PHE248      0.0534
    167  CG       -74.5190   -7.4170   25.0970 C.ar  248  PHE248     -0.0203
    168  CD1      -74.2200   -6.1400   24.6130 C.ar  248  PHE248     -0.0042
    169  CD2      -73.5260   -8.1260   25.7760 C.ar  248  PHE248     -0.0042
    170  CE1      -72.9360   -5.6130   24.7450 C.ar  248  PHE248     -0.0003
    171  CE2      -72.2410   -7.6080   25.9110 C.ar  248  PHE248     -0.0003
    172  CZ       -71.9440   -6.3530   25.3960 C.ar  248  PHE248     -0.0000
    173  N        -80.6870   -6.0650   23.0190 N.3   251  TYR251     -0.1241
    174  CA       -80.7550   -6.6900   21.6830 C.3   251  TYR251      0.1605
    175  C        -81.9060   -7.6880   21.5660 C.2   251  TYR251      0.2264
    176  O        -82.3290   -8.0180   20.4510 O.2   251  TYR251     -0.2867
    177  CB       -79.4260   -7.3320   21.2510 C.3   251  TYR251      0.0534
    178  CG       -78.4020   -6.2980   20.8250 C.ar  251  TYR251     -0.0201
    179  CD1      -78.6810   -5.4080   19.7790 C.ar  251  TYR251     -0.0009
    180  CD2      -77.1740   -6.1670   21.5010 C.ar  251  TYR251     -0.0009
    181  CE1      -77.7610   -4.4370   19.4060 C.ar  251  TYR251      0.0417
    182  CE2      -76.2470   -5.2090   21.1350 C.ar  251  TYR251      0.0417
    183  CZ       -76.5480   -4.3460   20.0890 C.ar  251  TYR251      0.1957
    184  OH       -75.6670   -3.3730   19.7280 O.3   251  TYR251     -0.2866
    185  N        -71.7150   -4.9180   14.1170 N.3   266  ILE266     -0.1245
    186  CA       -70.7640   -5.5390   15.0380 C.3   266  ILE266      0.1561
    187  C        -69.7620   -6.4120   14.2580 C.2   266  ILE266      0.2260
    188  O        -68.5670   -6.3430   14.4890 O.2   266  ILE266     -0.2867
    189  CB       -71.4900   -6.2600   16.2000 C.3   266  ILE266      0.0252
    190  CG1      -72.3290   -5.2180   16.9420 C.3   266  ILE266      0.0019
    191  CG2      -70.4960   -6.8930   17.1760 C.3   266  ILE266      0.0019
    192  CD1      -73.2240   -5.7560   18.0240 C.3   266  ILE266      0.0001
    193  N        -65.9090   -5.0220   14.6350 N.3   270  ILE270     -0.1231
    194  CA       -65.0630   -5.7720   15.5890 C.3   270  ILE270      0.1692
    195  C        -64.4860   -7.0480   14.9760 C.2   270  ILE270      0.2592
    196  O        -63.2890   -7.1190   14.6940 O.2   270  ILE270     -0.2718
    197  CB       -65.7750   -5.9980   16.9570 C.3   270  ILE270      0.0266
    198  CG1      -66.1800   -4.6570   17.5620 C.3   270  ILE270      0.0019
    199  CG2      -64.8900   -6.7370   17.9540 C.3   270  ILE270      0.0020
    200  CD1      -67.3160   -4.8130   18.5610 C.3   270  ILE270      0.0001
    201  N        -65.3190   -8.0340   14.6850 N.am  271  ASN271     -0.1974
    202  CA       -64.8020   -9.3370   14.2100 C.3   271  ASN271      0.1688
    203  C        -64.1740   -9.4430   12.8110 C.2   271  ASN271      0.2292
    204  O        -63.1400  -10.1090   12.6320 O.2   271  ASN271     -0.2864
    205  CB       -65.8640  -10.4040   14.4010 C.3   271  ASN271      0.1181
    206  CG       -66.3930  -10.4270   15.8250 C.2   271  ASN271      0.2629
    207  OD1      -65.6350  -10.1980   16.7950 O.2   271  ASN271     -0.2716
    208  ND2      -67.6920  -10.6740   15.9590 N.am  271  ASN271     -0.0877
@<TRIPOS>BOND
     1   109   110    1
     2   113   110    1
     3   113   114    1
     4   110   111    1
     5   204   203    2
     6   203   202    1
     7   111   112    2
     8     4     3    2
     9   116   114   ar
    10   116   118   ar
    11   114   115   ar
    12   121   122    1
    13   185   186    1
    14   202   205    1
    15   202   201    1
    16   187   188    2
    17   187   186    1
    18   205   206    1
    19     3     2    1
    20   193   194    1
    21   201   195   am
    22   196   195    2
    23     1     2    1
    24   118   119   ar
    25   115   117   ar
    26   195   194    1
    27   186   189    1
    28   122   125    1
    29   122   123    1
    30     2     5    1
    31   125   126    1
    32   194   197    1
    33   206   208   am
    34   206   207    2
    35   136   133    1
    36   136   137    1
    37   132   123   am
    38   132   133    1
    39   119   117   ar
    40   119   120    1
    41     5     6    1
    42     5     7    1
    43   189   190    1
    44   189   191    1
    45   123   124    2
    46   138   137   ar
    47   138   140   ar
    48   133   134    1
    49   137   139   ar
    50   104   103    2
    51   134   135    2
    52   126   127    1
    53   127   128    1
    54   190   192    1
    55   197   198    1
    56   197   199    1
    57   140   142   ar
    58   139   141   ar
    59   128   129    2
    60   108   106    1
    61   198   200    1
    62   103   102    1
    63   129   130    1
    64   129   131    1
    65   102   105    1
    66   102   101    1
    67   142   141   ar
    68   105   106    1
    69   106   107    1
    70   143   144    1
    71    54    53    2
    72    38    40   ar
    73    38    37   ar
    74   181   179   ar
    75   181   183   ar
    76    40    41   ar
    77    35    34    2
    78   184   183    1
    79   179   178   ar
    80    53    52    1
    81   183   182   ar
    82   149   148    1
    83   149   150    1
    84   148   147    1
    85   176   175    2
    86    37    36    1
    87    37    39   ar
    88    45    44    2
    89   144   147    1
    90   144   145    1
    91    36    33    1
    92    34    33    1
    93   178   177    1
    94   178   180   ar
    95   160   161   ar
    96   160   158   ar
    97    41    39   ar
    98    52    51    1
    99   182   180   ar
   100   177   174    1
   101   161   159   ar
   102   145   146    2
   103    33    32    1
   104   175   174    1
   105   174   173    1
   106   158   156   ar
   107    44    51   am
   108    44    43    1
   109    66    65    1
   110    42    43    1
   111    63    65   ar
   112    63    61   ar
   113   159   157   ar
   114    43    46    1
   115    32    26   am
   116    65    64   ar
   117   156   157   ar
   118   156   155    1
   119   100    99    1
   120    61    60   ar
   121    27    26    2
   122    46    47    1
   123    14    13   ar
   124    26    25    1
   125   155   152    1
   126    64    62   ar
   127    15    13   ar
   128    98    99   ar
   129    98    96   ar
   130    47    48    1
   131    99    97   ar
   132    13    12    1
   133   168   170   ar
   134   168   167   ar
   135    60    62   ar
   136    60    59    1
   137   165   164    2
   138   170   172   ar
   139   166   167    1
   140   166   163    1
   141    48    49    1
   142   167   169   ar
   143    25    24    1
   144    25    28    1
   145   151   152    1
   146    96    94   ar
   147   152   153    1
   148   172   171   ar
   149    86    88   ar
   150    86    84   ar
   151    23    21    1
   152    88    87   ar
   153    55    56    1
   154    59    56    1
   155    97    95   ar
   156     8     9    1
   157   169   171   ar
   158   164   163    1
   159    28    29    1
   160   163   162    1
   161    12     9    1
   162    22    21    1
   163   153   154    2
   164     9    10    1
   165    84    83    1
   166    84    85   ar
   167    87    85   ar
   168    21    20    1
   169    56    57    1
   170    49    50    1
   171    94    95   ar
   172    94    93    1
   173    83    80    1
   174    58    57    2
   175    78    77    1
   176    82    81    2
   177    76    77   ar
   178    76    74   ar
   179    29    30    1
   180    77    75   ar
   181    80    81    1
   182    80    79    1
   183    10    11    2
   184    93    90    1
   185    20    17    1
   186    74    72   ar
   187    31    30    1
   188    17    16    1
   189    17    18    1
   190    75    73   ar
   191    90    89    1
   192    90    91    1
   193    72    73   ar
   194    72    71    1
   195    92    91    2
   196    71    68    1
   197    18    19    2
   198    70    69    2
   199    69    68    1
   200    68    67    1
