@<TRIPOS>MOLECULE
tmp/4bg1A01.pdb
 135 132 0 0 0
SMALL
GASTEIGER

@<TRIPOS>ATOM
      1  N         26.5120   33.4980   93.7470 N.3   177  TYR177     -0.1241
      2  CA        26.6090   34.3170   92.5320 C.3   177  TYR177      0.1605
      3  C         26.3870   35.8080   92.8030 C.2   177  TYR177      0.2264
      4  O         26.4140   36.6090   91.8710 O.2   177  TYR177     -0.2867
      5  CB        25.6120   33.8190   91.4740 C.3   177  TYR177      0.0534
      6  CG        26.0220   32.5000   90.8630 C.ar  177  TYR177     -0.0201
      7  CD1       26.9780   32.4470   89.8270 C.ar  177  TYR177     -0.0009
      8  CD2       25.5060   31.3010   91.3390 C.ar  177  TYR177     -0.0009
      9  CE1       27.3610   31.2290   89.2620 C.ar  177  TYR177      0.0417
     10  CE2       25.9050   30.0850   90.8110 C.ar  177  TYR177      0.0417
     11  CZ        26.8260   30.0570   89.7610 C.ar  177  TYR177      0.1957
     12  OH        27.2250   28.8620   89.2350 O.3   177  TYR177     -0.2866
     13  N         23.2430   39.4750   90.1470 N.3   181  TRP181     -0.1241
     14  CA        24.1740   38.8710   89.1990 C.3   181  TRP181      0.1605
     15  C         23.8700   39.3230   87.7760 C.2   181  TRP181      0.2264
     16  O         22.7250   39.6800   87.4540 O.2   181  TRP181     -0.2867
     17  CB        24.1840   37.3260   89.3100 C.3   181  TRP181      0.0550
     18  CG        22.9290   36.7470   89.8440 C.ar  181  TRP181      0.0003
     19  CD1       22.6560   36.4460   91.1440 C.ar  181  TRP181      0.0946
     20  CD2       21.7620   36.3760   89.0940 C.ar  181  TRP181      0.0152
     21  NE1       21.3900   35.9240   91.2530 N.ar  181  TRP181     -0.2442
     22  CE2       20.8080   35.8920   90.0180 C.ar  181  TRP181      0.0810
     23  CE3       21.4190   36.4360   87.7420 C.ar  181  TRP181      0.0012
     24  CZ2       19.5510   35.4420   89.6260 C.ar  181  TRP181      0.0191
     25  CZ3       20.1690   35.9880   87.3580 C.ar  181  TRP181      0.0001
     26  CH2       19.2510   35.4950   88.3060 C.ar  181  TRP181      0.0015
     27  N         23.5830   38.5580   83.8890 N.3   183  VAL183     -0.1245
     28  CA        23.4460   37.5590   82.8370 C.3   183  VAL183      0.1561
     29  C         23.9480   38.1520   81.5290 C.2   183  VAL183      0.2260
     30  O         23.2800   38.9770   80.9270 O.2   183  VAL183     -0.2867
     31  CB        21.9950   37.0340   82.6970 C.3   183  VAL183      0.0252
     32  CG1       21.9360   35.8580   81.7430 C.3   183  VAL183      0.0019
     33  CG2       21.4260   36.6500   84.0530 C.3   183  VAL183      0.0019
     34  N         29.0270   29.3340   84.5150 N.3   191  ASN191     -0.1240
     35  CA        27.6420   28.8530   84.4600 C.3   191  ASN191      0.1653
     36  C         27.1770   28.9300   83.0140 C.2   191  ASN191      0.2266
     37  O         27.5050   29.9020   82.3100 O.2   191  ASN191     -0.2867
     38  CB        26.7550   29.7320   85.3660 C.3   191  ASN191      0.1155
     39  CG        25.3930   29.1130   85.6560 C.2   191  ASN191      0.2627
     40  OD1       24.5040   29.0950   84.8070 O.2   191  ASN191     -0.2716
     41  ND2       25.2230   28.6230   86.8710 N.am  191  ASN191     -0.0877
     42  N         24.4600   29.8190   81.8550 N.3   193  ALA193     -0.1231
     43  CA        23.6620   31.0260   81.6530 C.3   193  ALA193      0.1694
     44  C         24.5000   32.1870   81.1420 C.2   193  ALA193      0.2592
     45  O         24.0020   33.0770   80.4320 O.2   193  ALA193     -0.2718
     46  CB        22.9480   31.4090   82.9460 C.3   193  ALA193      0.0304
     47  N         25.7830   32.1650   81.4820 N.am  194  TYR194     -0.1976
     48  CA        26.7050   33.2300   81.1190 C.3   194  TYR194      0.1639
     49  C         27.3990   32.9470   79.7670 C.2   194  TYR194      0.2290
     50  O         28.5730   33.2550   79.5820 O.2   194  TYR194     -0.2864
     51  CB        27.7330   33.4510   82.2360 C.3   194  TYR194      0.0560
     52  CG        27.1740   33.8730   83.5890 C.ar  194  TYR194     -0.0198
     53  CD1       25.9680   34.5810   83.6990 C.ar  194  TYR194     -0.0009
     54  CD2       27.8890   33.6310   84.7580 C.ar  194  TYR194     -0.0009
     55  CE1       25.4810   34.9730   84.9280 C.ar  194  TYR194      0.0417
     56  CE2       27.4030   34.0250   86.0040 C.ar  194  TYR194      0.0417
     57  CZ        26.2040   34.6980   86.0760 C.ar  194  TYR194      0.1957
     58  OH        25.7200   35.1010   87.2850 O.3   194  TYR194     -0.2866
     59  N         14.3180   25.1320   82.8520 N.3   202  HIS202     -0.1241
     60  CA        14.9100   24.7760   84.1410 C.3   202  HIS202      0.1621
     61  C         14.3160   25.6510   85.2540 C.2   202  HIS202      0.2264
     62  O         13.7450   26.7060   84.9830 O.2   202  HIS202     -0.2867
     63  CB        16.4180   25.0000   84.1060 C.3   202  HIS202      0.0745
     64  CG        16.8120   26.4300   83.9060 C.ar  202  HIS202      0.0817
     65  ND1       16.6910   27.0630   82.6970 N.ar  202  HIS202     -0.2268
     66  CD2       17.2900   27.3550   84.7720 C.ar  202  HIS202      0.1154
     67  CE1       17.1080   28.3150   82.8100 C.ar  202  HIS202      0.1986
     68  NE2       17.4800   28.5130   84.0610 N.ar  202  HIS202     -0.2212
     69  N         15.9230   27.5830   88.7080 N.3   204  ASP204     -0.1225
     70  CA        17.2510   28.0090   89.1610 C.3   204  ASP204      0.1805
     71  C         17.6490   27.3950   90.4900 C.2   204  ASP204      0.2598
     72  O         16.8660   27.3310   91.4390 O.2   204  ASP204     -0.2718
     73  CB        17.3480   29.5210   89.2880 C.3   204  ASP204      0.1424
     74  CG        17.7530   30.2090   88.0050 C.2   204  ASP204      0.3668
     75  OD1       17.5510   29.6390   86.9100 O.co2 204  ASP204     -0.2456
     76  OD2       18.3000   31.3420   88.1060 O.co2 204  ASP204     -0.2456
     77  N         18.8970   26.9510   90.5300 N.am  205  TYR205     -0.1963
     78  CA        19.6240   26.6440   91.7450 C.3   205  TYR205      0.1756
     79  C         19.1430   25.3970   92.4800 C.2   205  TYR205      0.2461
     80  O         19.1180   25.3740   93.7020 O.2   205  TYR205     -0.2730
     81  CB        19.6670   27.8650   92.6830 C.3   205  TYR205      0.0574
     82  CG        21.0760   28.3340   93.0560 C.ar  205  TYR205     -0.0198
     83  CD1       22.0990   27.4270   93.3440 C.ar  205  TYR205     -0.0009
     84  CD2       21.3720   29.6940   93.1350 C.ar  205  TYR205     -0.0009
     85  CE1       23.3680   27.8660   93.6780 C.ar  205  TYR205      0.0417
     86  CE2       22.6210   30.1370   93.5010 C.ar  205  TYR205      0.0417
     87  CZ        23.6200   29.2160   93.7740 C.ar  205  TYR205      0.1957
     88  OH        24.8750   29.6640   94.1210 O.3   205  TYR205     -0.2866
     89  N         18.8190   24.3150   91.7460 N.am  206  PRO206     -0.2716
     90  CA        18.5320   23.0870   92.5050 C.3   206  PRO206      0.1536
     91  C         19.7350   22.4960   93.2310 C.2   206  PRO206      0.2598
     92  O         19.5570   21.6020   94.0490 O.2   206  PRO206     -0.2715
     93  CB        18.0110   22.1110   91.4430 C.3   206  PRO206      0.0310
     94  CG        18.5830   22.6260   90.1750 C.3   206  PRO206      0.0237
     95  CD        18.5640   24.1320   90.3170 C.3   206  PRO206      0.0939
     96  N         20.9320   23.0070   92.9530 N.am  207  ALA207     -0.1978
     97  CA        22.1330   22.6340   93.7020 C.3   207  ALA207      0.1597
     98  C         22.0540   23.0560   95.1750 C.2   207  ALA207      0.2287
     99  O         22.8490   22.6050   95.9850 O.2   207  ALA207     -0.2864
    100  CB        23.3830   23.2440   93.0490 C.3   207  ALA207      0.0319
    101  N         27.4160   22.1790   91.7870 N.3   261  ASP261     -0.1239
    102  CA        27.9200   23.4280   91.2330 C.3   261  ASP261      0.1674
    103  C         29.2360   23.7430   91.9340 C.2   261  ASP261      0.2266
    104  O         29.2730   23.8990   93.1580 O.2   261  ASP261     -0.2867
    105  CB        26.9260   24.5580   91.4800 C.3   261  ASP261      0.1410
    106  CG        27.1330   25.7700   90.5730 C.2   261  ASP261      0.3668
    107  OD1       27.7660   25.6450   89.4880 O.co2 261  ASP261     -0.2456
    108  OD2       26.6250   26.8650   90.9540 O.co2 261  ASP261     -0.2456
    109  N         17.3920   21.5720   86.8910 N.3   292  ASN292     -0.1240
    110  CA        18.2410   22.2910   85.9490 C.3   292  ASN292      0.1653
    111  C         19.1810   21.2610   85.3070 C.2   292  ASN292      0.2266
    112  O         19.9860   20.6790   85.9940 O.2   292  ASN292     -0.2867
    113  CB        19.0720   23.3470   86.6480 C.3   292  ASN292      0.1155
    114  CG        19.9010   24.1740   85.6750 C.2   292  ASN292      0.2627
    115  OD1       20.0220   23.8300   84.4930 O.2   292  ASN292     -0.2716
    116  ND2       20.4980   25.2560   86.1600 N.am  292  ASN292     -0.0877
    117  N         23.1350   21.5760   85.7990 N.3   295  THR295     -0.1218
    118  CA        23.7400   21.3250   87.1000 C.3   295  THR295      0.1862
    119  C         23.3790   19.9690   87.6730 C.2   295  THR295      0.2287
    120  O         23.8520   19.6090   88.7510 O.2   295  THR295     -0.2866
    121  CB        23.3670   22.4280   88.1200 C.3   295  THR295      0.1770
    122  OG1       21.9510   22.4460   88.3410 O.3   295  THR295     -0.2211
    123  CG2       23.8120   23.7650   87.6110 C.3   295  THR295      0.0375
    124  N         17.2600   36.9570   93.6510 N.3   366  TYR366     -0.1241
    125  CA        16.3170   36.0190   94.2340 C.3   366  TYR366      0.1605
    126  C         15.7300   36.5940   95.5280 C.2   366  TYR366      0.2264
    127  O         16.3480   37.4420   96.1730 O.2   366  TYR366     -0.2867
    128  CB        17.0290   34.6980   94.5940 C.3   366  TYR366      0.0534
    129  CG        17.6990   33.9790   93.4390 C.ar  366  TYR366     -0.0201
    130  CD1       16.9470   33.5030   92.3700 C.ar  366  TYR366     -0.0009
    131  CD2       19.0710   33.7130   93.4500 C.ar  366  TYR366     -0.0009
    132  CE1       17.5390   32.8330   91.3110 C.ar  366  TYR366      0.0417
    133  CE2       19.6800   33.0390   92.3870 C.ar  366  TYR366      0.0417
    134  CZ        18.8980   32.5820   91.3310 C.ar  366  TYR366      0.1957
    135  OH        19.4590   31.9120   90.2470 O.3   366  TYR366     -0.2866
@<TRIPOS>BOND
     1    50    49    2
     2    49    48    1
     3    45    44    2
     4    30    29    2
     5    48    47    1
     6    48    51    1
     7    44    47   am
     8    44    43    1
     9    29    28    1
    10    43    42    1
    11    43    46    1
    12    32    31    1
    13    51    52    1
    14    37    36    2
    15    31    28    1
    16    31    33    1
    17    65    67   ar
    18    65    64   ar
    19    67    68   ar
    20    28    27    1
    21    59    60    1
    22    36    35    1
    23    52    53   ar
    24    52    54   ar
    25    53    55   ar
    26    64    63    1
    27    64    66   ar
    28    68    66   ar
    29    63    60    1
    30    60    61    1
    31    35    34    1
    32    35    38    1
    33   115   114    2
    34    54    56   ar
    35    40    39    2
    36    55    57   ar
    37    62    61    2
    38   111   110    1
    39   111   112    2
    40    38    39    1
    41    39    41   am
    42   114   116   am
    43   114   113    1
    44   117   118    1
    45   110   113    1
    46   110   109    1
    47    56    57   ar
    48    57    58    1
    49    75    74   ar
    50   118   119    1
    51   118   121    1
    52    25    23   ar
    53    25    26   ar
    54    16    15    2
    55   123   121    1
    56   119   120    2
    57    23    20   ar
    58    15    14    1
    59    74    76   ar
    60    74    73    1
    61   121   122    1
    62    26    24   ar
    63    69    70    1
    64    20    18   ar
    65    20    22   ar
    66    70    73    1
    67    70    71    1
    68    14    17    1
    69    14    13    1
    70    12    11    1
    71     9    11   ar
    72     9     7   ar
    73    17    18    1
    74   107   106   ar
    75    24    22   ar
    76    11    10   ar
    77     7     6   ar
    78    18    19   ar
    79    22    21   ar
    80    94    95    1
    81    94    93    1
    82   135   134    1
    83    95    89    1
    84    71    77   am
    85    71    72    2
    86    77    78    1
    87   106   108   ar
    88   106   105    1
    89    10     8   ar
    90     6     8   ar
    91     6     5    1
    92    19    21   ar
    93   102   105    1
    94   102   101    1
    95   102   103    1
    96   132   134   ar
    97   132   130   ar
    98   134   133   ar
    99    93    90    1
   100     5     2    1
   101    78    79    1
   102    78    81    1
   103    89    79   am
   104    89    90    1
   105     4     3    2
   106   103   104    2
   107   130   129   ar
   108   133   131   ar
   109    79    80    2
   110    90    91    1
   111     2     3    1
   112     2     1    1
   113    81    82    1
   114    96    91   am
   115    96    97    1
   116   100    97    1
   117    82    84   ar
   118    82    83   ar
   119    84    86   ar
   120    91    92    2
   121    83    85   ar
   122   129   131   ar
   123   129   128    1
   124    86    87   ar
   125   124   125    1
   126    85    87   ar
   127    97    98    1
   128    87    88    1
   129   125   128    1
   130   125   126    1
   131    98    99    2
   132   126   127    2
