@<TRIPOS>MOLECULE
tmp/4bg4A00.pdb
 207 198 0 0 0
SMALL
GASTEIGER

@<TRIPOS>ATOM
      1  N         26.7050   13.7120   21.5290 N.3   122  SER122     -0.1202
      2  CA        27.1780   12.4360   21.0070 C.3   122  SER122      0.2020
      3  C         27.1380   12.4360   19.4890 C.2   122  SER122      0.2619
      4  O         26.3690   13.1780   18.8730 O.2   122  SER122     -0.2717
      5  CB        26.3120   11.2980   21.5510 C.3   122  SER122      0.2103
      6  OG        24.9290   11.5810   21.3650 O.3   122  SER122     -0.2182
      7  N         27.9630   11.5710   18.9030 N.am  123  THR123     -0.1938
      8  CA        28.1560   11.4930   17.4590 C.3   123  THR123      0.2028
      9  C         27.9410   10.0410   17.0450 C.2   123  THR123      0.2642
     10  O         28.3730    9.1230   17.7480 O.2   123  THR123     -0.2714
     11  CB        29.5770   11.9570   17.0920 C.3   123  THR123      0.1808
     12  OG1       29.7800   13.2940   17.5820 O.3   123  THR123     -0.2208
     13  CG2       29.7840   11.9200   15.5880 C.3   123  THR123      0.0379
     14  N         27.2790    9.8310   15.9090 N.am  124  ARG124     -0.1977
     15  CA        26.8890    8.4960   15.4880 C.3   124  ARG124      0.1597
     16  C         26.9440    8.4310   13.9740 C.2   124  ARG124      0.2287
     17  O         26.5020    9.3510   13.2970 O.2   124  ARG124     -0.2864
     18  CB        25.4600    8.2370   15.9440 C.3   124  ARG124      0.0334
     19  CG        24.8810    6.8800   15.5570 C.3   124  ARG124      0.0492
     20  CD        23.5640    6.7770   16.2810 C.3   124  ARG124      0.2205
     21  NE        22.8050    5.5430   16.1460 N.pl3 124  ARG124     -0.0865
     22  CZ        21.8910    5.3050   15.2160 C.cat 124  ARG124      0.5346
     23  NH1       21.6500    6.1700   14.2370 N.pl3 124  ARG124      0.1354
     24  NH2       21.2250    4.1520   15.2660 N.pl3 124  ARG124      0.1354
     25  N         25.7690    5.4940   11.0430 N.3   126  ARG126     -0.1245
     26  CA        25.2730    4.1620   10.7180 C.3   126  ARG126      0.1563
     27  C         25.2390    3.9160    9.2260 C.2   126  ARG126      0.2260
     28  O         25.1790    4.8590    8.4190 O.2   126  ARG126     -0.2867
     29  CB        23.8880    3.9130   11.3330 C.3   126  ARG126      0.0307
     30  CG        22.7560    4.8170   10.8430 C.3   126  ARG126      0.0489
     31  CD        22.1330    4.3450    9.5170 C.3   126  ARG126      0.2205
     32  NE        20.8140    4.9500    9.3440 N.pl3 126  ARG126     -0.0865
     33  CZ        20.2260    5.1820    8.1750 C.cat 126  ARG126      0.5346
     34  NH1       20.8360    4.8730    7.0310 N.pl3 126  ARG126      0.1354
     35  NH2       19.0200    5.7350    8.1470 N.pl3 126  ARG126      0.1354
     36  N         16.5840    1.3760   24.5930 N.3   182  ILE182     -0.1245
     37  CA        15.8980    2.2850   23.6870 C.3   182  ILE182      0.1561
     38  C         16.0150    3.7190   24.1790 C.2   182  ILE182      0.2260
     39  O         16.3970    4.6080   23.4150 O.2   182  ILE182     -0.2867
     40  CB        14.4290    1.9030   23.4970 C.3   182  ILE182      0.0252
     41  CG1       14.3310    0.5170   22.8620 C.3   182  ILE182      0.0019
     42  CG2       13.7370    2.9230   22.6040 C.3   182  ILE182      0.0019
     43  CD1       12.9050   -0.0530   22.8360 C.3   182  ILE182      0.0001
     44  N         19.2260    5.3840   23.5640 N.3   185  HIS185     -0.1241
     45  CA        19.4750    5.7000   22.1550 C.3   185  HIS185      0.1621
     46  C         20.2760    4.6310   21.4040 C.2   185  HIS185      0.2264
     47  O         20.8330    4.9000   20.3300 O.2   185  HIS185     -0.2867
     48  CB        20.1420    7.0690   21.9990 C.3   185  HIS185      0.0745
     49  CG        19.5190    8.1510   22.8350 C.ar  185  HIS185      0.0817
     50  ND1       18.1730    8.4290   22.8030 N.ar  185  HIS185     -0.2268
     51  CD2       20.0710    9.0350   23.7010 C.ar  185  HIS185      0.1154
     52  CE1       17.9140    9.4290   23.6290 C.ar  185  HIS185      0.1986
     53  NE2       19.0450    9.8150   24.1880 N.ar  185  HIS185     -0.2212
     54  N         19.1370    1.0040   21.0200 N.3   187  LEU187     -0.1231
     55  CA        18.3120   -0.0370   20.4110 C.3   187  LEU187      0.1693
     56  C         17.1480    0.5830   19.6770 C.2   187  LEU187      0.2592
     57  O         16.6250    1.6030   20.1050 O.2   187  LEU187     -0.2718
     58  CB        17.7840   -0.9750   21.5050 C.3   187  LEU187      0.0284
     59  CG        16.8000   -2.1000   21.1400 C.3   187  LEU187      0.0019
     60  CD1       17.4350   -3.0780   20.1620 C.3   187  LEU187      0.0001
     61  CD2       16.3670   -2.8060   22.4010 C.3   187  LEU187      0.0001
     62  N         16.7460   -0.0420   18.5760 N.am  188  PHE188     -0.1976
     63  CA        15.6010    0.4360   17.7880 C.3   188  PHE188      0.1639
     64  C         14.2980    0.3540   18.5620 C.2   188  PHE188      0.2290
     65  O         14.1410   -0.5020   19.4290 O.2   188  PHE188     -0.2864
     66  CB        15.4750   -0.3510   16.4640 C.3   188  PHE188      0.0560
     67  CG        15.5770   -1.8510   16.6230 C.ar  188  PHE188     -0.0200
     68  CD1       14.4500   -2.6220   16.8800 C.ar  188  PHE188     -0.0042
     69  CD2       16.8110   -2.4970   16.4920 C.ar  188  PHE188     -0.0042
     70  CE1       14.5610   -4.0120   17.0120 C.ar  188  PHE188     -0.0003
     71  CE2       16.9300   -3.8560   16.6220 C.ar  188  PHE188     -0.0003
     72  CZ        15.8030   -4.6300   16.8810 C.ar  188  PHE188     -0.0000
     73  N         22.1360   -3.6670   14.6190 N.3   220  TRP220     -0.1241
     74  CA        20.7230   -4.0370   14.7010 C.3   220  TRP220      0.1605
     75  C         20.4100   -5.1360   13.7020 C.2   220  TRP220      0.2264
     76  O         20.7680   -5.0400   12.5180 O.2   220  TRP220     -0.2867
     77  CB        19.8220   -2.8680   14.3250 C.3   220  TRP220      0.0550
     78  CG        19.8300   -1.7080   15.2460 C.ar  220  TRP220      0.0003
     79  CD1       20.4270   -1.6160   16.4640 C.ar  220  TRP220      0.0946
     80  CD2       19.1610   -0.4630   15.0220 C.ar  220  TRP220      0.0152
     81  NE1       20.1730   -0.3860   17.0190 N.ar  220  TRP220     -0.2442
     82  CE2       19.4170    0.3490   16.1430 C.ar  220  TRP220      0.0810
     83  CE3       18.3990    0.0520   13.9700 C.ar  220  TRP220      0.0012
     84  CZ2       18.9150    1.6500   16.2540 C.ar  220  TRP220      0.0191
     85  CZ3       17.8950    1.3490   14.0820 C.ar  220  TRP220      0.0001
     86  CH2       18.1680    2.1350   15.2050 C.ar  220  TRP220      0.0015
     87  N         15.4800   -5.0850   12.0420 N.3   223  GLU223     -0.1231
     88  CA        14.5230   -4.0080   12.2160 C.3   223  GLU223      0.1699
     89  C         14.0700   -3.6010   10.8160 C.2   223  GLU223      0.2592
     90  O         13.5230   -4.4280   10.0710 O.2   223  GLU223     -0.2718
     91  CB        15.1400   -2.8110   12.9620 C.3   223  GLU223      0.0402
     92  CG        14.1030   -1.7670   13.4240 C.3   223  GLU223      0.1161
     93  CD        14.4540   -0.3470   12.9920 C.2   223  GLU223      0.3649
     94  OE1       15.2650   -0.1850   12.0480 O.co2 223  GLU223     -0.2457
     95  OE2       13.9190    0.6160   13.5940 O.co2 223  GLU223     -0.2457
     96  N         14.3020   -2.3490   10.4440 N.am  224  GLU224     -0.1979
     97  CA        13.9000   -1.8670    9.1200 C.3   224  GLU224      0.1602
     98  C         14.6830   -2.5610    7.9970 C.2   224  GLU224      0.2287
     99  O         14.1230   -2.9180    6.9630 O.2   224  GLU224     -0.2864
    100  CB        14.0450   -0.3450    9.0470 C.3   224  GLU224      0.0415
    101  CG        13.7050    0.2270    7.6860 C.3   224  GLU224      0.1163
    102  CD        13.7330    1.7370    7.6870 C.2   224  GLU224      0.3649
    103  OE1       13.3860    2.3340    8.7220 O.co2 224  GLU224     -0.2457
    104  OE2       14.0960    2.3370    6.6510 O.co2 224  GLU224     -0.2457
    105  N         21.6860   -3.0020   10.4910 N.3   228  ARG228     -0.1245
    106  CA        22.1840   -1.6320   10.6440 C.3   228  ARG228      0.1563
    107  C         23.4830   -1.7440   11.4190 C.2   228  ARG228      0.2260
    108  O         23.5240   -2.3070   12.5110 O.2   228  ARG228     -0.2867
    109  CB        21.1880   -0.7160   11.3640 C.3   228  ARG228      0.0307
    110  CG        19.9490   -0.3920   10.5520 C.3   228  ARG228      0.0489
    111  CD        20.2280    0.4800    9.3290 C.3   228  ARG228      0.2205
    112  NE        18.9700    0.7580    8.6230 N.pl3 228  ARG228     -0.0865
    113  CZ        18.0750    1.6500    9.0310 C.cat 228  ARG228      0.5346
    114  NH1       18.3070    2.3760   10.1260 N.pl3 228  ARG228      0.1354
    115  NH2       16.9500    1.8180    8.3460 N.pl3 228  ARG228      0.1354
    116  N         29.0060    4.7490   17.5370 N.3   232  MET232     -0.1245
    117  CA        28.6030    5.9790   18.2230 C.3   232  MET232      0.1570
    118  C         29.3750    6.1440   19.5160 C.2   232  MET232      0.2261
    119  O         29.8260    5.1660   20.0940 O.2   232  MET232     -0.2867
    120  CB        27.0820    5.9840   18.4880 C.3   232  MET232      0.0387
    121  CG        26.5850    4.8230   19.3470 C.3   232  MET232      0.0595
    122  SD        24.7890    4.6700   19.2720 S.3   232  MET232     -0.1393
    123  CE        24.3180    6.1350   20.1830 C.3   232  MET232      0.0692
    124  N         23.9810    7.3970    7.4200 N.3   279  ARG279     -0.1245
    125  CA        23.4010    8.5000    8.1770 C.3   279  ARG279      0.1563
    126  C         24.3580    8.8240    9.2980 C.2   279  ARG279      0.2260
    127  O         24.5160    8.0420   10.2440 O.2   279  ARG279     -0.2867
    128  CB        22.0000    8.1900    8.7230 C.3   279  ARG279      0.0307
    129  CG        21.2900    9.4550    9.2490 C.3   279  ARG279      0.0489
    130  CD        19.8200    9.2120    9.5420 C.3   279  ARG279      0.2205
    131  NE        19.5430    8.7940   10.9180 N.pl3 279  ARG279     -0.0865
    132  CZ        19.5160    9.6190   11.9590 C.cat 279  ARG279      0.5346
    133  NH1       19.7980   10.9010   11.7980 N.pl3 279  ARG279      0.1354
    134  NH2       19.2350    9.1560   13.1710 N.pl3 279  ARG279      0.1354
    135  N         25.1840   11.4420   12.2640 N.3   281  SER281     -0.1202
    136  CA        24.3980   12.4000   13.0390 C.3   281  SER281      0.2020
    137  C         25.1040   12.9080   14.2860 C.2   281  SER281      0.2619
    138  O         26.0300   12.2920   14.7810 O.2   281  SER281     -0.2717
    139  CB        23.0810   11.7590   13.4730 C.3   281  SER281      0.2103
    140  OG        23.3270   10.7420   14.4300 O.3   281  SER281     -0.2182
    141  N         24.6450   14.0520   14.7830 N.am  282  VAL282     -0.1965
    142  CA        24.9890   14.4750   16.1330 C.3   282  VAL282      0.1727
    143  C         23.7060   14.6500   16.9130 C.2   282  VAL282      0.2616
    144  O         22.6590   14.9670   16.3380 O.2   282  VAL282     -0.2715
    145  CB        25.8200   15.7700   16.1800 C.3   282  VAL282      0.0290
    146  CG1       27.2420   15.5270   15.7200 C.3   282  VAL282      0.0023
    147  CG2       25.1630   16.8820   15.3480 C.3   282  VAL282      0.0023
    148  N         23.7730   14.3670   18.2090 N.am  283  HIS283     -0.1973
    149  CA        22.8240   14.9370   19.1570 C.3   283  HIS283      0.1656
    150  C         23.4030   16.2770   19.6090 C.2   283  HIS283      0.2291
    151  O         24.4970   16.3380   20.1730 O.2   283  HIS283     -0.2864
    152  CB        22.5760   13.9960   20.3370 C.3   283  HIS283      0.0771
    153  CG        21.4990   12.9820   20.0850 C.ar  283  HIS283      0.0820
    154  ND1       21.0360   12.1370   21.0680 N.ar  283  HIS283     -0.2267
    155  CD2       20.8000   12.6770   18.9630 C.ar  283  HIS283      0.1154
    156  CE1       20.0890   11.3610   20.5710 C.ar  283  HIS283      0.1986
    157  NE2       19.9230   11.6710   19.2980 N.ar  283  HIS283     -0.2212
    158  N         15.9010   15.6850   13.2810 N.3   308  ARG308     -0.1245
    159  CA        15.0420   14.7100   13.9500 C.3   308  ARG308      0.1563
    160  C         15.0390   14.9890   15.4490 C.2   308  ARG308      0.2260
    161  O         15.8560   15.7660   15.9400 O.2   308  ARG308     -0.2867
    162  CB        15.5560   13.2870   13.7060 C.3   308  ARG308      0.0307
    163  CG        15.4850   12.8370   12.2460 C.3   308  ARG308      0.0489
    164  CD        16.2070   11.5040   12.0340 C.3   308  ARG308      0.2205
    165  NE        16.1620   11.1100   10.6290 N.pl3 308  ARG308     -0.0865
    166  CZ        16.0690    9.8570   10.1850 C.cat 308  ARG308      0.5346
    167  NH1       16.0030    8.8320   11.0260 N.pl3 308  ARG308      0.1354
    168  NH2       16.0200    9.6320    8.8820 N.pl3 308  ARG308      0.1354
    169  N         15.0420   13.6880   19.6850 N.3   310  THR310     -0.1203
    170  CA        16.0590   13.0370   20.4980 C.3   310  THR310      0.1994
    171  C         15.9300   11.5120   20.4450 C.2   310  THR310      0.2618
    172  O         16.9390   10.8090   20.5070 O.2   310  THR310     -0.2717
    173  CB        16.0080   13.5180   21.9630 C.3   310  THR310      0.1784
    174  OG1       15.7840   14.9380   21.9960 O.3   310  THR310     -0.2211
    175  CG2       17.3150   13.1850   22.6890 C.3   310  THR310      0.0376
    176  N         14.7030   11.0070   20.3050 N.am  311  ARG311     -0.1965
    177  CA        14.4760    9.5640   20.2220 C.3   311  ARG311      0.1729
    178  C         14.4340    9.0550   18.7830 C.2   311  ARG311      0.2617
    179  O         14.0130    7.9200   18.5210 O.2   311  ARG311     -0.2715
    180  CB        13.2010    9.1840   20.9780 C.3   311  ARG311      0.0348
    181  CG        13.3780    9.2470   22.4910 C.3   311  ARG311      0.0492
    182  CD        12.0400    9.2320   23.2060 C.3   311  ARG311      0.2205
    183  NE        12.2040    9.1370   24.6540 N.pl3 311  ARG311     -0.0865
    184  CZ        12.3200    7.9860   25.3090 C.cat 311  ARG311      0.5346
    185  NH1       12.3070    6.8330   24.6460 N.pl3 311  ARG311      0.1354
    186  NH2       12.4600    7.9840   26.6250 N.pl3 311  ARG311      0.1354
    187  N         14.8720    9.8950   17.8470 N.am  312  GLY312     -0.1940
    188  CA        14.8760    9.5370   16.4350 C.3   312  GLY312      0.2014
    189  C         13.8420   10.2790   15.6110 C.2   312  GLY312      0.2638
    190  O         13.2170   11.2230   16.1020 O.2   312  GLY312     -0.2714
    191  N         13.6660    9.8720   14.3590 N.am  313  GLU313     -0.1977
    192  CA        12.6960   10.5380   13.4960 C.3   313  GLU313      0.1602
    193  C         11.3090   10.4580   14.1340 C.2   313  GLU313      0.2287
    194  O         11.0320    9.5450   14.9190 O.2   313  GLU313     -0.2864
    195  CB        12.6930    9.9020   12.1080 C.3   313  GLU313      0.0415
    196  CG        12.5420    8.3900   12.1500 C.3   313  GLU313      0.1163
    197  CD        12.3300    7.7650   10.7860 C.2   313  GLU313      0.3649
    198  OE1       12.4190    8.4740    9.7510 O.co2 313  GLU313     -0.2457
    199  OE2       12.0730    6.5400   10.7470 O.co2 313  GLU313     -0.2457
    200  N         18.6380   15.7630   16.7680 N.3   323  ASP323     -0.1239
    201  CA        19.4010   14.8500   15.9310 C.3   323  ASP323      0.1674
    202  C         19.5390   15.5250   14.5650 C.2   323  ASP323      0.2266
    203  O         18.5530   15.7860   13.8980 O.2   323  ASP323     -0.2867
    204  CB        18.6010   13.5380   15.8550 C.3   323  ASP323      0.1410
    205  CG        19.1270   12.5330   14.8310 C.2   323  ASP323      0.3668
    206  OD1       19.8390   12.8840   13.8660 O.co2 323  ASP323     -0.2456
    207  OD2       18.7830   11.3370   15.0070 O.co2 323  ASP323     -0.2456
@<TRIPOS>BOND
     1   104   102   ar
     2    99    98    2
     3    34    33    1
     4   124   125    1
     5   101   102    1
     6   101   100    1
     7   102   103   ar
     8    98    97    1
     9    35    33    1
    10    33    32    2
    11   125   128    1
    12   125   126    1
    13   115   113    1
    14    28    27    2
    15   112   113    2
    16   112   111    1
    17   128   129    1
    18   168   166    1
    19   113   114    1
    20   100    97    1
    21    97    96    1
    22    27    26    1
    23   129   130    1
    24   126   127    2
    25   111   110    1
    26    32    31    1
    27    31    30    1
    28   130   131    1
    29   198   197   ar
    30    90    89    2
    31   166   165    2
    32   166   167    1
    33    96    89   am
    34   105   106    1
    35   110   109    1
    36   165   164    1
    37   106   109    1
    38   106   107    1
    39    26    25    1
    40    26    29    1
    41   199   197   ar
    42   197   196    1
    43    89    88    1
    44    30    29    1
    45   131   132    2
    46   107   108    2
    47   133   132    1
    48   132   134    1
    49   164   163    1
    50    87    88    1
    51    94    93   ar
    52   195   196    1
    53   195   192    1
    54    88    91    1
    55   163   162    1
    56   135   136    1
    57    76    75    2
    58    91    92    1
    59    93    92    1
    60    93    95   ar
    61   136   139    1
    62   136   137    1
    63   158   159    1
    64    17    16    2
    65   139   140    1
    66   192   193    1
    67   192   191    1
    68    75    74    1
    69   162   159    1
    70   206   205   ar
    71   203   202    2
    72   159   160    1
    73    83    85   ar
    74    83    80   ar
    75    16    15    1
    76    85    86   ar
    77   193   194    2
    78    23    22    1
    79   137   138    2
    80   137   141   am
    81    77    74    1
    82    77    78    1
    83   191   189   am
    84   202   201    1
    85    73    74    1
    86   141   142    1
    87   205   207   ar
    88   205   204    1
    89    80    78   ar
    90    80    82   ar
    91    86    84   ar
    92    22    24    1
    93    22    21    2
    94    78    79   ar
    95   147   145    1
    96   160   161    2
    97    15    14    1
    98    15    18    1
    99    19    18    1
   100    19    20    1
   101    13    11    1
   102   189   190    2
   103   189   188    1
   104   146   145    1
   105   204   201    1
   106    14     9   am
   107   201   200    1
   108   142   145    1
   109   142   143    1
   110    82    84   ar
   111    82    81   ar
   112    21    20    1
   113   144   143    2
   114   188   187    1
   115    79    81   ar
   116    66    67    1
   117    66    63    1
   118    69    71   ar
   119    69    67   ar
   120    71    72   ar
   121    67    68   ar
   122    68    70   ar
   123    72    70   ar
   124   143   148   am
   125     9     8    1
   126     9    10    2
   127    11     8    1
   128    11    12    1
   129     8     7    1
   130   116   117    1
   131    63    64    1
   132    63    62    1
   133   187   178   am
   134   148   149    1
   135   117   120    1
   136   117   118    1
   137   120   121    1
   138   179   178    2
   139    64    65    2
   140    62    56   am
   141   178   177    1
   142     4     3    2
   143     7     3   am
   144   155   157   ar
   145   155   153   ar
   146   149   150    1
   147   149   152    1
   148   122   121    1
   149   122   123    1
   150   157   156   ar
   151     3     2    1
   152   118   119    2
   153   150   151    2
   154    56    57    2
   155    56    55    1
   156   169   170    1
   157   153   152    1
   158   153   154   ar
   159    60    59    1
   160   177   176    1
   161   177   180    1
   162   176   171   am
   163    47    46    2
   164    55    54    1
   165    55    58    1
   166   171   170    1
   167   171   172    2
   168   170   173    1
   169   156   154   ar
   170   180   181    1
   171     2     1    1
   172     2     5    1
   173    59    58    1
   174    59    61    1
   175     6     5    1
   176    46    45    1
   177   173   174    1
   178   173   175    1
   179    48    45    1
   180    48    49    1
   181    45    44    1
   182   181   182    1
   183    42    40    1
   184    50    49   ar
   185    50    52   ar
   186    49    51   ar
   187    43    41    1
   188    41    40    1
   189   182   183    1
   190    39    38    2
   191    40    37    1
   192    52    53   ar
   193    37    38    1
   194    37    36    1
   195    51    53   ar
   196   185   184    1
   197   183   184    2
   198   184   186    1
