@<TRIPOS>MOLECULE
tmp/4bg4A01.pdb
 169 161 0 0 0
SMALL
GASTEIGER

@<TRIPOS>ATOM
      1  N          2.1660    1.9290    2.9680 N.3    56  SER56      -0.1217
      2  CA         2.5290    2.6680    4.1730 C.3    56  SER56       0.1889
      3  C          2.2010    4.1500    4.0150 C.2    56  SER56       0.2288
      4  O          1.7750    4.8010    4.9790 O.2    56  SER56      -0.2866
      5  CB         4.0040    2.4850    4.5060 C.3    56  SER56       0.2089
      6  OG         4.3490    3.2410    5.6640 O.3    56  SER56      -0.2183
      7  N          0.7750   11.5360    6.4620 N.3    62  ASP62      -0.1225
      8  CA         1.8250   12.4750    6.8470 C.3    62  ASP62       0.1805
      9  C          3.2490   11.9560    6.5780 C.2    62  ASP62       0.2598
     10  O          4.2320   12.5800    6.9780 O.2    62  ASP62      -0.2718
     11  CB         1.6560   12.8980    8.3160 C.3    62  ASP62       0.1424
     12  CG         1.7660   11.7340    9.2830 C.2    62  ASP62       0.3668
     13  OD1        1.6940   10.5560    8.8560 O.co2  62  ASP62      -0.2456
     14  OD2        1.9070   11.9970   10.4940 O.co2  62  ASP62      -0.2456
     15  N          3.3600   10.8280    5.8810 N.am   63  SER63      -0.1938
     16  CA         4.6650   10.3470    5.4310 C.3    63  SER63       0.2055
     17  C          5.3940   11.4100    4.6220 C.2    63  SER63       0.2644
     18  O          4.7750   12.1700    3.8780 O.2    63  SER63      -0.2714
     19  CB         4.5070    9.1050    4.5480 C.3    63  SER63       0.2130
     20  OG         3.9970    8.0150    5.2780 O.3    63  SER63      -0.2179
     21  N          6.7150   11.4640    4.7550 N.am   64  GLY64      -0.1939
     22  CA         7.5140   12.3150    3.8920 C.3    64  GLY64       0.2014
     23  C          7.7490   11.6560    2.5480 C.2    64  GLY64       0.2639
     24  O          7.7980   12.3220    1.5010 O.2    64  GLY64      -0.2714
     25  N          7.9020   10.3360    2.5710 N.am   65  VAL65      -0.1963
     26  CA         8.2070    9.5920    1.3590 C.3    65  VAL65       0.1727
     27  C          7.0400    8.6780    0.9930 C.2    65  VAL65       0.2617
     28  O          6.3570    8.9150   -0.0140 O.2    65  VAL65      -0.2715
     29  CB         9.5450    8.8360    1.5140 C.3    65  VAL65       0.0290
     30  CG1        9.8810    8.0600    0.2530 C.3    65  VAL65       0.0023
     31  CG2       10.6450    9.8320    1.8330 C.3    65  VAL65       0.0023
     32  N          6.8050    7.6420    1.8060 N.am   66  GLY66      -0.1940
     33  CA         5.5690    6.8840    1.7200 C.3    66  GLY66       0.2014
     34  C          5.6350    5.5770    0.9680 C.2    66  GLY66       0.2639
     35  O          4.6210    4.9090    0.7880 O.2    66  GLY66      -0.2714
     36  N          6.8200    5.2090    0.5180 N.am   67  ILE67      -0.1963
     37  CA         6.9570    3.9200   -0.1580 C.3    67  ILE67       0.1727
     38  C          8.1460    3.1590    0.3720 C.2    67  ILE67       0.2616
     39  O          9.0870    3.7480    0.9180 O.2    67  ILE67      -0.2715
     40  CB         7.0970    4.0760   -1.6900 C.3    67  ILE67       0.0290
     41  CG1        8.4120    4.7500   -2.0600 C.3    67  ILE67       0.0022
     42  CG2        5.9000    4.8350   -2.2780 C.3    67  ILE67       0.0023
     43  CD1        8.6270    4.7750   -3.5640 C.3    67  ILE67       0.0001
     44  N          8.0970    1.8370    0.1990 N.am   68  TYR68      -0.1974
     45  CA         9.2140    0.9550    0.5100 C.3    68  TYR68       0.1639
     46  C          9.3070   -0.0910   -0.5900 C.2    68  TYR68       0.2290
     47  O          8.3460   -0.3100   -1.3340 O.2    68  TYR68      -0.2864
     48  CB         8.9820    0.2180    1.8340 C.3    68  TYR68       0.0560
     49  CG         8.9250    1.0810    3.0750 C.ar   68  TYR68      -0.0198
     50  CD1        7.7220    1.6520    3.4970 C.ar   68  TYR68      -0.0009
     51  CD2       10.0580    1.2820    3.8490 C.ar   68  TYR68      -0.0009
     52  CE1        7.6590    2.4200    4.6450 C.ar   68  TYR68       0.0417
     53  CE2       10.0100    2.0570    4.9920 C.ar   68  TYR68       0.0417
     54  CZ         8.8150    2.6240    5.3860 C.ar   68  TYR68       0.1957
     55  OH         8.7770    3.3850    6.5490 O.3    68  TYR68      -0.2866
     56  N         14.3300   13.0170   -3.2590 N.3    89  TYR89      -0.1241
     57  CA        14.9230   12.8500   -1.9430 C.3    89  TYR89       0.1605
     58  C         16.4480   13.0480   -1.9110 C.2    89  TYR89       0.2264
     59  O         16.9540   13.7800   -1.0730 O.2    89  TYR89      -0.2867
     60  CB        14.5480   11.5020   -1.3130 C.3    89  TYR89       0.0534
     61  CG        15.1210   11.4070    0.0830 C.ar   89  TYR89      -0.0201
     62  CD1       16.4020   10.9230    0.2950 C.ar   89  TYR89      -0.0009
     63  CD2       14.4070   11.8830    1.1710 C.ar   89  TYR89      -0.0009
     64  CE1       16.9520   10.8800    1.5610 C.ar   89  TYR89       0.0417
     65  CE2       14.9400   11.8450    2.4480 C.ar   89  TYR89       0.0417
     66  CZ        16.2150   11.3350    2.6360 C.ar   89  TYR89       0.1957
     67  OH        16.7620   11.2920    3.9000 O.3    89  TYR89      -0.2866
     68  N         25.7690    5.4940   11.0430 N.3   126  ARG126     -0.1245
     69  CA        25.2730    4.1620   10.7180 C.3   126  ARG126      0.1563
     70  C         25.2390    3.9160    9.2260 C.2   126  ARG126      0.2260
     71  O         25.1790    4.8590    8.4190 O.2   126  ARG126     -0.2867
     72  CB        23.8880    3.9130   11.3330 C.3   126  ARG126      0.0307
     73  CG        22.7560    4.8170   10.8430 C.3   126  ARG126      0.0489
     74  CD        22.1330    4.3450    9.5170 C.3   126  ARG126      0.2205
     75  NE        20.8140    4.9500    9.3440 N.pl3 126  ARG126     -0.0865
     76  CZ        20.2260    5.1820    8.1750 C.cat 126  ARG126      0.5346
     77  NH1       20.8360    4.8730    7.0310 N.pl3 126  ARG126      0.1354
     78  NH2       19.0200    5.7350    8.1470 N.pl3 126  ARG126      0.1354
     79  N          4.7750    3.6180   10.5380 N.3   194  PHE194     -0.1241
     80  CA         5.2210    3.6250    9.1460 C.3   194  PHE194      0.1605
     81  C          5.6620    2.2400    8.7300 C.2   194  PHE194      0.2264
     82  O          5.3010    1.7630    7.6560 O.2   194  PHE194     -0.2867
     83  CB         6.3270    4.6690    8.9350 C.3   194  PHE194      0.0534
     84  CG         5.9070    6.0490    9.3350 C.ar  194  PHE194     -0.0203
     85  CD1        5.1900    6.8470    8.4570 C.ar  194  PHE194     -0.0042
     86  CD2        6.1970    6.5340   10.6050 C.ar  194  PHE194     -0.0042
     87  CE1        4.7640    8.1090    8.8250 C.ar  194  PHE194     -0.0003
     88  CE2        5.7740    7.7990   10.9850 C.ar  194  PHE194     -0.0003
     89  CZ         5.0710    8.5980   10.0820 C.ar  194  PHE194     -0.0000
     90  N         14.3020   -2.3490   10.4440 N.3   224  GLU224     -0.1245
     91  CA        13.9000   -1.8670    9.1200 C.3   224  GLU224      0.1567
     92  C         14.6830   -2.5610    7.9970 C.2   224  GLU224      0.2260
     93  O         14.1230   -2.9180    6.9630 O.2   224  GLU224     -0.2867
     94  CB        14.0450   -0.3450    9.0470 C.3   224  GLU224      0.0388
     95  CG        13.7050    0.2270    7.6860 C.3   224  GLU224      0.1160
     96  CD        13.7330    1.7370    7.6870 C.2   224  GLU224      0.3649
     97  OE1       13.3860    2.3340    8.7220 O.co2 224  GLU224     -0.2457
     98  OE2       14.0960    2.3370    6.6510 O.co2 224  GLU224     -0.2457
     99  N         21.6860   -3.0020   10.4910 N.3   228  ARG228     -0.1245
    100  CA        22.1840   -1.6320   10.6440 C.3   228  ARG228      0.1563
    101  C         23.4830   -1.7440   11.4190 C.2   228  ARG228      0.2260
    102  O         23.5240   -2.3070   12.5110 O.2   228  ARG228     -0.2867
    103  CB        21.1880   -0.7160   11.3640 C.3   228  ARG228      0.0307
    104  CG        19.9490   -0.3920   10.5520 C.3   228  ARG228      0.0489
    105  CD        20.2280    0.4800    9.3290 C.3   228  ARG228      0.2205
    106  NE        18.9700    0.7580    8.6230 N.pl3 228  ARG228     -0.0865
    107  CZ        18.0750    1.6500    9.0310 C.cat 228  ARG228      0.5346
    108  NH1       18.3070    2.3760   10.1260 N.pl3 228  ARG228      0.1354
    109  NH2       16.9500    1.8180    8.3460 N.pl3 228  ARG228      0.1354
    110  N         13.9850    1.0750    2.5670 N.3   270  CYS270     -0.1235
    111  CA        13.4750    2.3940    2.1840 C.3   270  CYS270      0.1677
    112  C         14.4080    3.0430    1.1650 C.2   270  CYS270      0.2270
    113  O         15.6310    2.9560    1.2880 O.2   270  CYS270     -0.2867
    114  CB        13.3340    3.3010    3.4160 C.3   270  CYS270      0.0956
    115  SG        12.8300    4.9840    3.0290 S.3   270  CYS270     -0.0801
    116  N         15.1510    6.0570    0.8270 N.3   272  THR272     -0.1203
    117  CA        15.9940    7.0810    1.4660 C.3   272  THR272      0.1994
    118  C         17.3300    6.5170    1.9570 C.2   272  THR272      0.2617
    119  O         18.2710    7.2720    2.2320 O.2   272  THR272     -0.2717
    120  CB        15.3060    7.7660    2.6720 C.3   272  THR272      0.1784
    121  OG1       15.2200    6.8510    3.7760 O.3   272  THR272     -0.2211
    122  CG2       13.9260    8.2760    2.3290 C.3   272  THR272      0.0376
    123  N         17.4220    5.1990    2.0860 N.am  273  ASN273     -0.1974
    124  CA        18.6170    4.6230    2.6880 C.3   273  ASN273      0.1688
    125  C         19.5500    3.9280    1.7110 C.2   273  ASN273      0.2292
    126  O         20.4930    3.2670    2.1200 O.2   273  ASN273     -0.2864
    127  CB        18.2210    3.6970    3.8450 C.3   273  ASN273      0.1181
    128  CG        17.8220    4.4640    5.0740 C.2   273  ASN273      0.2629
    129  OD1       18.4270    5.4910    5.3920 O.2   273  ASN273     -0.2716
    130  ND2       16.7960    3.9830    5.7780 N.am  273  ASN273     -0.0877
    131  N         19.1130   17.0680    7.8020 N.3   306  GLN306     -0.1245
    132  CA        17.7720   16.7350    8.2580 C.3   306  GLN306      0.1566
    133  C         17.7420   16.8050    9.7730 C.2   306  GLN306      0.2260
    134  O         18.7090   16.4410   10.4390 O.2   306  GLN306     -0.2867
    135  CB        17.3810   15.3350    7.7870 C.3   306  GLN306      0.0367
    136  CG        15.9630   14.9150    8.1060 C.3   306  GLN306      0.0905
    137  CD        15.7060   13.4890    7.6800 C.2   306  GLN306      0.2608
    138  OE1       16.3110   12.5620    8.2130 O.2   306  GLN306     -0.2717
    139  NE2       14.8270   13.3020    6.7010 N.am  306  GLN306     -0.0878
    140  N         15.9010   15.6850   13.2810 N.3   308  ARG308     -0.1245
    141  CA        15.0420   14.7100   13.9500 C.3   308  ARG308      0.1563
    142  C         15.0390   14.9890   15.4490 C.2   308  ARG308      0.2260
    143  O         15.8560   15.7660   15.9400 O.2   308  ARG308     -0.2867
    144  CB        15.5560   13.2870   13.7060 C.3   308  ARG308      0.0307
    145  CG        15.4850   12.8370   12.2460 C.3   308  ARG308      0.0489
    146  CD        16.2070   11.5040   12.0340 C.3   308  ARG308      0.2205
    147  NE        16.1620   11.1100   10.6290 N.pl3 308  ARG308     -0.0865
    148  CZ        16.0690    9.8570   10.1850 C.cat 308  ARG308      0.5346
    149  NH1       16.0030    8.8320   11.0260 N.pl3 308  ARG308      0.1354
    150  NH2       16.0200    9.6320    8.8820 N.pl3 308  ARG308      0.1354
    151  N         13.6660    9.8720   14.3590 N.3   313  GLU313     -0.1231
    152  CA        12.6960   10.5380   13.4960 C.3   313  GLU313      0.1699
    153  C         11.3090   10.4580   14.1340 C.2   313  GLU313      0.2592
    154  O         11.0320    9.5450   14.9190 O.2   313  GLU313     -0.2718
    155  CB        12.6930    9.9020   12.1080 C.3   313  GLU313      0.0402
    156  CG        12.5420    8.3900   12.1500 C.3   313  GLU313      0.1161
    157  CD        12.3300    7.7650   10.7860 C.2   313  GLU313      0.3649
    158  OE1       12.4190    8.4740    9.7510 O.co2 313  GLU313     -0.2457
    159  OE2       12.0730    6.5400   10.7470 O.co2 313  GLU313     -0.2457
    160  N         10.4600   11.4390   13.8220 N.am  314  HIS314     -0.1976
    161  CA         9.0820   11.5030   14.3300 C.3   314  HIS314      0.1656
    162  C          8.9820   11.6440   15.8510 C.2   314  HIS314      0.2291
    163  O          7.9940   11.2340   16.4530 O.2   314  HIS314     -0.2864
    164  CB         8.2620   10.2860   13.8690 C.3   314  HIS314      0.0771
    165  CG         8.4810    9.9140   12.4400 C.ar  314  HIS314      0.0820
    166  ND1        8.8700    8.6480   12.0520 N.ar  314  HIS314     -0.2267
    167  CD2        8.3700   10.6360   11.2990 C.ar  314  HIS314      0.1154
    168  CE1        8.9910    8.6090   10.7390 C.ar  314  HIS314      0.1986
    169  NE2        8.6910    9.7990   10.2570 N.ar  314  HIS314     -0.2212
@<TRIPOS>BOND
     1    43    41    1
     2    56    57    1
     3    42    40    1
     4    41    40    1
     5    57    58    1
     6    57    60    1
     7    58    59    2
     8    40    37    1
     9    47    46    2
    10    60    61    1
    11    46    45    1
    12    37    38    1
    13    37    36    1
    14    28    27    2
    15    61    62   ar
    16    61    63   ar
    17    44    38   am
    18    44    45    1
    19    30    29    1
    20    62    64   ar
    21    38    39    2
    22    45    48    1
    23    36    34   am
    24    35    34    2
    25   116   117    1
    26    34    33    1
    27    27    26    1
    28    27    32   am
    29   112   113    2
    30   112   111    1
    31    63    65   ar
    32    26    29    1
    33    26    25    1
    34   117   118    1
    35   117   120    1
    36    24    23    2
    37    29    31    1
    38    64    66   ar
    39   125   126    2
    40   125   124    1
    41    33    32    1
    42    48    49    1
    43   118   123   am
    44   118   119    2
    45   123   124    1
    46   111   110    1
    47   111   114    1
    48   122   120    1
    49    65    66   ar
    50    23    25   am
    51    23    22    1
    52    66    67    1
    53   120   121    1
    54   124   127    1
    55     1     2    1
    56   115   114    1
    57    49    50   ar
    58    49    51   ar
    59    50    52   ar
    60   127   128    1
    61    51    53   ar
    62    18    17    2
    63    22    21    1
    64     3     2    1
    65     3     4    2
    66     2     5    1
    67     5     6    1
    68    19    20    1
    69    19    16    1
    70    17    21   am
    71    17    16    1
    72    52    54   ar
    73    53    54   ar
    74   128   129    2
    75   128   130   am
    76    54    55    1
    77    16    15    1
    78    15     9   am
    79     7     8    1
    80     9     8    1
    81     9    10    2
    82    98    96   ar
    83   139   137   am
    84     8    11    1
    85    93    92    2
    86    77    76    1
    87    82    81    2
    88   137   136    1
    89   137   138    2
    90    95    96    1
    91    95    94    1
    92    96    97   ar
    93   135   136    1
    94   135   132    1
    95   131   132    1
    96    92    91    1
    97    78    76    1
    98    76    75    2
    99   132   133    1
   100    11    12    1
   101   109   107    1
   102    71    70    2
   103    85    87   ar
   104    85    84   ar
   105   106   107    2
   106   106   105    1
   107    81    80    1
   108    87    89   ar
   109    13    12   ar
   110   150   148    1
   111    83    80    1
   112    83    84    1
   113   107   108    1
   114    94    91    1
   115    91    90    1
   116    80    79    1
   117    70    69    1
   118    12    14   ar
   119   105   104    1
   120    84    86   ar
   121    75    74    1
   122    74    73    1
   123   158   157   ar
   124   133   134    2
   125    89    88   ar
   126   148   147    2
   127   148   149    1
   128   169   168   ar
   129   169   167   ar
   130    99   100    1
   131   104   103    1
   132    86    88   ar
   133   147   146    1
   134   100   103    1
   135   100   101    1
   136    69    68    1
   137    69    72    1
   138   168   166   ar
   139   159   157   ar
   140   157   156    1
   141    73    72    1
   142   167   165   ar
   143   101   102    2
   144   146   145    1
   145   166   165   ar
   146   155   156    1
   147   155   152    1
   148   145   144    1
   149   165   164    1
   150   140   141    1
   151   152   153    1
   152   152   151    1
   153   144   141    1
   154   160   153   am
   155   160   161    1
   156   164   161    1
   157   141   142    1
   158   153   154    2
   159   161   162    1
   160   142   143    2
   161   162   163    2
