@<TRIPOS>MOLECULE
tmp/4bg6B00.pdb
 182 171 0 0 0
SMALL
GASTEIGER

@<TRIPOS>ATOM
      1  N          9.4360   -3.7800   -6.2210 N.3    48  LYS48      -0.1245
      2  CA         9.8090   -2.5500   -5.5350 C.3    48  LYS48       0.1561
      3  C          8.7950   -2.2720   -4.4350 C.2    48  LYS48       0.2260
      4  O          9.1490   -1.8550   -3.3310 O.2    48  LYS48      -0.2867
      5  CB         9.8760   -1.3760   -6.5150 C.3    48  LYS48       0.0271
      6  CG        10.2880   -0.0610   -5.8950 C.3    48  LYS48       0.0035
      7  CD        10.3220    1.0380   -6.9480 C.3    48  LYS48       0.0206
      8  CE         9.3270    2.1640   -6.6380 C.3    48  LYS48       0.1093
      9  NZ         7.9630    1.7480   -6.9090 N.3    48  LYS48      -0.1314
     10  N         10.5990   -3.0310    3.9590 N.3    55  ARG55      -0.1245
     11  CA        11.6360   -2.0600    4.2880 C.3    55  ARG55       0.1563
     12  C         11.0670   -0.9300    5.1400 C.2    55  ARG55       0.2260
     13  O         11.6780   -0.5160    6.1260 O.2    55  ARG55      -0.2867
     14  CB        12.2750   -1.4980    3.0170 C.3    55  ARG55       0.0307
     15  CG        13.2310   -2.4620    2.3330 C.3    55  ARG55       0.0489
     16  CD        13.6890   -1.9320    0.9840 C.3    55  ARG55       0.2205
     17  NE        14.5830   -0.7860    1.1210 N.pl3  55  ARG55      -0.0865
     18  CZ        14.5860    0.2600    0.3020 C.cat  55  ARG55       0.5346
     19  NH1       13.7410    0.3090   -0.7180 N.pl3  55  ARG55       0.1354
     20  NH2       15.4360    1.2580    0.5020 N.pl3  55  ARG55       0.1354
     21  N         12.0170   -0.2270    9.1620 N.3    59  ARG59      -0.1245
     22  CA        12.5090    1.0380    9.6910 C.3    59  ARG59       0.1563
     23  C         11.6630    1.5140   10.8690 C.2    59  ARG59       0.2260
     24  O         12.1940    2.0180   11.8590 O.2    59  ARG59      -0.2867
     25  CB        12.5430    2.1020    8.5900 C.3    59  ARG59       0.0307
     26  CG        13.5170    1.7820    7.4630 C.3    59  ARG59       0.0489
     27  CD        13.7800    2.9910    6.5760 C.3    59  ARG59       0.2205
     28  NE        12.6390    3.3250    5.7300 N.pl3  59  ARG59      -0.0865
     29  CZ        12.4670    2.8640    4.4950 C.cat  59  ARG59       0.5346
     30  NH1       13.3640    2.0450    3.9620 N.pl3  59  ARG59       0.1354
     31  NH2       11.4000    3.2190    3.7930 N.pl3  59  ARG59       0.1354
     32  N         21.7250   -2.8590  -12.2370 N.3   119  LYS119     -0.1245
     33  CA        21.2730   -1.8700  -11.2650 C.3   119  LYS119      0.1561
     34  C         20.3300   -2.5200  -10.2620 C.2   119  LYS119      0.2260
     35  O         20.4250   -2.2920   -9.0560 O.2   119  LYS119     -0.2867
     36  CB        20.5790   -0.6980  -11.9590 C.3   119  LYS119      0.0271
     37  CG        19.8800    0.2540  -10.9990 C.3   119  LYS119      0.0035
     38  CD        19.0550    1.2920  -11.7420 C.3   119  LYS119      0.0206
     39  CE        18.0520    1.9600  -10.8140 C.3   119  LYS119      0.1093
     40  NZ        17.1220    0.9740  -10.1950 N.3   119  LYS119     -0.1314
     41  N         20.4920   -2.9150   -6.2990 N.3   123  ASP123     -0.1239
     42  CA        19.4080   -2.4220   -5.4570 C.3   123  ASP123      0.1674
     43  C         19.0430   -3.3900   -4.3390 C.2   123  ASP123      0.2266
     44  O         18.9730   -3.0060   -3.1720 O.2   123  ASP123     -0.2867
     45  CB        18.1650   -2.1350   -6.3060 C.3   123  ASP123      0.1410
     46  CG        18.2680   -0.8330   -7.0740 C.2   123  ASP123      0.3668
     47  OD1       19.0430    0.0500   -6.6510 O.co2 123  ASP123     -0.2456
     48  OD2       17.5690   -0.6870   -8.0990 O.co2 123  ASP123     -0.2456
     49  N         21.5780   -4.2080   -1.8330 N.3   126  ARG126     -0.1231
     50  CA        21.5880   -3.0370   -0.9670 C.3   126  ARG126      0.1694
     51  C         20.5150   -3.1590    0.1070 C.2   126  ARG126      0.2592
     52  O         20.7220   -2.7680    1.2560 O.2   126  ARG126     -0.2718
     53  CB        21.3810   -1.7560   -1.7770 C.3   126  ARG126      0.0321
     54  CG        21.2610   -0.5040   -0.9210 C.3   126  ARG126      0.0489
     55  CD        21.5100    0.7540   -1.7340 C.3   126  ARG126      0.2205
     56  NE        20.5880    0.8690   -2.8600 N.pl3 126  ARG126     -0.0865
     57  CZ        19.4080    1.4780   -2.7990 C.cat 126  ARG126      0.5346
     58  NH1       19.0030    2.0290   -1.6630 N.pl3 126  ARG126      0.1354
     59  NH2       18.6340    1.5350   -3.8730 N.pl3 126  ARG126      0.1354
     60  N         19.3620   -3.6990   -0.2790 N.am  127  TYR127     -0.1976
     61  CA        18.2530   -3.8660    0.6480 C.3   127  TYR127      0.1639
     62  C         18.6190   -4.9380    1.6650 C.2   127  TYR127      0.2290
     63  O         18.2920   -4.8280    2.8470 O.2   127  TYR127     -0.2864
     64  CB        16.9720   -4.2440   -0.0960 C.3   127  TYR127      0.0560
     65  CG        16.5670   -3.2530   -1.1630 C.ar  127  TYR127     -0.0198
     66  CD1       16.9210   -1.9130   -1.0660 C.ar  127  TYR127     -0.0009
     67  CD2       15.8320   -3.6580   -2.2700 C.ar  127  TYR127     -0.0009
     68  CE1       16.5540   -1.0040   -2.0390 C.ar  127  TYR127      0.0417
     69  CE2       15.4600   -2.7560   -3.2480 C.ar  127  TYR127      0.0417
     70  CZ        15.8230   -1.4310   -3.1280 C.ar  127  TYR127      0.1957
     71  OH        15.4560   -0.5290   -4.1000 O.3   127  TYR127     -0.2866
     72  N         20.9770   -3.3110    3.9960 N.3   130  GLU130     -0.1245
     73  CA        20.2690   -2.4430    4.9340 C.3   130  GLU130      0.1567
     74  C         19.9670   -3.1400    6.2560 C.2   130  GLU130      0.2260
     75  O         19.9480   -2.5080    7.3120 O.2   130  GLU130     -0.2867
     76  CB        18.9700   -1.9300    4.3130 C.3   130  GLU130      0.0388
     77  CG        19.1500   -0.7470    3.3770 C.3   130  GLU130      0.1160
     78  CD        17.8650   -0.3630    2.6700 C.2   130  GLU130      0.3649
     79  OE1       16.8790   -1.1230    2.7700 O.co2 130  GLU130     -0.2457
     80  OE2       17.8410    0.6990    2.0140 O.co2 130  GLU130     -0.2457
     81  N         19.0670    6.8830  -13.0750 N.3   168  GLY168     -0.1225
     82  CA        18.5170    6.1300  -11.9640 C.3   168  GLY168      0.1811
     83  C         19.5650    5.2630  -11.2930 C.2   168  GLY168      0.2280
     84  O         19.5760    5.1190  -10.0700 O.2   168  GLY168     -0.2866
     85  N         21.7470    7.4870   -9.2010 N.3   171  LEU171     -0.1231
     86  CA        21.0000    7.8520   -8.0020 C.3   171  LEU171      0.1693
     87  C         21.1350    6.7940   -6.9120 C.2   171  LEU171      0.2592
     88  O         21.4970    7.1030   -5.7770 O.2   171  LEU171     -0.2718
     89  CB        19.5230    8.0680   -8.3380 C.3   171  LEU171      0.0284
     90  CG        18.5960    8.3150   -7.1470 C.3   171  LEU171      0.0019
     91  CD1       18.8300    9.7020   -6.5660 C.3   171  LEU171      0.0001
     92  CD2       17.1390    8.1370   -7.5460 C.3   171  LEU171      0.0001
     93  N         20.8400    5.5450   -7.2610 N.am  172  ASN172     -0.1974
     94  CA        20.8550    4.4570   -6.2900 C.3   172  ASN172      0.1688
     95  C         22.2730    4.0760   -5.8840 C.2   172  ASN172      0.2292
     96  O         22.5140    3.6870   -4.7410 O.2   172  ASN172     -0.2864
     97  CB        20.1250    3.2330   -6.8460 C.3   172  ASN172      0.1181
     98  CG        18.6270    3.4450   -6.9520 C.2   172  ASN172      0.2629
     99  OD1       18.1380    4.5680   -6.8360 O.2   172  ASN172     -0.2716
    100  ND2       17.8910    2.3620   -7.1760 N.am  172  ASN172     -0.0877
    101  N         23.2250    6.5050   -3.3060 N.3   175  VAL175     -0.1245
    102  CA        22.5490    6.1860   -2.0530 C.3   175  VAL175      0.1561
    103  C         23.2670    5.0430   -1.3470 C.2   175  VAL175      0.2260
    104  O         23.3700    5.0200   -0.1200 O.2   175  VAL175     -0.2867
    105  CB        21.0750    5.8010   -2.2780 C.3   175  VAL175      0.0252
    106  CG1       20.4480    5.3120   -0.9790 C.3   175  VAL175      0.0019
    107  CG2       20.3010    6.9820   -2.8390 C.3   175  VAL175      0.0019
    108  N         26.3840    6.3570    0.3990 N.3   178  TYR178     -0.1227
    109  CA        26.0540    7.1150    1.5980 C.3   178  TYR178      0.1736
    110  C         25.5080    6.2230    2.7120 C.2   178  TYR178      0.2595
    111  O         26.0530    6.1920    3.8140 O.2   178  TYR178     -0.2718
    112  CB        25.0440    8.2190    1.2770 C.3   178  TYR178      0.0548
    113  CG        24.8360    9.1870    2.4190 C.ar  178  TYR178     -0.0200
    114  CD1       23.8990    8.9320    3.4100 C.ar  178  TYR178     -0.0009
    115  CD2       25.5890   10.3500    2.5140 C.ar  178  TYR178     -0.0009
    116  CE1       23.7110    9.8110    4.4610 C.ar  178  TYR178      0.0417
    117  CE2       25.4080   11.2360    3.5600 C.ar  178  TYR178      0.0417
    118  CZ        24.4680   10.9620    4.5310 C.ar  178  TYR178      0.1957
    119  OH        24.2840   11.8400    5.5740 O.3   178  TYR178     -0.2866
    120  N         24.4310    5.4990    2.4210 N.am  179  GLU179     -0.1979
    121  CA        23.7180    4.7600    3.4600 C.3   179  GLU179      0.1602
    122  C         24.3950    3.4400    3.8290 C.2   179  GLU179      0.2287
    123  O         24.3690    3.0300    4.9890 O.2   179  GLU179     -0.2864
    124  CB        22.2710    4.5000    3.0320 C.3   179  GLU179      0.0415
    125  CG        21.3740    5.7290    3.1020 C.3   179  GLU179      0.1163
    126  CD        19.9930    5.4860    2.5230 C.2   179  GLU179      0.3649
    127  OE1       19.6960    4.3320    2.1460 O.co2 179  GLU179     -0.2457
    128  OE2       19.2010    6.4490    2.4480 O.co2 179  GLU179     -0.2457
    129  N         14.4270   12.1190  -12.1390 N.3   216  ILE216     -0.1245
    130  CA        15.5690   11.4630  -11.5130 C.3   216  ILE216      0.1561
    131  C         16.6780   12.4710  -11.2260 C.2   216  ILE216      0.2260
    132  O         17.3510   12.3920  -10.1980 O.2   216  ILE216     -0.2867
    133  CB        16.1210   10.3230  -12.3880 C.3   216  ILE216      0.0252
    134  CG1       15.0440    9.2610  -12.6160 C.3   216  ILE216      0.0019
    135  CG2       17.3410    9.6970  -11.7350 C.3   216  ILE216      0.0019
    136  CD1       15.4120    8.2280  -13.6580 C.3   216  ILE216      0.0001
    137  N         15.7940   14.1730   -8.1790 N.3   219  LEU219     -0.1245
    138  CA        16.0140   13.3150   -7.0210 C.3   219  LEU219      0.1561
    139  C         17.4940   13.3110   -6.6620 C.2   219  LEU219      0.2260
    140  O         17.8590   13.2480   -5.4880 O.2   219  LEU219     -0.2867
    141  CB        15.5300   11.8880   -7.2940 C.3   219  LEU219      0.0270
    142  CG        14.0250   11.6640   -7.4510 C.3   219  LEU219      0.0019
    143  CD1       13.7270   10.1880   -7.6810 C.3   219  LEU219      0.0001
    144  CD2       13.2760   12.1790   -6.2320 C.3   219  LEU219      0.0001
    145  N         18.3890   16.4970   -4.9460 N.3   222  ASP222     -0.1225
    146  CA        17.6900   16.4440   -3.6660 C.3   222  ASP222      0.1805
    147  C         18.5270   15.7050   -2.6270 C.2   222  ASP222      0.2597
    148  O         18.7230   16.1940   -1.5140 O.2   222  ASP222     -0.2718
    149  CB        16.3280   15.7640   -3.8190 C.3   222  ASP222      0.1424
    150  CG        15.2520   16.7150   -4.3080 C.2   222  ASP222      0.3668
    151  OD1       15.5930   17.8250   -4.7650 O.co2 222  ASP222     -0.2456
    152  OD2       14.0590   16.3520   -4.2260 O.co2 222  ASP222     -0.2456
    153  N         19.0070   14.5210   -2.9930 N.am  223  ASN223     -0.1974
    154  CA        19.9050   13.7590   -2.1330 C.3   223  ASN223      0.1688
    155  C         21.1760   14.5460   -1.8280 C.2   223  ASN223      0.2292
    156  O         21.6880   14.5110   -0.7090 O.2   223  ASN223     -0.2864
    157  CB        20.2600   12.4170   -2.7770 C.3   223  ASN223      0.1181
    158  CG        19.1640   11.3790   -2.6120 C.2   223  ASN223      0.2629
    159  OD1       18.2210   11.5690   -1.8440 O.2   223  ASN223     -0.2716
    160  ND2       19.2860   10.2720   -3.3360 N.am  223  ASN223     -0.0877
    161  N         20.2840   17.2790    0.7240 N.3   226  LEU226     -0.1231
    162  CA        20.0920   16.5100    1.9490 C.3   226  LEU226      0.1693
    163  C         21.4280   16.1950    2.6130 C.2   226  LEU226      0.2592
    164  O         21.6160   16.4450    3.8040 O.2   226  LEU226     -0.2718
    165  CB        19.3300   15.2160    1.6610 C.3   226  LEU226      0.0284
    166  CG        19.2630   14.2130    2.8150 C.3   226  LEU226      0.0019
    167  CD1       18.6270   14.8500    4.0410 C.3   226  LEU226      0.0001
    168  CD2       18.5040   12.9610    2.4020 C.3   226  LEU226      0.0001
    169  N         22.3530   15.6410    1.8340 N.am  227  TRP227     -0.1976
    170  CA        23.6640   15.2640    2.3490 C.3   227  TRP227      0.1640
    171  C         24.5900   16.4720    2.4630 C.2   227  TRP227      0.2290
    172  O         25.7610   16.4050    2.0880 O.2   227  TRP227     -0.2864
    173  CB        24.3050   14.2080    1.4450 C.3   227  TRP227      0.0576
    174  CG        23.4800   12.9700    1.2780 C.ar  227  TRP227      0.0006
    175  CD1       22.6020   12.4400    2.1780 C.ar  227  TRP227      0.0946
    176  CD2       23.4450   12.1130    0.1300 C.ar  227  TRP227      0.0152
    177  NE1       22.0280   11.3020    1.6650 N.ar  227  TRP227     -0.2442
    178  CE2       22.5280   11.0800    0.4080 C.ar  227  TRP227      0.0810
    179  CE3       24.1010   12.1190   -1.1050 C.ar  227  TRP227      0.0012
    180  CZ2       22.2510   10.0620   -0.5030 C.ar  227  TRP227      0.0191
    181  CZ3       23.8250   11.1080   -2.0070 C.ar  227  TRP227      0.0001
    182  CH2       22.9090   10.0940   -1.7020 C.ar  227  TRP227      0.0015
@<TRIPOS>BOND
     1   136   134    1
     2    81    82    1
     3   134   133    1
     4   133   135    1
     5   133   130    1
     6    32    33    1
     7   129   130    1
     8    82    83    1
     9    36    33    1
    10    36    37    1
    11    38    37    1
    12    38    39    1
    13   130   131    1
    14    83    84    2
    15    33    34    1
    16   131   132    2
    17    39    40    1
    18    34    35    2
    19    85    86    1
    20    89    86    1
    21    89    90    1
    22   137   138    1
    23    48    46   ar
    24    86    87    1
    25   143   142    1
    26    92    90    1
    27   142   141    1
    28   142   144    1
    29   141   138    1
    30    93    87   am
    31    93    94    1
    32   100    98   am
    33    90    91    1
    34    46    47   ar
    35    46    45    1
    36   138   139    1
    37    98    97    1
    38    98    99    2
    39     7     8    1
    40     7     6    1
    41    87    88    2
    42     9     8    1
    43    97    94    1
    44   139   140    2
    45     5     6    1
    46     5     2    1
    47    45    42    1
    48    41    42    1
    49    94    95    1
    50     1     2    1
    51    95    96    2
    52     2     3    1
    53    42    43    1
    54   145   146    1
    55   151   150   ar
    56     3     4    2
    57    43    44    2
    58   150   152   ar
    59   150   149    1
    60    71    70    1
    61    59    57    1
    62   149   146    1
    63   146   147    1
    64   160   158   am
    65   101   102    1
    66    69    70   ar
    67    69    67   ar
    68    70    68   ar
    69   153   147   am
    70   153   154    1
    71    56    57    2
    72    56    55    1
    73   107   105    1
    74    57    58    1
    75   157   158    1
    76   157   154    1
    77   147   148    2
    78   158   159    2
    79   105   102    1
    80   105   106    1
    81    67    65   ar
    82   154   155    1
    83   102   103    1
    84    68    66   ar
    85   181   182   ar
    86   181   179   ar
    87    49    50    1
    88   155   156    2
    89    53    50    1
    90    53    54    1
    91    55    54    1
    92   182   180   ar
    93   103   104    2
    94    65    66   ar
    95    65    64    1
    96   179   176   ar
    97    50    51    1
    98    19    18    1
    99   180   178   ar
   100    60    51   am
   101    60    61    1
   102    64    61    1
   103    51    52    2
   104   176   178   ar
   105   176   174   ar
   106    18    20    1
   107    18    17    2
   108   108   109    1
   109   178   177   ar
   110    61    62    1
   111   161   162    1
   112    16    17    1
   113    16    15    1
   114   112   109    1
   115   112   113    1
   116   174   173    1
   117   174   175   ar
   118   173   170    1
   119   109   110    1
   120   165   162    1
   121   165   166    1
   122    62    63    2
   123   177   175   ar
   124   169   170    1
   125   169   163   am
   126   162   163    1
   127    80    78   ar
   128   172   171    2
   129   127   126   ar
   130    15    14    1
   131   170   171    1
   132   168   166    1
   133   113   115   ar
   134   113   114   ar
   135   120   110   am
   136   120   121    1
   137   128   126   ar
   138   115   117   ar
   139   126   125    1
   140   163   164    2
   141    78    79   ar
   142    78    77    1
   143   110   111    2
   144   166   167    1
   145    14    11    1
   146   124   125    1
   147   124   121    1
   148    77    76    1
   149   114   116   ar
   150   121   122    1
   151   117   118   ar
   152    31    29    1
   153   122   123    2
   154    10    11    1
   155    30    29    1
   156    72    73    1
   157    11    12    1
   158    76    73    1
   159   116   118   ar
   160    29    28    2
   161   118   119    1
   162    73    74    1
   163    12    13    2
   164    28    27    1
   165    74    75    2
   166    27    26    1
   167    26    25    1
   168    25    22    1
   169    21    22    1
   170    22    23    1
   171    23    24    2
