@<TRIPOS>MOLECULE
tmp/4bg6B02.pdb
 121 113 0 0 0
SMALL
GASTEIGER

@<TRIPOS>ATOM
      1  N          9.4410   -5.8960  -18.1910 N.3    40  ARG40      -0.1231
      2  CA        10.5420   -5.5390  -17.3040 C.3    40  ARG40       0.1694
      3  C         10.1010   -4.5490  -16.2330 C.2    40  ARG40       0.2592
      4  O         10.4360   -4.6960  -15.0570 O.2    40  ARG40      -0.2718
      5  CB        11.6990   -4.9410  -18.1030 C.3    40  ARG40       0.0321
      6  CG        12.9370   -4.6600  -17.2700 C.3    40  ARG40       0.0489
      7  CD        13.9600   -3.8570  -18.0530 C.3    40  ARG40       0.2205
      8  NE        13.4690   -2.5140  -18.3500 N.pl3  40  ARG40      -0.0865
      9  CZ        13.8540   -1.7880  -19.3940 C.cat  40  ARG40       0.5346
     10  NH1       14.7450   -2.2720  -20.2500 N.pl3  40  ARG40       0.1354
     11  NH2       13.3500   -0.5770  -19.5810 N.pl3  40  ARG40       0.1354
     12  N          9.3430   -3.5420  -16.6540 N.am   41  ASN41      -0.1974
     13  CA         8.8870   -2.4940  -15.7510 C.3    41  ASN41       0.1688
     14  C          7.8360   -3.0050  -14.7760 C.2    41  ASN41       0.2292
     15  O          7.8110   -2.6000  -13.6130 O.2    41  ASN41      -0.2864
     16  CB         8.3360   -1.3080  -16.5460 C.3    41  ASN41       0.1181
     17  CG         9.4110   -0.5840  -17.3350 C.2    41  ASN41       0.2629
     18  OD1       10.5930   -0.6490  -16.9990 O.2    41  ASN41      -0.2716
     19  ND2        9.0040    0.1070  -18.3940 N.am   41  ASN41      -0.0877
     20  N          8.3940   -2.6710  -10.8450 N.3    45  VAL45      -0.1245
     21  CA         7.4090   -1.9790  -10.0210 C.3    45  VAL45       0.1561
     22  C          6.8230   -2.8850   -8.9400 C.2    45  VAL45       0.2260
     23  O          6.6760   -2.4750   -7.7890 O.2    45  VAL45      -0.2867
     24  CB         6.2560   -1.4200  -10.8750 C.3    45  VAL45       0.0252
     25  CG1        5.1020   -0.9840   -9.9880 C.3    45  VAL45       0.0019
     26  CG2        6.7440   -0.2620  -11.7300 C.3    45  VAL45       0.0019
     27  N          9.4360   -3.7800   -6.2210 N.3    48  LYS48      -0.1245
     28  CA         9.8090   -2.5500   -5.5350 C.3    48  LYS48       0.1561
     29  C          8.7950   -2.2720   -4.4350 C.2    48  LYS48       0.2260
     30  O          9.1490   -1.8550   -3.3310 O.2    48  LYS48      -0.2867
     31  CB         9.8760   -1.3760   -6.5150 C.3    48  LYS48       0.0271
     32  CG        10.2880   -0.0610   -5.8950 C.3    48  LYS48       0.0035
     33  CD        10.3220    1.0380   -6.9480 C.3    48  LYS48       0.0206
     34  CE         9.3270    2.1640   -6.6380 C.3    48  LYS48       0.1093
     35  NZ         7.9630    1.7480   -6.9090 N.3    48  LYS48      -0.1314
     36  N         20.0700   -2.0470  -16.6420 N.3   116  PHE116     -0.1241
     37  CA        18.8640   -2.0750  -15.8210 C.3   116  PHE116      0.1605
     38  C         18.9000   -3.1950  -14.7890 C.2   116  PHE116      0.2264
     39  O         18.6270   -2.9730  -13.6100 O.2   116  PHE116     -0.2867
     40  CB        17.6190   -2.2230  -16.7010 C.3   116  PHE116      0.0534
     41  CG        16.3230   -2.1950  -15.9330 C.ar  116  PHE116     -0.0203
     42  CD1       15.8270   -3.3460  -15.3370 C.ar  116  PHE116     -0.0042
     43  CD2       15.6040   -1.0190  -15.8020 C.ar  116  PHE116     -0.0042
     44  CE1       14.6410   -3.3230  -14.6300 C.ar  116  PHE116     -0.0003
     45  CE2       14.4150   -0.9900  -15.0950 C.ar  116  PHE116     -0.0003
     46  CZ        13.9340   -2.1440  -14.5090 C.ar  116  PHE116     -0.0000
     47  N         19.8810    9.4820  -19.9830 N.3   163  HIS163     -0.1227
     48  CA        19.0780    8.2610  -19.9520 C.3   163  HIS163      0.1737
     49  C         18.5780    7.9510  -18.5450 C.2   163  HIS163      0.2438
     50  O         19.3680    7.8730  -17.6050 O.2   163  HIS163     -0.2733
     51  CB        19.8580    7.0630  -20.4980 C.3   163  HIS163      0.0758
     52  CG        18.9850    5.9060  -20.8780 C.ar  163  HIS163      0.0818
     53  ND1       18.1280    5.2990  -19.9850 N.ar  163  HIS163     -0.2268
     54  CD2       18.8250    5.2540  -22.0540 C.ar  163  HIS163      0.1154
     55  CE1       17.4840    4.3180  -20.5920 C.ar  163  HIS163      0.1986
     56  NE2       17.8880    4.2700  -21.8480 N.ar  163  HIS163     -0.2212
     57  N         17.2550    7.7850  -18.4030 N.am  164  PRO164     -0.2718
     58  CA        16.5890    7.5030  -17.1260 C.3   164  PRO164      0.1535
     59  C         17.2310    6.3370  -16.3770 C.2   164  PRO164      0.2598
     60  O         17.4150    6.4170  -15.1620 O.2   164  PRO164     -0.2715
     61  CB        15.1580    7.1580  -17.5470 C.3   164  PRO164      0.0310
     62  CG        14.9630    7.8790  -18.8340 C.3   164  PRO164      0.0237
     63  CD        16.2980    7.8600  -19.5220 C.3   164  PRO164      0.0939
     64  N         17.5630    5.2700  -17.0970 N.am  165  ILE165     -0.1978
     65  CA        18.2070    4.1100  -16.4910 C.3   165  ILE165      0.1596
     66  C         19.6000    4.4550  -15.9720 C.2   165  ILE165      0.2287
     67  O         19.9840    4.0310  -14.8830 O.2   165  ILE165     -0.2864
     68  CB        18.3120    2.9350  -17.4840 C.3   165  ILE165      0.0276
     69  CG1       16.9170    2.4450  -17.8750 C.3   165  ILE165      0.0022
     70  CG2       19.1180    1.7970  -16.8770 C.3   165  ILE165      0.0022
     71  CD1       16.9260    1.2320  -18.7810 C.3   165  ILE165      0.0001
     72  N         19.0670    6.8830  -13.0750 N.3   168  GLY168     -0.1225
     73  CA        18.5170    6.1300  -11.9640 C.3   168  GLY168      0.1811
     74  C         19.5650    5.2630  -11.2930 C.2   168  GLY168      0.2280
     75  O         19.5760    5.1190  -10.0700 O.2   168  GLY168     -0.2866
     76  N         21.7470    7.4870   -9.2010 N.3   171  LEU171     -0.1245
     77  CA        21.0000    7.8520   -8.0020 C.3   171  LEU171      0.1561
     78  C         21.1350    6.7940   -6.9120 C.2   171  LEU171      0.2260
     79  O         21.4970    7.1030   -5.7770 O.2   171  LEU171     -0.2867
     80  CB        19.5230    8.0680   -8.3380 C.3   171  LEU171      0.0270
     81  CG        18.5960    8.3150   -7.1470 C.3   171  LEU171      0.0019
     82  CD1       18.8300    9.7020   -6.5660 C.3   171  LEU171      0.0001
     83  CD2       17.1390    8.1370   -7.5460 C.3   171  LEU171      0.0001
     84  N         10.9930    9.9230  -22.5800 N.3   209  SER209     -0.1217
     85  CA        11.7100    9.6600  -21.3360 C.3   209  SER209      0.1889
     86  C         12.2180   10.9230  -20.6440 C.2   209  SER209      0.2288
     87  O         12.8470   10.8410  -19.5880 O.2   209  SER209     -0.2866
     88  CB        12.8860    8.7170  -21.6000 C.3   209  SER209      0.2089
     89  OG        13.9060    9.3680  -22.3360 O.3   209  SER209     -0.2183
     90  N         10.9300   11.2230  -17.0540 N.3   212  ASP212     -0.1239
     91  CA        11.6190   10.3030  -16.1570 C.3   212  ASP212      0.1674
     92  C         13.0250   10.8060  -15.8510 C.2   212  ASP212      0.2266
     93  O         13.4720   10.7710  -14.7050 O.2   212  ASP212     -0.2867
     94  CB        11.6780    8.8990  -16.7620 C.3   212  ASP212      0.1410
     95  CG        10.3050    8.3590  -17.1120 C.2   212  ASP212      0.3668
     96  OD1        9.8170    8.6440  -18.2260 O.co2 212  ASP212     -0.2456
     97  OD2        9.7110    7.6520  -16.2710 O.co2 212  ASP212     -0.2456
     98  N         12.9410   14.0480  -13.6540 N.3   215  LEU215     -0.1231
     99  CA        12.5740   13.6800  -12.2910 C.3   215  LEU215      0.1693
    100  C         13.7650   13.1010  -11.5330 C.2   215  LEU215      0.2591
    101  O         14.0680   13.5290  -10.4190 O.2   215  LEU215     -0.2718
    102  CB        11.4190   12.6770  -12.2950 C.3   215  LEU215      0.0284
    103  CG        11.0990   12.0320  -10.9440 C.3   215  LEU215      0.0019
    104  CD1       10.9930   13.0890   -9.8540 C.3   215  LEU215      0.0001
    105  CD2        9.8240   11.2050  -11.0220 C.3   215  LEU215      0.0001
    106  N         14.4270   12.1190  -12.1390 N.am  216  ILE216     -0.1980
    107  CA        15.5690   11.4630  -11.5130 C.3   216  ILE216      0.1595
    108  C         16.6780   12.4710  -11.2260 C.2   216  ILE216      0.2287
    109  O         17.3510   12.3920  -10.1980 O.2   216  ILE216     -0.2864
    110  CB        16.1210   10.3230  -12.3880 C.3   216  ILE216      0.0276
    111  CG1       15.0440    9.2610  -12.6160 C.3   216  ILE216      0.0022
    112  CG2       17.3410    9.6970  -11.7350 C.3   216  ILE216      0.0022
    113  CD1       15.4120    8.2280  -13.6580 C.3   216  ILE216      0.0001
    114  N         15.7940   14.1730   -8.1790 N.3   219  LEU219     -0.1245
    115  CA        16.0140   13.3150   -7.0210 C.3   219  LEU219      0.1561
    116  C         17.4940   13.3110   -6.6620 C.2   219  LEU219      0.2260
    117  O         17.8590   13.2480   -5.4880 O.2   219  LEU219     -0.2867
    118  CB        15.5300   11.8880   -7.2940 C.3   219  LEU219      0.0270
    119  CG        14.0250   11.6640   -7.4510 C.3   219  LEU219      0.0019
    120  CD1       13.7270   10.1880   -7.6810 C.3   219  LEU219      0.0001
    121  CD2       13.2760   12.1790   -6.2320 C.3   219  LEU219      0.0001
@<TRIPOS>BOND
     1    84    85    1
     2    89    88    1
     3    54    56   ar
     4    54    52   ar
     5    56    55   ar
     6    88    85    1
     7    85    86    1
     8    52    51    1
     9    52    53   ar
    10    86    87    2
    11    55    53   ar
    12    51    48    1
    13    10     9    1
    14    47    48    1
    15    48    49    1
    16    11     9    1
    17    63    62    1
    18    63    57    1
    19     9     8    2
    20    62    61    1
    21    71    69    1
    22    49    57   am
    23    49    50    2
    24    57    58    1
    25    19    17   am
    26     8     7    1
    27    96    95   ar
    28     1     2    1
    29     5     2    1
    30     5     6    1
    31     7     6    1
    32    69    68    1
    33    61    58    1
    34    68    70    1
    35    68    65    1
    36    17    18    2
    37    17    16    1
    38     2     3    1
    39    58    59    1
    40    95    94    1
    41    95    97   ar
    42    64    65    1
    43    64    59   am
    44    90    91    1
    45    94    91    1
    46    40    41    1
    47    40    37    1
    48    12     3   am
    49    12    13    1
    50    36    37    1
    51    16    13    1
    52    65    66    1
    53    59    60    2
    54     3     4    2
    55    91    92    1
    56    66    67    2
    57    41    43   ar
    58    41    42   ar
    59    92    93    2
    60    37    38    1
    61    43    45   ar
    62    13    14    1
    63    42    44   ar
    64    45    46   ar
    65    38    39    2
    66    14    15    2
    67    44    46   ar
    68   113   111    1
    69    98    99    1
    70    72    73    1
    71   111   110    1
    72   110   112    1
    73   110   107    1
    74   102    99    1
    75   102   103    1
    76    99   100    1
    77   106   100   am
    78   106   107    1
    79    73    74    1
    80    26    24    1
    81   100   101    2
    82   107   108    1
    83    74    75    2
    84   108   109    2
    85   105   103    1
    86   103   104    1
    87    24    21    1
    88    24    25    1
    89    20    21    1
    90    21    22    1
    91    76    77    1
    92    22    23    2
    93    80    77    1
    94    80    81    1
    95   114   115    1
    96    77    78    1
    97   120   119    1
    98    83    81    1
    99   119   118    1
   100   119   121    1
   101   118   115    1
   102    81    82    1
   103   115   116    1
   104    33    34    1
   105    33    32    1
   106    78    79    2
   107    35    34    1
   108   116   117    2
   109    31    32    1
   110    31    28    1
   111    27    28    1
   112    28    29    1
   113    29    30    2
