@<TRIPOS>MOLECULE
tmp/4bggC00.pdb
 181 172 0 0 0
SMALL
GASTEIGER

@<TRIPOS>ATOM
      1  N         71.2840  -25.3680  -16.1940 N.3     9  GLU9       -0.1245
      2  CA        71.9120  -24.4430  -15.2440 C.3     9  GLU9        0.1567
      3  C         71.8780  -24.8910  -13.7950 C.2     9  GLU9        0.2260
      4  O         70.9040  -25.4630  -13.3200 O.2     9  GLU9       -0.2867
      5  CB        71.3490  -23.0110  -15.3440 C.3     9  GLU9        0.0388
      6  CG        69.8570  -22.8540  -15.1080 C.3     9  GLU9        0.1160
      7  CD        69.4300  -21.4060  -14.8220 C.2     9  GLU9        0.3649
      8  OE1       70.2340  -20.4760  -15.0640 O.co2   9  GLU9       -0.2457
      9  OE2       68.2740  -21.1890  -14.3790 O.co2   9  GLU9       -0.2457
     10  N         71.4030  -24.1770  -10.1400 N.3    11  VAL11      -0.1245
     11  CA        70.6170  -23.2150   -9.3630 C.3    11  VAL11       0.1561
     12  C         70.9500  -23.2320   -7.8680 C.2    11  VAL11       0.2260
     13  O         70.4840  -22.3810   -7.1260 O.2    11  VAL11      -0.2867
     14  CB        69.0950  -23.4230   -9.5430 C.3    11  VAL11       0.0252
     15  CG1       68.6650  -22.9550  -10.9280 C.3    11  VAL11       0.0019
     16  CG2       68.6840  -24.8700   -9.2940 C.3    11  VAL11       0.0019
     17  N         71.9900  -28.6910   -7.1470 N.3    19  VAL19      -0.1245
     18  CA        70.6770  -28.7830   -7.8030 C.3    19  VAL19       0.1561
     19  C         70.7450  -28.0490   -9.1440 C.2    19  VAL19       0.2260
     20  O         71.2360  -26.9390   -9.2290 O.2    19  VAL19      -0.2867
     21  CB        69.5220  -28.2350   -6.9300 C.3    19  VAL19       0.0252
     22  CG1       68.1880  -28.2670   -7.6870 C.3    19  VAL19       0.0019
     23  CG2       69.3950  -29.0220   -5.6490 C.3    19  VAL19       0.0019
     24  N         63.9480  -30.6020  -12.3040 N.3    30  ALA30      -0.1231
     25  CA        64.9950  -30.2990  -11.3560 C.3    30  ALA30       0.1694
     26  C         65.7770  -31.5800  -11.0340 C.2    30  ALA30       0.2592
     27  O         65.2040  -32.6100  -10.7260 O.2    30  ALA30      -0.2718
     28  CB        64.3870  -29.6980  -10.0940 C.3    30  ALA30       0.0304
     29  N         67.0930  -31.4690  -11.0790 N.am   31  VAL31      -0.1966
     30  CA        67.9710  -32.5780  -10.7560 C.3    31  VAL31       0.1727
     31  C         68.8750  -32.2850   -9.5580 C.2    31  VAL31       0.2616
     32  O         69.6460  -31.3200   -9.5630 O.2    31  VAL31      -0.2715
     33  CB        68.9020  -32.8990  -11.9190 C.3    31  VAL31       0.0290
     34  CG1       69.6760  -34.1640  -11.6020 C.3    31  VAL31       0.0023
     35  CG2       68.1220  -33.0470  -13.2110 C.3    31  VAL31       0.0023
     36  N         68.7610  -33.1180   -8.5320 N.am   32  LYS32      -0.1977
     37  CA        69.6630  -33.0050   -7.3950 C.3    32  LYS32       0.1596
     38  C         70.7020  -34.1020   -7.4920 C.2    32  LYS32       0.2287
     39  O         70.3600  -35.2690   -7.5410 O.2    32  LYS32      -0.2864
     40  CB        68.9260  -33.1200   -6.0720 C.3    32  LYS32       0.0298
     41  CG        69.8610  -33.0320   -4.8870 C.3    32  LYS32       0.0038
     42  CD        69.1180  -32.8960   -3.5660 C.3    32  LYS32       0.0206
     43  CE        70.1160  -32.7570   -2.4250 C.3    32  LYS32       0.1093
     44  NZ        69.4130  -32.6790   -1.1190 N.3    32  LYS32      -0.1314
     45  N         65.3740  -40.5770    0.8810 N.3    45  GLU45      -0.1245
     46  CA        64.4190  -39.7540    0.1310 C.3    45  GLU45       0.1567
     47  C         63.8010  -40.5770   -1.0140 C.2    45  GLU45       0.2260
     48  O         62.5840  -40.5950   -1.2090 O.2    45  GLU45      -0.2867
     49  CB        65.1520  -38.5260   -0.3760 C.3    45  GLU45       0.0388
     50  CG        64.3070  -37.4800   -1.0780 C.3    45  GLU45       0.1160
     51  CD        64.8930  -36.0760   -0.9810 C.2    45  GLU45       0.3649
     52  OE1       66.1400  -35.9770   -0.7490 O.co2  45  GLU45      -0.2457
     53  OE2       64.1110  -35.0810   -1.1040 O.co2  45  GLU45      -0.2457
     54  N         56.9250  -31.3580   -2.8210 N.3    60  LEU60      -0.1245
     55  CA        57.6510  -31.3740   -4.0710 C.3    60  LEU60       0.1561
     56  C         57.5110  -32.7260   -4.7360 C.2    60  LEU60       0.2260
     57  O         57.7140  -33.7800   -4.1070 O.2    60  LEU60      -0.2867
     58  CB        59.1270  -31.0890   -3.8280 C.3    60  LEU60       0.0270
     59  CG        60.0390  -31.2270   -5.0340 C.3    60  LEU60       0.0019
     60  CD1       59.6330  -30.2480   -6.1100 C.3    60  LEU60       0.0001
     61  CD2       61.4700  -30.9810   -4.6190 C.3    60  LEU60       0.0001
     62  N         68.4870  -37.3690   -7.8390 N.3    78  LEU78      -0.1245
     63  CA        67.0470  -37.3200   -7.5920 C.3    78  LEU78       0.1561
     64  C         66.4550  -36.3210   -8.5640 C.2    78  LEU78       0.2260
     65  O         66.9680  -35.1800   -8.6670 O.2    78  LEU78      -0.2867
     66  CB        66.7520  -36.8590   -6.1610 C.3    78  LEU78       0.0270
     67  CG        65.2660  -36.5920   -5.8620 C.3    78  LEU78       0.0019
     68  CD1       64.5370  -37.9180   -5.7140 C.3    78  LEU78       0.0001
     69  CD2       65.0200  -35.7570   -4.6250 C.3    78  LEU78       0.0001
     70  N         62.9960  -34.2220   -9.8700 N.3    80  THR80      -0.1203
     71  CA        61.6420  -33.7190   -9.4660 C.3    80  THR80       0.1994
     72  C         61.1090  -32.6810  -10.4360 C.2    80  THR80       0.2618
     73  O         61.8110  -32.2670  -11.3660 O.2    80  THR80      -0.2717
     74  CB        61.6420  -33.0200   -8.0880 C.3    80  THR80       0.1784
     75  OG1       62.3240  -31.7680   -8.1930 O.3    80  THR80      -0.2211
     76  CG2       62.2960  -33.8900   -7.0580 C.3    80  THR80       0.0376
     77  N         59.8700  -32.2630  -10.2070 N.am   81  HIS81      -0.1961
     78  CA        59.3210  -31.1170  -10.8830 C.3    81  HIS81       0.1787
     79  C         60.1390  -29.8860  -10.6300 C.2    81  HIS81       0.2620
     80  O         60.7710  -29.7760   -9.5670 O.2    81  HIS81      -0.2715
     81  CB        57.8590  -30.9120  -10.5040 C.3    81  HIS81       0.0785
     82  CG        56.9740  -31.9450  -11.1220 C.ar   81  HIS81       0.0821
     83  ND1       56.1270  -32.7450  -10.3800 N.ar   81  HIS81      -0.2267
     84  CD2       56.8580  -32.3650  -12.4130 C.ar   81  HIS81       0.1154
     85  CE1       55.5020  -33.5890  -11.1930 C.ar   81  HIS81       0.1986
     86  NE2       55.9320  -33.3840  -12.4280 N.ar   81  HIS81      -0.2212
     87  N         60.1550  -28.9920  -11.6170 N.am   82  TYR82      -0.1960
     88  CA        60.9070  -27.7400  -11.5580 C.3    82  TYR82       0.1771
     89  C         59.9850  -26.5400  -11.2970 C.2    82  TYR82       0.2620
     90  O         58.9980  -26.3600  -11.9950 O.2    82  TYR82      -0.2715
     91  CB        61.6650  -27.4890  -12.8600 C.3    82  TYR82       0.0574
     92  CG        62.6100  -26.3290  -12.7790 C.ar   82  TYR82      -0.0198
     93  CD1       63.8000  -26.4370  -12.0850 C.ar   82  TYR82      -0.0009
     94  CD2       62.2890  -25.1050  -13.3330 C.ar   82  TYR82      -0.0009
     95  CE1       64.6610  -25.3590  -11.9610 C.ar   82  TYR82       0.0417
     96  CE2       63.1410  -24.0170  -13.2200 C.ar   82  TYR82       0.0417
     97  CZ        64.3270  -24.1530  -12.5350 C.ar   82  TYR82       0.1957
     98  OH        65.1740  -23.0910  -12.4080 O.3    82  TYR82      -0.2866
     99  N         60.3210  -25.7250  -10.3100 N.am   83  HIS83      -0.1959
    100  CA        59.5650  -24.5470   -9.9310 C.3    83  HIS83       0.1787
    101  C         60.4030  -23.3350  -10.2240 C.2    83  HIS83       0.2620
    102  O         61.2450  -22.9340   -9.4340 O.2    83  HIS83      -0.2715
    103  CB        59.1470  -24.6330   -8.4390 C.3    83  HIS83       0.0785
    104  CG        58.2370  -25.7980   -8.1590 C.ar   83  HIS83       0.0821
    105  ND1       56.9610  -25.8850   -8.6820 N.ar   83  HIS83      -0.2267
    106  CD2       58.4580  -26.9720   -7.5220 C.ar   83  HIS83       0.1154
    107  CE1       56.4300  -27.0530   -8.3630 C.ar   83  HIS83       0.1986
    108  NE2       57.3030  -27.7210   -7.6350 N.ar   83  HIS83      -0.2212
    109  N         60.1300  -22.7030  -11.3540 N.am   84  GLU84      -0.1963
    110  CA        61.0030  -21.6300  -11.7890 C.3    84  GLU84       0.1733
    111  C         61.1170  -20.4250  -10.8440 C.2    84  GLU84       0.2616
    112  O         62.1010  -19.7230  -10.9040 O.2    84  GLU84      -0.2715
    113  CB        60.7000  -21.2090  -13.2160 C.3    84  GLU84       0.0429
    114  CG        59.4120  -20.4710  -13.4230 C.3    84  GLU84       0.1163
    115  CD        59.0310  -20.3580  -14.9070 C.2    84  GLU84       0.3649
    116  OE1       59.3240  -21.2930  -15.7380 O.co2  84  GLU84      -0.2457
    117  OE2       58.4500  -19.2870  -15.2240 O.co2  84  GLU84      -0.2457
    118  N         60.1690  -20.2240   -9.9360 N.am   85  MET85      -0.1963
    119  CA        60.2870  -19.1220   -8.9630 C.3    85  MET85       0.1736
    120  C         61.3100  -19.3720   -7.8630 C.2    85  MET85       0.2617
    121  O         61.5980  -18.4610   -7.0940 O.2    85  MET85      -0.2715
    122  CB        58.9630  -18.8620   -8.2380 C.3    85  MET85       0.0427
    123  CG        57.7510  -18.7800   -9.1250 C.3    85  MET85       0.0599
    124  SD        57.7480  -17.1800   -9.9160 S.3    85  MET85      -0.1393
    125  CE        56.5990  -16.3690   -8.8080 C.3    85  MET85       0.0692
    126  N         61.7910  -20.6020   -7.7330 N.am   86  GLY86      -0.1940
    127  CA        62.8110  -20.9030   -6.7450 C.3    86  GLY86       0.2014
    128  C         62.2850  -21.0300   -5.3200 C.2    86  GLY86       0.2639
    129  O         61.1220  -21.3210   -5.1050 O.2    86  GLY86      -0.2714
    130  N         63.1580  -20.8570   -4.3310 N.am   87  SER87      -0.1949
    131  CA        62.7480  -21.0880   -2.9310 C.3    87  SER87       0.1924
    132  C         62.0020  -19.9020   -2.3720 C.2    87  SER87       0.2314
    133  O         62.1170  -18.7890   -2.8700 O.2    87  SER87      -0.2863
    134  CB        63.9460  -21.3760   -2.0290 C.3    87  SER87       0.2116
    135  OG        64.7890  -20.2510   -1.9740 O.3    87  SER87      -0.2180
    136  N         64.4830  -17.2280   -1.6650 N.3    90  ASP90      -0.1239
    137  CA        64.7910  -16.3420   -2.8080 C.3    90  ASP90       0.1674
    138  C         63.6550  -15.3600   -3.0830 C.2    90  ASP90       0.2266
    139  O         63.8820  -14.1900   -3.3150 O.2    90  ASP90      -0.2867
    140  CB        65.0650  -17.1660   -4.0730 C.3    90  ASP90       0.1410
    141  CG        66.2310  -18.1550   -3.9040 C.2    90  ASP90       0.3668
    142  OD1       67.3680  -17.6830   -3.6590 O.co2  90  ASP90      -0.2456
    143  OD2       66.0090  -19.3860   -4.0490 O.co2  90  ASP90      -0.2456
    144  N         64.6040  -22.0600    2.6500 N.3   133  LYS133     -0.1231
    145  CA        65.2710  -22.6720    1.5090 C.3   133  LYS133      0.1693
    146  C         64.7490  -24.0450    1.0900 C.2   133  LYS133      0.2592
    147  O         65.0390  -24.4930    0.0030 O.2   133  LYS133     -0.2718
    148  CB        66.7650  -22.7970    1.7950 C.3   133  LYS133      0.0285
    149  CG        67.5000  -21.5220    1.5320 C.3   133  LYS133      0.0035
    150  CD        68.9600  -21.6440    1.9060 C.3   133  LYS133      0.0206
    151  CE        69.4340  -20.3750    2.6110 C.3   133  LYS133      0.1093
    152  NZ        70.8170  -20.0540    2.1360 N.3   133  LYS133     -0.1314
    153  N         64.0310  -24.7360    1.9580 N.am  134  ASN134     -0.1974
    154  CA        63.4820  -26.0430    1.5910 C.3   134  ASN134      0.1688
    155  C         62.0110  -25.9880    1.2860 C.2   134  ASN134      0.2292
    156  O         61.3300  -27.0100    1.3350 O.2   134  ASN134     -0.2864
    157  CB        63.7450  -27.0730    2.7050 C.3   134  ASN134      0.1181
    158  CG        65.1660  -27.6360    2.6560 C.2   134  ASN134      0.2629
    159  OD1       65.8230  -27.6060    1.6440 O.2   134  ASN134     -0.2716
    160  ND2       65.6200  -28.1330    3.7700 N.am  134  ASN134     -0.0877
    161  N         59.5020  -24.3980   -1.7720 N.3   136  LEU136     -0.1245
    162  CA        59.5210  -23.8240   -3.1270 C.3   136  LEU136      0.1561
    163  C         58.2130  -23.1280   -3.4200 C.2   136  LEU136      0.2260
    164  O         57.1750  -23.5090   -2.9070 O.2   136  LEU136     -0.2867
    165  CB        59.7570  -24.9040   -4.1640 C.3   136  LEU136      0.0270
    166  CG        61.0930  -25.5760   -3.9680 C.3   136  LEU136      0.0019
    167  CD1       61.1360  -26.9380   -4.6200 C.3   136  LEU136      0.0001
    168  CD2       62.2280  -24.7240   -4.5270 C.3   136  LEU136      0.0001
    169  N         60.1320  -29.3130    0.2930 N.3   146  ALA146     -0.1231
    170  CA        61.1570  -30.1500   -0.3310 C.3   146  ALA146      0.1694
    171  C         62.1430  -30.7360    0.6760 C.2   146  ALA146      0.2592
    172  O         62.2240  -30.2850    1.8100 O.2   146  ALA146     -0.2718
    173  CB        61.9070  -29.3350   -1.3570 C.3   146  ALA146      0.0304
    174  N         62.9320  -31.6840    0.1860 N.am  147  ASP147     -0.1974
    175  CA        64.0540  -32.3090    0.8650 C.3   147  ASP147      0.1709
    176  C         63.6770  -33.1980    2.0290 C.2   147  ASP147      0.2293
    177  O         63.6980  -32.7420    3.1690 O.2   147  ASP147     -0.2864
    178  CB        65.0610  -31.2690    1.3370 C.3   147  ASP147      0.1436
    179  CG        66.3620  -31.8990    1.8660 C.2   147  ASP147      0.3671
    180  OD1       66.4130  -33.1380    2.1150 O.co2 147  ASP147     -0.2456
    181  OD2       67.3430  -31.1340    1.9980 O.co2 147  ASP147     -0.2456
@<TRIPOS>BOND
     1     1     2    1
     2   116   115   ar
     3     5     2    1
     4     5     6    1
     5     2     3    1
     6   117   115   ar
     7     6     7    1
     8     8     7   ar
     9   115   114    1
    10     7     9   ar
    11     3     4    2
    12   114   113    1
    13    94    96   ar
    14    94    92   ar
    15    96    97   ar
    16   113   110    1
    17    35    33    1
    18    91    92    1
    19    91    88    1
    20    92    93   ar
    21    97    98    1
    22    97    95   ar
    23    86    84   ar
    24    86    85   ar
    25    84    82   ar
    26    24    25    1
    27    93    95   ar
    28    90    89    2
    29    33    34    1
    30    33    30    1
    31   110   109    1
    32   110   111    1
    33    87    88    1
    34    87    79   am
    35    88    89    1
    36    73    72    2
    37    25    26    1
    38    25    28    1
    39   109   101   am
    40    89    99   am
    41    85    83   ar
    42    82    81    1
    43    82    83   ar
    44    29    26   am
    45    29    30    1
    46    26    27    2
    47    15    14    1
    48   112   111    2
    49    78    79    1
    50    78    81    1
    51    78    77    1
    52   111   118   am
    53    30    31    1
    54    79    80    2
    55    72    77   am
    56    72    71    1
    57    99   100    1
    58   101   100    1
    59   101   102    2
    60    10    11    1
    61   118   119    1
    62   100   103    1
    63   124   123    1
    64   124   125    1
    65    70    71    1
    66    32    31    2
    67    31    36   am
    68    14    11    1
    69    14    16    1
    70    71    74    1
    71    11    12    1
    72    20    19    2
    73    19    18    1
    74   123   122    1
    75   119   122    1
    76   119   120    1
    77   105   107   ar
    78   105   104   ar
    79    65    64    2
    80    64    63    1
    81    36    37    1
    82   103   104    1
    83   107   108   ar
    84    75    74    1
    85   104   106   ar
    86    74    76    1
    87    12    13    2
    88   120   126   am
    89   120   121    2
    90    62    63    1
    91    18    17    1
    92    18    21    1
    93   126   127    1
    94    22    21    1
    95   108   106   ar
    96    63    66    1
    97    39    38    2
    98    38    37    1
    99    37    40    1
   100    21    23    1
   101   127   128    1
   102    66    67    1
   103    60    59    1
   104    40    41    1
   105    67    68    1
   106    67    69    1
   107   128   129    2
   108   128   130   am
   109    59    61    1
   110    59    58    1
   111    41    42    1
   112    56    57    2
   113    56    55    1
   114   167   166    1
   115   168   166    1
   116   130   131    1
   117   165   166    1
   118   165   162    1
   119   140   141    1
   120   140   137    1
   121    55    58    1
   122    55    54    1
   123   143   141   ar
   124   141   142   ar
   125    42    43    1
   126   163   162    1
   127   163   164    2
   128   139   138    2
   129   162   161    1
   130   138   137    1
   131   131   132    1
   132   131   134    1
   133   133   132    2
   134   137   136    1
   135    43    44    1
   136   134   135    1
   137   173   170    1
   138    48    47    2
   139    53    51   ar
   140    50    51    1
   141    50    49    1
   142    47    46    1
   143    51    52   ar
   144    49    46    1
   145   170   169    1
   146   170   171    1
   147   147   146    2
   148    46    45    1
   149   174   171   am
   150   174   175    1
   151   171   172    2
   152   175   178    1
   153   175   176    1
   154   146   145    1
   155   146   153   am
   156   155   156    2
   157   155   154    1
   158   178   179    1
   159   145   148    1
   160   145   144    1
   161   149   148    1
   162   149   150    1
   163   154   153    1
   164   154   157    1
   165   159   158    2
   166   179   181   ar
   167   179   180   ar
   168   150   151    1
   169   176   177    2
   170   152   151    1
   171   158   157    1
   172   158   160   am
