@<TRIPOS>MOLECULE
tmp/4bghA00.pdb
 144 138 0 0 0
SMALL
GASTEIGER

@<TRIPOS>ATOM
      1  N         13.7920  -13.0830    6.1940 N.3    10  ILE10      -0.1231
      2  CA        12.6250  -12.2700    6.5150 C.3    10  ILE10       0.1692
      3  C         12.9260  -10.7880    6.3080 C.2    10  ILE10       0.2592
      4  O         12.0410   -9.9450    6.3780 O.2    10  ILE10      -0.2718
      5  CB        12.1470  -12.5090    7.9630 C.3    10  ILE10       0.0266
      6  CG1       13.2430  -12.2390    9.0090 C.3    10  ILE10       0.0019
      7  CG2       11.6110  -13.9000    8.1210 C.3    10  ILE10       0.0020
      8  CD1       12.7860  -12.3010   10.5010 C.3    10  ILE10       0.0001
      9  N         14.1840  -10.4620    6.0640 N.am   11  GLY11      -0.1957
     10  CA        14.5490   -9.0620    5.9470 C.3    11  GLY11       0.1869
     11  C         15.9110   -8.8510    5.3440 C.2    11  GLY11       0.2309
     12  O         16.7110   -9.8070    5.2660 O.2    11  GLY11      -0.2863
     13  N         18.4710  -10.6120    7.4810 N.3    18  VAL18      -0.1245
     14  CA        17.8160  -11.1760    8.6670 C.3    18  VAL18       0.1561
     15  C         17.0680  -12.4120    8.3010 C.2    18  VAL18       0.2260
     16  O         16.3090  -12.4060    7.3460 O.2    18  VAL18      -0.2867
     17  CB        16.8630  -10.1750    9.3340 C.3    18  VAL18       0.0252
     18  CG1       16.2730  -10.7770   10.6250 C.3    18  VAL18       0.0019
     19  CG2       17.5830   -8.8420    9.6050 C.3    18  VAL18       0.0019
     20  N         15.3080  -14.3470   15.4770 N.3    31  ALA31      -0.1245
     21  CA        15.7010  -13.6650   14.2760 C.3    31  ALA31       0.1562
     22  C         17.1990  -13.4970   14.3370 C.2    31  ALA31       0.2260
     23  O         17.7430  -12.8650   15.2430 O.2    31  ALA31      -0.2867
     24  CB        15.0040  -12.3160   14.1450 C.3    31  ALA31       0.0290
     25  N         12.7950   -4.6220   20.7150 N.3    55  VAL55      -0.1245
     26  CA        13.1060   -6.0220   20.4080 C.3    55  VAL55       0.1561
     27  C         14.3550   -6.4840   21.1800 C.2    55  VAL55       0.2260
     28  O         15.4320   -5.8520   21.1530 O.2    55  VAL55      -0.2867
     29  CB        13.3520   -6.1790   18.8990 C.3    55  VAL55       0.0252
     30  CG1       13.9330   -7.5270   18.4960 C.3    55  VAL55       0.0019
     31  CG2       12.0390   -5.9920   18.1800 C.3    55  VAL55       0.0019
     32  N         18.2820  -12.0350   17.8070 N.3    71  PHE71      -0.1227
     33  CA        17.1470  -11.2330   18.3380 C.3    71  PHE71       0.1736
     34  C         15.9970  -12.1540   18.6550 C.2    71  PHE71       0.2595
     35  O         15.9140  -13.2070   18.1130 O.2    71  PHE71      -0.2718
     36  CB        16.6830  -10.1790   17.3260 C.3    71  PHE71       0.0547
     37  CG        17.6800   -9.0390   17.0970 C.ar   71  PHE71      -0.0202
     38  CD1       17.8040   -8.0110   18.0090 C.ar   71  PHE71      -0.0042
     39  CD2       18.4120   -8.9660   15.9370 C.ar   71  PHE71      -0.0042
     40  CE1       18.6870   -6.9570   17.8060 C.ar   71  PHE71      -0.0003
     41  CE2       19.2980   -7.9090   15.7080 C.ar   71  PHE71      -0.0003
     42  CZ        19.4270   -6.8910   16.6680 C.ar   71  PHE71      -0.0000
     43  N         15.1460  -11.7860   19.6020 N.am   72  GLU72      -0.1965
     44  CA        13.8540  -12.4230   19.7350 C.3    72  GLU72       0.1733
     45  C         13.0580  -12.2070   18.4300 C.2    72  GLU72       0.2616
     46  O         13.2250  -11.2280   17.7280 O.2    72  GLU72      -0.2715
     47  CB        13.0730  -11.8440   20.9150 C.3    72  GLU72       0.0429
     48  CG        12.6320  -10.4090   20.6900 C.3    72  GLU72       0.1163
     49  CD        11.5710   -9.8700   21.6520 C.2    72  GLU72       0.3649
     50  OE1       10.5090  -10.5060   21.9030 O.co2  72  GLU72      -0.2457
     51  OE2       11.7740   -8.7480   22.1250 O.co2  72  GLU72      -0.2457
     52  N         12.2260  -13.1670   18.1200 N.am   73  PHE73      -0.1960
     53  CA        11.4580  -13.1870   16.9170 C.3    73  PHE73       0.1771
     54  C         10.0670  -12.6350   17.1910 C.2    73  PHE73       0.2619
     55  O          9.3960  -13.0980   18.1040 O.2    73  PHE73      -0.2715
     56  CB        11.3770  -14.6360   16.4250 C.3    73  PHE73       0.0574
     57  CG        10.5660  -14.7950   15.2130 C.ar   73  PHE73      -0.0200
     58  CD1       11.0350  -14.3060   14.0130 C.ar   73  PHE73      -0.0042
     59  CD2        9.3010  -15.3330   15.2810 C.ar   73  PHE73      -0.0042
     60  CE1       10.3050  -14.4000   12.8670 C.ar   73  PHE73      -0.0003
     61  CE2        8.5350  -15.4310   14.1230 C.ar   73  PHE73      -0.0003
     62  CZ         9.0390  -14.9500   12.9150 C.ar   73  PHE73      -0.0000
     63  N          9.6150  -11.6670   16.3810 N.am   74  LEU74      -0.1963
     64  CA         8.2150  -11.2620   16.4260 C.3    74  LEU74       0.1728
     65  C          7.5640  -11.7330   15.1210 C.2    74  LEU74       0.2616
     66  O          8.2370  -12.0230   14.1130 O.2    74  LEU74      -0.2715
     67  CB         8.0780   -9.7670   16.5340 C.3    74  LEU74       0.0311
     68  CG         8.4070   -8.9810   17.8220 C.3    74  LEU74       0.0022
     69  CD1        7.2180   -8.9330   18.7850 C.3    74  LEU74       0.0001
     70  CD2        9.6850   -9.4570   18.4880 C.3    74  LEU74       0.0001
     71  N          6.2340  -11.7200   15.0880 N.am   75  HIS75      -0.1959
     72  CA         5.5390  -12.4230   14.0400 C.3    75  HIS75       0.1787
     73  C          5.0840  -11.6600   12.8860 C.2    75  HIS75       0.2620
     74  O          4.8600  -12.2800   11.7850 O.2    75  HIS75      -0.2715
     75  CB         4.4090  -13.3230   14.5370 C.3    75  HIS75       0.0785
     76  CG         4.8370  -14.7420   14.7750 C.ar   75  HIS75       0.0821
     77  ND1        4.5690  -15.7680   13.8940 N.ar   75  HIS75      -0.2267
     78  CD2        5.4810  -15.3070   15.8160 C.ar   75  HIS75       0.1154
     79  CE1        5.0100  -16.9060   14.3830 C.ar   75  HIS75       0.1986
     80  NE2        5.5790  -16.6560   15.5450 N.ar   75  HIS75      -0.2212
     81  N          4.9940  -10.3360   13.0020 N.am   76  GLN76      -0.1963
     82  CA         4.6890   -9.5790   11.7690 C.3    76  GLN76       0.1733
     83  C          5.2690   -8.1840   11.8930 C.2    76  GLN76       0.2616
     84  O          5.4590   -7.6900   12.9900 O.2    76  GLN76      -0.2715
     85  CB         3.1640   -9.5020   11.5940 C.3    76  GLN76       0.0408
     86  CG         2.6770   -8.9540   10.2760 C.3    76  GLN76       0.0908
     87  CD         1.2640   -9.3720    9.9610 C.2    76  GLN76       0.2608
     88  OE1        0.3440   -8.5570   10.0700 O.2    76  GLN76      -0.2717
     89  NE2        1.0640  -10.6550    9.5880 N.am   76  GLN76      -0.0878
     90  N          5.5620   -7.5670   10.7620 N.am   77  ASP77      -0.1971
     91  CA         5.9990   -6.1360   10.7730 C.3    77  ASP77       0.1709
     92  C          4.8290   -5.1880   10.4500 C.2    77  ASP77       0.2293
     93  O          3.7760   -5.6070   10.0080 O.2    77  ASP77      -0.2864
     94  CB         7.2330   -5.9180    9.9250 C.3    77  ASP77       0.1436
     95  CG         6.9940   -5.8940    8.4360 C.2    77  ASP77       0.3671
     96  OD1        5.9690   -5.3470    7.9630 O.co2  77  ASP77      -0.2456
     97  OD2        7.9200   -6.3970    7.7560 O.co2  77  ASP77      -0.2456
     98  N          3.4230   -4.9770    6.6920 N.3    80  LYS80      -0.1245
     99  CA         2.5810   -6.0770    6.2520 C.3    80  LYS80       0.1561
    100  C          1.1910   -5.8980    6.9350 C.2    80  LYS80       0.2260
    101  O          0.1390   -6.0830    6.3510 O.2    80  LYS80      -0.2867
    102  CB         3.2150   -7.4340    6.6390 C.3    80  LYS80       0.0271
    103  CG         2.3560   -8.6420    6.2600 C.3    80  LYS80       0.0035
    104  CD         3.2150   -9.9320    6.1540 C.3    80  LYS80       0.0206
    105  CE         2.2700  -11.1070    6.0280 C.3    80  LYS80       0.1093
    106  NZ         2.9890  -12.3760    5.7480 N.3    80  LYS80      -0.1314
    107  N          8.9100   -1.3560    8.4610 N.3   122  GLN122     -0.1231
    108  CA         9.6160   -2.6490    8.4750 C.3   122  GLN122      0.1698
    109  C         10.4890   -2.9300    9.6780 C.2   122  GLN122      0.2592
    110  O         10.8760   -4.0740    9.8780 O.2   122  GLN122     -0.2718
    111  CB        10.4400   -2.7900    7.2100 C.3   122  GLN122      0.0381
    112  CG         9.5880   -2.7260    5.9990 C.3   122  GLN122      0.0905
    113  CD         9.8650   -1.4240    5.3140 C.2   122  GLN122      0.2608
    114  OE1        9.3960   -0.2760    5.7260 O.2   122  GLN122     -0.2717
    115  NE2       10.7480   -1.5390    4.3570 N.am  122  GLN122     -0.0878
    116  N         10.8010   -1.9000   10.4690 N.am  123  ASN123     -0.1974
    117  CA        11.4940   -2.0100   11.7200 C.3   123  ASN123      0.1688
    118  C         10.5690   -1.9830   12.9330 C.2   123  ASN123      0.2292
    119  O         11.0760   -1.9170   14.0290 O.2   123  ASN123     -0.2864
    120  CB        12.4390   -0.8340   11.8960 C.3   123  ASN123      0.1181
    121  CG        13.5790   -0.8580   10.9070 C.2   123  ASN123      0.2629
    122  OD1       14.0170   -1.9180   10.4250 O.2   123  ASN123     -0.2716
    123  ND2       14.0590    0.2930   10.5960 N.am  123  ASN123     -0.0877
    124  N          7.6940   -4.0530   14.8550 N.3   125  LEU125     -0.1245
    125  CA         7.3040   -5.4450   14.8310 C.3   125  LEU125      0.1561
    126  C          6.1740   -5.6850   15.8780 C.2   125  LEU125      0.2260
    127  O          6.2290   -5.1480   16.9940 O.2   125  LEU125     -0.2867
    128  CB         8.4940   -6.2980   15.1940 C.3   125  LEU125      0.0270
    129  CG         9.6510   -6.1880   14.2420 C.3   125  LEU125      0.0019
    130  CD1       10.6970   -7.1130   14.7570 C.3   125  LEU125      0.0001
    131  CD2        9.2580   -6.5940   12.8030 C.3   125  LEU125      0.0001
    132  N         12.9000   -2.4210   16.3020 N.3   135  ALA135     -0.1231
    133  CA        14.0130   -3.3060   15.9310 C.3   135  ALA135      0.1694
    134  C         15.0470   -2.4350   15.2290 C.2   135  ALA135      0.2592
    135  O         14.6560   -1.4540   14.5790 O.2   135  ALA135     -0.2718
    136  CB        13.5140   -4.3440   14.9380 C.3   135  ALA135      0.0304
    137  N         16.3270   -2.7850   15.3570 N.am  136  ASP136     -0.1974
    138  CA        17.4920   -2.1710   14.6080 C.3   136  ASP136      0.1709
    139  C         18.0510   -0.9120   15.1570 C.2   136  ASP136      0.2293
    140  O         18.7570   -0.2130   14.4450 O.2   136  ASP136     -0.2864
    141  CB        17.2130   -1.8800   13.1240 C.3   136  ASP136      0.1436
    142  CG        16.8270   -3.1010   12.3580 C.2   136  ASP136      0.3671
    143  OD1       16.5750   -4.0990   13.0180 O.co2 136  ASP136     -0.2456
    144  OD2       16.8180   -3.0750   11.1010 O.co2 136  ASP136     -0.2456
@<TRIPOS>BOND
     1   115   113   am
     2    12    11    2
     3   113   114    2
     4   113   112    1
     5    11    10    1
     6   106   105    1
     7    10     9    1
     8   112   111    1
     9   105   104    1
    10     9     3   am
    11   104   103    1
    12     1     2    1
    13    99   102    1
    14    99    98    1
    15    99   100    1
    16   103   102    1
    17     3     4    2
    18     3     2    1
    19   101   100    2
    20     2     5    1
    21   111   108    1
    22    16    15    2
    23    13    14    1
    24    97    95   ar
    25    96    95   ar
    26     5     7    1
    27     5     6    1
    28    15    14    1
    29    95    94    1
    30   107   108    1
    31   108   109    1
    32    14    17    1
    33     6     8    1
    34    17    19    1
    35    17    18    1
    36    89    87   am
    37   109   110    2
    38   109   116   am
    39    94    91    1
    40    87    88    2
    41    87    86    1
    42    93    92    2
    43    86    85    1
    44   122   121    2
    45    92    91    1
    46   116   117    1
    47   123   121   am
    48    90    91    1
    49    90    83   am
    50   121   120    1
    51   144   142   ar
    52    85    82    1
    53   117   120    1
    54   117   118    1
    55    82    83    1
    56    82    81    1
    57    74    73    2
    58    83    84    2
    59   142   143   ar
    60   142   141    1
    61   131   129    1
    62    60    62   ar
    63    60    58   ar
    64    73    81   am
    65    73    72    1
    66    62    61   ar
    67   118   119    2
    68   141   138    1
    69    77    79   ar
    70    77    76   ar
    71    58    57   ar
    72    72    75    1
    73    72    71    1
    74    66    65    2
    75    61    59   ar
    76    24    21    1
    77   129   130    1
    78   129   128    1
    79    21    22    1
    80    21    20    1
    81    22    23    2
    82    79    80   ar
    83   140   139    2
    84    75    76    1
    85   135   134    2
    86   138   139    1
    87   138   137    1
    88    76    78   ar
    89   125   124    1
    90   125   128    1
    91   125   126    1
    92   136   133    1
    93    71    65   am
    94    65    64    1
    95    57    59   ar
    96    57    56    1
    97   134   137   am
    98   134   133    1
    99    80    78   ar
   100    41    39   ar
   101    41    42   ar
   102   126   127    2
   103   133   132    1
   104    39    37   ar
   105    63    64    1
   106    63    54   am
   107    56    53    1
   108    64    67    1
   109    67    68    1
   110    42    40   ar
   111    53    54    1
   112    53    52    1
   113    37    36    1
   114    37    38   ar
   115    54    55    2
   116    36    33    1
   117    46    45    2
   118    40    38   ar
   119    32    33    1
   120    68    70    1
   121    68    69    1
   122    35    34    2
   123    52    45   am
   124    31    29    1
   125    33    34    1
   126    45    44    1
   127    30    29    1
   128    34    43   am
   129    29    26    1
   130    43    44    1
   131    44    47    1
   132    26    25    1
   133    26    27    1
   134    48    47    1
   135    48    49    1
   136    28    27    2
   137    49    50   ar
   138    49    51   ar
