@<TRIPOS>MOLECULE
tmp/4bgkA01.pdb
 125 122 0 0 0
SMALL
GASTEIGER

@<TRIPOS>ATOM
      1  N         26.3950   33.3790   93.3550 N.3   177  TYR177     -0.1241
      2  CA        26.5110   34.2550   92.1800 C.3   177  TYR177      0.1605
      3  C         26.3530   35.7380   92.4980 C.2   177  TYR177      0.2264
      4  O         26.4570   36.5770   91.6040 O.2   177  TYR177     -0.2867
      5  CB        25.5370   33.8190   91.0930 C.3   177  TYR177      0.0534
      6  CG        25.9290   32.5020   90.5000 C.ar  177  TYR177     -0.0201
      7  CD1       26.9770   32.4250   89.5800 C.ar  177  TYR177     -0.0009
      8  CD2       25.3110   31.3160   90.9000 C.ar  177  TYR177     -0.0009
      9  CE1       27.3600   31.2100   89.0350 C.ar  177  TYR177      0.0417
     10  CE2       25.7030   30.0950   90.3710 C.ar  177  TYR177      0.0417
     11  CZ        26.7290   30.0490   89.4330 C.ar  177  TYR177      0.1957
     12  OH        27.1410   28.8540   88.8810 O.3   177  TYR177     -0.2866
     13  N         23.2860   39.6300   89.7560 N.3   181  TRP181     -0.1241
     14  CA        24.2390   39.0140   88.8190 C.3   181  TRP181      0.1605
     15  C         23.8970   39.4020   87.3970 C.2   181  TRP181      0.2264
     16  O         22.7540   39.7620   87.0910 O.2   181  TRP181     -0.2867
     17  CB        24.2790   37.4870   88.9530 C.3   181  TRP181      0.0550
     18  CG        23.0350   36.8840   89.5060 C.ar  181  TRP181      0.0003
     19  CD1       22.7790   36.6320   90.7980 C.ar  181  TRP181      0.0946
     20  CD2       21.8800   36.4540   88.7750 C.ar  181  TRP181      0.0152
     21  NE1       21.5280   36.0880   90.9440 N.ar  181  TRP181     -0.2442
     22  CE2       20.9540   35.9630   89.7120 C.ar  181  TRP181      0.0810
     23  CE3       21.5360   36.4420   87.4240 C.ar  181  TRP181      0.0012
     24  CZ2       19.7240   35.4740   89.3490 C.ar  181  TRP181      0.0191
     25  CZ3       20.3210   35.9540   87.0670 C.ar  181  TRP181      0.0001
     26  CH2       19.4220   35.4700   88.0240 C.ar  181  TRP181      0.0015
     27  N         23.5790   38.5820   83.5160 N.3   183  VAL183     -0.1245
     28  CA        23.4370   37.5500   82.4950 C.3   183  VAL183      0.1561
     29  C         23.9300   38.1350   81.1950 C.2   183  VAL183      0.2260
     30  O         23.2660   38.9750   80.5850 O.2   183  VAL183     -0.2867
     31  CB        21.9890   37.0600   82.3370 C.3   183  VAL183      0.0252
     32  CG1       21.9410   35.8900   81.3670 C.3   183  VAL183      0.0019
     33  CG2       21.4150   36.7000   83.7020 C.3   183  VAL183      0.0019
     34  N         29.1480   29.4160   84.0980 N.3   191  ASN191     -0.1240
     35  CA        27.7480   28.9720   84.0600 C.3   191  ASN191      0.1653
     36  C         27.2610   29.0800   82.6380 C.2   191  ASN191      0.2266
     37  O         27.6130   30.0340   81.9470 O.2   191  ASN191     -0.2867
     38  CB        26.8950   29.8250   84.9960 C.3   191  ASN191      0.1155
     39  CG        25.5260   29.2110   85.2800 C.2   191  ASN191      0.2627
     40  OD1       24.5960   29.3350   84.4910 O.2   191  ASN191     -0.2716
     41  ND2       25.3920   28.5910   86.4500 N.am  191  ASN191     -0.0877
     42  N         24.5250   29.8940   81.5640 N.3   193  ALA193     -0.1231
     43  CA        23.7200   31.1030   81.4120 C.3   193  ALA193      0.1694
     44  C         24.5540   32.2650   80.8870 C.2   193  ALA193      0.2592
     45  O         24.0410   33.1480   80.1990 O.2   193  ALA193     -0.2718
     46  CB        23.0720   31.4680   82.7320 C.3   193  ALA193      0.0304
     47  N         25.8450   32.2540   81.2010 N.am  194  TYR194     -0.1976
     48  CA        26.7240   33.3560   80.8340 C.3   194  TYR194      0.1639
     49  C         27.4730   33.0330   79.5280 C.2   194  TYR194      0.2290
     50  O         28.6740   33.2890   79.4110 O.2   194  TYR194     -0.2864
     51  CB        27.7120   33.6640   81.9650 C.3   194  TYR194      0.0560
     52  CG        27.0980   33.9650   83.3280 C.ar  194  TYR194     -0.0198
     53  CD1       25.8370   34.5760   83.4550 C.ar  194  TYR194     -0.0009
     54  CD2       27.8130   33.7050   84.4900 C.ar  194  TYR194     -0.0009
     55  CE1       25.3110   34.8750   84.7000 C.ar  194  TYR194      0.0417
     56  CE2       27.2890   33.9920   85.7460 C.ar  194  TYR194      0.0417
     57  CZ        26.0410   34.5700   85.8420 C.ar  194  TYR194      0.1957
     58  OH        25.5330   34.8480   87.0760 O.3   194  TYR194     -0.2866
     59  N         15.9390   27.5130   88.3230 N.3   204  ASP204     -0.1225
     60  CA        17.2540   27.9810   88.7820 C.3   204  ASP204      0.1805
     61  C         17.6560   27.3620   90.1190 C.2   204  ASP204      0.2598
     62  O         16.8320   27.2120   91.0160 O.2   204  ASP204     -0.2718
     63  CB        17.3140   29.5140   88.8860 C.3   204  ASP204      0.1424
     64  CG        17.8060   30.1590   87.6140 C.2   204  ASP204      0.3668
     65  OD1       17.5620   29.5860   86.5620 O.co2 204  ASP204     -0.2456
     66  OD2       18.4480   31.2330   87.6560 O.co2 204  ASP204     -0.2456
     67  N         18.9360   26.9860   90.2000 N.am  205  TYR205     -0.1963
     68  CA        19.5990   26.5370   91.4040 C.3   205  TYR205      0.1756
     69  C         19.0510   25.2740   92.0830 C.2   205  TYR205      0.2461
     70  O         18.9370   25.2360   93.3120 O.2   205  TYR205     -0.2730
     71  CB        19.6590   27.6860   92.3960 C.3   205  TYR205      0.0574
     72  CG        21.0530   28.2220   92.6820 C.ar  205  TYR205     -0.0198
     73  CD1       22.1360   27.3590   92.8750 C.ar  205  TYR205     -0.0009
     74  CD2       21.2710   29.5960   92.8020 C.ar  205  TYR205     -0.0009
     75  CE1       23.3840   27.8480   93.1630 C.ar  205  TYR205      0.0417
     76  CE2       22.5190   30.0980   93.0880 C.ar  205  TYR205      0.0417
     77  CZ        23.5650   29.2280   93.2850 C.ar  205  TYR205      0.1957
     78  OH        24.8040   29.7260   93.5910 O.3   205  TYR205     -0.2866
     79  N         18.7430   24.2120   91.3090 N.am  206  PRO206     -0.2716
     80  CA        18.4800   22.9760   92.0190 C.3   206  PRO206      0.1536
     81  C         19.7170   22.4030   92.7270 C.2   206  PRO206      0.2598
     82  O         19.5530   21.5380   93.5880 O.2   206  PRO206     -0.2715
     83  CB        17.9700   22.0330   90.9310 C.3   206  PRO206      0.0310
     84  CG        18.4930   22.5830   89.6760 C.3   206  PRO206      0.0237
     85  CD        18.4870   24.0640   89.8710 C.3   206  PRO206      0.0939
     86  N         20.9190   22.9190   92.4100 N.am  207  ALA207     -0.1978
     87  CA        22.1280   22.5780   93.1780 C.3   207  ALA207      0.1597
     88  C         22.0270   22.9810   94.6500 C.2   207  ALA207      0.2287
     89  O         22.8230   22.5270   95.4550 O.2   207  ALA207     -0.2864
     90  CB        23.3850   23.1940   92.5480 C.3   207  ALA207      0.0319
     91  N         27.3350   22.1670   91.4530 N.3   261  ASP261     -0.1239
     92  CA        27.8530   23.4200   90.9240 C.3   261  ASP261      0.1674
     93  C         29.1770   23.7430   91.5870 C.2   261  ASP261      0.2266
     94  O         29.2280   23.9030   92.8020 O.2   261  ASP261     -0.2867
     95  CB        26.8410   24.5680   91.1160 C.3   261  ASP261      0.1410
     96  CG        27.0960   25.7600   90.1960 C.2   261  ASP261      0.3668
     97  OD1       27.8600   25.6540   89.1990 O.co2 261  ASP261     -0.2456
     98  OD2       26.5310   26.8330   90.4840 O.co2 261  ASP261     -0.2456
     99  N         17.3770   21.4550   86.4800 N.3   292  ASN292     -0.1240
    100  CA        18.2150   22.1490   85.5260 C.3   292  ASN292      0.1653
    101  C         19.1620   21.1320   84.8890 C.2   292  ASN292      0.2266
    102  O         19.9820   20.5040   85.5690 O.2   292  ASN292     -0.2867
    103  CB        18.9560   23.3030   86.1970 C.3   292  ASN292      0.1155
    104  CG        19.7670   24.1270   85.2110 C.2   292  ASN292      0.2627
    105  OD1       20.0190   23.6900   84.0730 O.2   292  ASN292     -0.2716
    106  ND2       20.2110   25.3110   85.6350 N.am  292  ASN292     -0.0877
    107  N         23.1350   21.5180   85.3750 N.3   295  THR295     -0.1218
    108  CA        23.7290   21.3060   86.6730 C.3   295  THR295      0.1862
    109  C         23.3830   19.9600   87.2690 C.2   295  THR295      0.2287
    110  O         23.8670   19.6270   88.3490 O.2   295  THR295     -0.2866
    111  CB        23.3070   22.4000   87.6840 C.3   295  THR295      0.1770
    112  OG1       21.8990   22.3560   87.9220 O.3   295  THR295     -0.2211
    113  CG2       23.6760   23.7660   87.1940 C.3   295  THR295      0.0375
    114  N         17.4190   36.8970   93.2300 N.3   366  TYR366     -0.1241
    115  CA        16.4990   35.9450   93.7710 C.3   366  TYR366      0.1605
    116  C         15.8440   36.5060   95.0320 C.2   366  TYR366      0.2264
    117  O         16.4170   37.3650   95.7140 O.2   366  TYR366     -0.2867
    118  CB        17.2480   34.6710   94.1440 C.3   366  TYR366      0.0534
    119  CG        17.8760   33.9320   92.9660 C.ar  366  TYR366     -0.0201
    120  CD1       17.0940   33.4920   91.8870 C.ar  366  TYR366     -0.0009
    121  CD2       19.2360   33.6780   92.9350 C.ar  366  TYR366     -0.0009
    122  CE1       17.6550   32.8040   90.8280 C.ar  366  TYR366      0.0417
    123  CE2       19.8110   33.0060   91.8890 C.ar  366  TYR366      0.0417
    124  CZ        19.0230   32.5530   90.8460 C.ar  366  TYR366      0.1957
    125  OH        19.6220   31.8900   89.8110 O.3   366  TYR366     -0.2866
@<TRIPOS>BOND
     1    50    49    2
     2    49    48    1
     3    45    44    2
     4    30    29    2
     5    48    47    1
     6    48    51    1
     7    44    47   am
     8    44    43    1
     9    29    28    1
    10    32    31    1
    11    43    42    1
    12    43    46    1
    13    37    36    2
    14    51    52    1
    15    31    28    1
    16    31    33    1
    17    28    27    1
    18    36    35    1
    19    52    53   ar
    20    52    54   ar
    21    53    55   ar
    22    35    34    1
    23    35    38    1
    24   105   104    2
    25    54    56   ar
    26    40    39    2
    27    55    57   ar
    28   101   100    1
    29   101   102    2
    30    38    39    1
    31   104   106   am
    32   104   103    1
    33    39    41   am
    34   107   108    1
    35   100   103    1
    36   100    99    1
    37    56    57   ar
    38    57    58    1
    39    65    64   ar
    40   108   109    1
    41   108   111    1
    42    25    23   ar
    43    25    26   ar
    44    16    15    2
    45   113   111    1
    46   109   110    2
    47    15    14    1
    48    23    20   ar
    49    64    66   ar
    50    64    63    1
    51   111   112    1
    52    26    24   ar
    53    59    60    1
    54    20    18   ar
    55    20    22   ar
    56    60    63    1
    57    60    61    1
    58    14    17    1
    59    14    13    1
    60    12    11    1
    61    17    18    1
    62     9    11   ar
    63     9     7   ar
    64    97    96   ar
    65    24    22   ar
    66    11    10   ar
    67    18    19   ar
    68     7     6   ar
    69    84    85    1
    70    84    83    1
    71    22    21   ar
    72   125   124    1
    73    85    79    1
    74    61    67   am
    75    61    62    2
    76    96    98   ar
    77    96    95    1
    78    67    68    1
    79    10     8   ar
    80     6     8   ar
    81     6     5    1
    82    19    21   ar
    83   122   124   ar
    84   122   120   ar
    85   124   123   ar
    86    92    95    1
    87    92    91    1
    88    92    93    1
    89    83    80    1
    90     5     2    1
    91    79    80    1
    92    79    69   am
    93    68    69    1
    94    68    71    1
    95    93    94    2
    96     4     3    2
    97   120   119   ar
    98   123   121   ar
    99    80    81    1
   100    69    70    2
   101     2     3    1
   102     2     1    1
   103    71    72    1
   104    86    81   am
   105    86    87    1
   106    90    87    1
   107    72    74   ar
   108    72    73   ar
   109    81    82    2
   110    74    76   ar
   111    73    75   ar
   112   121   119   ar
   113   119   118    1
   114    76    77   ar
   115    75    77   ar
   116    87    88    1
   117   114   115    1
   118    77    78    1
   119   115   118    1
   120   115   116    1
   121    88    89    2
   122   116   117    2
