@<TRIPOS>MOLECULE
tmp/4bgmA01.pdb
 142 138 0 0 0
SMALL
GASTEIGER

@<TRIPOS>ATOM
      1  N         23.1640   34.4690   97.2120 N.3   175  THR175     -0.1218
      2  CA        23.6960   33.1700   96.7940 C.3   175  THR175      0.1862
      3  C         25.1400   33.3290   96.4160 C.2   175  THR175      0.2287
      4  O         25.7040   34.4110   96.5480 O.2   175  THR175     -0.2866
      5  CB        22.9010   32.5230   95.6480 C.3   175  THR175      0.1770
      6  OG1       23.1170   33.2230   94.4040 O.3   175  THR175     -0.2211
      7  CG2       21.4150   32.5210   95.9770 C.3   175  THR175      0.0375
      8  N         26.2840   33.4310   93.6170 N.3   177  TYR177     -0.1241
      9  CA        26.3900   34.2480   92.4190 C.3   177  TYR177      0.1605
     10  C         26.1550   35.7130   92.7210 C.2   177  TYR177      0.2264
     11  O         26.0590   36.5030   91.8030 O.2   177  TYR177     -0.2867
     12  CB        25.4180   33.7320   91.3630 C.3   177  TYR177      0.0534
     13  CG        25.8660   32.4080   90.7660 C.ar  177  TYR177     -0.0201
     14  CD1       26.7940   32.3740   89.7240 C.ar  177  TYR177     -0.0009
     15  CD2       25.3830   31.1800   91.2620 C.ar  177  TYR177     -0.0009
     16  CE1       27.2140   31.1660   89.1840 C.ar  177  TYR177      0.0417
     17  CE2       25.7960   29.9680   90.7240 C.ar  177  TYR177      0.0417
     18  CZ        26.6970   29.9690   89.6710 C.ar  177  TYR177      0.1957
     19  OH        27.1330   28.7820   89.1240 O.3   177  TYR177     -0.2866
     20  N         23.0750   39.5040   89.9980 N.3   181  TRP181     -0.1241
     21  CA        24.0140   38.8820   89.0860 C.3   181  TRP181      0.1605
     22  C         23.6790   39.2860   87.6790 C.2   181  TRP181      0.2264
     23  O         22.5440   39.6560   87.3900 O.2   181  TRP181     -0.2867
     24  CB        23.9970   37.3550   89.2000 C.3   181  TRP181      0.0550
     25  CG        22.7500   36.7690   89.7000 C.ar  181  TRP181      0.0003
     26  CD1       22.4530   36.4790   90.9890 C.ar  181  TRP181      0.0946
     27  CD2       21.6070   36.3760   88.9150 C.ar  181  TRP181      0.0152
     28  NE1       21.1920   35.9380   91.0670 N.ar  181  TRP181     -0.2442
     29  CE2       20.6480   35.8740   89.8090 C.ar  181  TRP181      0.0810
     30  CE3       21.3040   36.4100   87.5460 C.ar  181  TRP181      0.0012
     31  CZ2       19.4310   35.3890   89.3850 C.ar  181  TRP181      0.0191
     32  CZ3       20.0800   35.9430   87.1300 C.ar  181  TRP181      0.0001
     33  CH2       19.1660   35.4270   88.0430 C.ar  181  TRP181      0.0015
     34  N         23.4560   38.5040   83.7070 N.3   183  VAL183     -0.1245
     35  CA        23.3000   37.4400   82.6950 C.3   183  VAL183      0.1561
     36  C         23.7090   37.9970   81.3480 C.2   183  VAL183      0.2260
     37  O         22.9940   38.7850   80.7390 O.2   183  VAL183     -0.2867
     38  CB        21.8570   36.9130   82.6240 C.3   183  VAL183      0.0252
     39  CG1       21.7240   35.8010   81.5760 C.3   183  VAL183      0.0019
     40  CG2       21.4410   36.3980   83.9750 C.3   183  VAL183      0.0019
     41  N         29.0900   29.2740   84.2150 N.3   191  ASN191     -0.1240
     42  CA        27.6910   28.8420   84.1950 C.3   191  ASN191      0.1653
     43  C         27.0870   28.9750   82.7990 C.2   191  ASN191      0.2266
     44  O         27.3210   29.9760   82.1430 O.2   191  ASN191     -0.2867
     45  CB        26.8960   29.6740   85.2240 C.3   191  ASN191      0.1155
     46  CG        25.5410   29.0580   85.5750 C.2   191  ASN191      0.2627
     47  OD1       24.6150   29.1030   84.7920 O.2   191  ASN191     -0.2716
     48  ND2       25.4200   28.5360   86.7840 N.am  191  ASN191     -0.0877
     49  N         24.2950   29.7680   81.7550 N.3   193  ALA193     -0.1231
     50  CA        23.5030   30.9860   81.6180 C.3   193  ALA193      0.1694
     51  C         24.3340   32.1530   81.0720 C.2   193  ALA193      0.2592
     52  O         23.8130   33.0380   80.4000 O.2   193  ALA193     -0.2718
     53  CB        22.8880   31.3480   82.9480 C.3   193  ALA193      0.0304
     54  N         25.6260   32.1280   81.3670 N.am  194  TYR194     -0.1976
     55  CA        26.5620   33.1510   80.9460 C.3   194  TYR194      0.1639
     56  C         27.2780   32.8170   79.5850 C.2   194  TYR194      0.2290
     57  O         28.5030   32.9660   79.4280 O.2   194  TYR194     -0.2864
     58  CB        27.5770   33.3810   82.0840 C.3   194  TYR194      0.0560
     59  CG        26.9700   33.7340   83.4610 C.ar  194  TYR194     -0.0198
     60  CD1       25.6900   34.3460   83.5860 C.ar  194  TYR194     -0.0009
     61  CD2       27.6970   33.5040   84.6380 C.ar  194  TYR194     -0.0009
     62  CE1       25.1680   34.6790   84.8360 C.ar  194  TYR194      0.0417
     63  CE2       27.1810   33.8470   85.8820 C.ar  194  TYR194      0.0417
     64  CZ        25.9270   34.4360   85.9730 C.ar  194  TYR194      0.1957
     65  OH        25.4500   34.7660   87.2020 O.3   194  TYR194     -0.2866
     66  N         14.1050   24.9840   82.7560 N.3   202  HIS202     -0.1241
     67  CA        14.7180   24.6160   84.0220 C.3   202  HIS202      0.1621
     68  C         14.1380   25.4730   85.1380 C.2   202  HIS202      0.2264
     69  O         13.4740   26.4860   84.8730 O.2   202  HIS202     -0.2867
     70  CB        16.2490   24.8510   83.9650 C.3   202  HIS202      0.0745
     71  CG        16.6460   26.2780   83.7280 C.ar  202  HIS202      0.0817
     72  ND1       16.5220   26.8930   82.5060 N.ar  202  HIS202     -0.2268
     73  CD2       17.1740   27.2070   84.5600 C.ar  202  HIS202      0.1154
     74  CE1       16.9460   28.1430   82.5940 C.ar  202  HIS202      0.1986
     75  NE2       17.3450   28.3590   83.8340 N.ar  202  HIS202     -0.2212
     76  N         15.8160   27.4450   88.5750 N.3   204  ASP204     -0.1225
     77  CA        17.1400   27.9270   88.9760 C.3   204  ASP204      0.1805
     78  C         17.5220   27.3810   90.3320 C.2   204  ASP204      0.2598
     79  O         16.6940   27.2810   91.2300 O.2   204  ASP204     -0.2718
     80  CB        17.1610   29.4500   89.0500 C.3   204  ASP204      0.1424
     81  CG        17.6560   30.1040   87.7620 C.2   204  ASP204      0.3668
     82  OD1       17.4740   29.5190   86.6430 O.co2 204  ASP204     -0.2456
     83  OD2       18.1900   31.2340   87.8960 O.co2 204  ASP204     -0.2456
     84  N         18.7960   27.0240   90.4310 N.am  205  TYR205     -0.1963
     85  CA        19.4940   26.5870   91.6270 C.3   205  TYR205      0.1756
     86  C         18.9990   25.3160   92.3300 C.2   205  TYR205      0.2461
     87  O         18.9920   25.2560   93.5650 O.2   205  TYR205     -0.2730
     88  CB        19.6080   27.7510   92.5960 C.3   205  TYR205      0.0574
     89  CG        21.0320   28.2160   92.9350 C.ar  205  TYR205     -0.0198
     90  CD1       22.0580   27.3070   93.1780 C.ar  205  TYR205     -0.0009
     91  CD2       21.3280   29.5790   93.0590 C.ar  205  TYR205     -0.0009
     92  CE1       23.3390   27.7350   93.5010 C.ar  205  TYR205      0.0417
     93  CE2       22.6020   30.0140   93.3890 C.ar  205  TYR205      0.0417
     94  CZ        23.6130   29.0860   93.6220 C.ar  205  TYR205      0.1957
     95  OH        24.8860   29.5070   93.9820 O.3   205  TYR205     -0.2866
     96  N         18.6570   24.2530   91.5720 N.am  206  PRO206     -0.2716
     97  CA        18.4060   22.9850   92.2570 C.3   206  PRO206      0.1536
     98  C         19.6370   22.4180   92.9950 C.2   206  PRO206      0.2598
     99  O         19.4910   21.5550   93.8860 O.2   206  PRO206     -0.2715
    100  CB        18.0050   22.0590   91.1260 C.3   206  PRO206      0.0310
    101  CG        18.6810   22.6320   89.9320 C.3   206  PRO206      0.0237
    102  CD        18.4730   24.1080   90.1220 C.3   206  PRO206      0.0939
    103  N         20.8340   22.8930   92.6410 N.am  207  ALA207     -0.1978
    104  CA        22.0510   22.5430   93.4040 C.3   207  ALA207      0.1597
    105  C         21.9550   22.9310   94.8800 C.2   207  ALA207      0.2287
    106  O         22.7410   22.4500   95.6660 O.2   207  ALA207     -0.2864
    107  CB        23.2840   23.1750   92.7830 C.3   207  ALA207      0.0319
    108  N         27.4110   22.0220   91.6210 N.3   261  ASP261     -0.1239
    109  CA        27.8880   23.3160   91.1230 C.3   261  ASP261      0.1674
    110  C         29.2150   23.6100   91.8110 C.2   261  ASP261      0.2266
    111  O         29.2420   23.7910   93.0280 O.2   261  ASP261     -0.2867
    112  CB        26.8680   24.4290   91.4040 C.3   261  ASP261      0.1410
    113  CG        27.0510   25.6590   90.5130 C.2   261  ASP261      0.3668
    114  OD1       27.6700   25.5830   89.4200 O.co2 261  ASP261     -0.2456
    115  OD2       26.5510   26.7240   90.9210 O.co2 261  ASP261     -0.2456
    116  N         17.2860   21.5810   86.7770 N.3   292  ASN292     -0.1240
    117  CA        18.0870   22.2840   85.7820 C.3   292  ASN292      0.1653
    118  C         19.0080   21.2250   85.1280 C.2   292  ASN292      0.2266
    119  O         19.7650   20.5570   85.8130 O.2   292  ASN292     -0.2867
    120  CB        18.8580   23.4390   86.4170 C.3   292  ASN292      0.1155
    121  CG        19.7720   24.1580   85.4350 C.2   292  ASN292      0.2627
    122  OD1       20.0370   23.6700   84.3380 O.2   292  ASN292     -0.2716
    123  ND2       20.2790   25.3240   85.8370 N.am  292  ASN292     -0.0877
    124  N         22.9400   21.5160   85.6040 N.3   295  THR295     -0.1218
    125  CA        23.5800   21.2740   86.8970 C.3   295  THR295      0.1862
    126  C         23.2340   19.9340   87.4700 C.2   295  THR295      0.2287
    127  O         23.6660   19.5980   88.5610 O.2   295  THR295     -0.2866
    128  CB        23.2340   22.3930   87.9270 C.3   295  THR295      0.1770
    129  OG1       21.8420   22.3570   88.2630 O.3   295  THR295     -0.2211
    130  CG2       23.5880   23.7750   87.3590 C.3   295  THR295      0.0375
    131  N         17.1580   36.8820   93.4440 N.3   366  TYR366     -0.1241
    132  CA        16.2180   35.9330   94.0060 C.3   366  TYR366      0.1605
    133  C         15.6700   36.4680   95.3150 C.2   366  TYR366      0.2264
    134  O         16.2530   37.3840   95.9210 O.2   366  TYR366     -0.2867
    135  CB        16.9360   34.6330   94.3410 C.3   366  TYR366      0.0534
    136  CG        17.5490   33.9120   93.1750 C.ar  366  TYR366     -0.0201
    137  CD1       16.7790   33.5080   92.0740 C.ar  366  TYR366     -0.0009
    138  CD2       18.9020   33.5890   93.1840 C.ar  366  TYR366     -0.0009
    139  CE1       17.3620   32.8160   91.0230 C.ar  366  TYR366      0.0417
    140  CE2       19.4770   32.8950   92.1510 C.ar  366  TYR366      0.0417
    141  CZ        18.7160   32.5130   91.0760 C.ar  366  TYR366      0.1957
    142  OH        19.3480   31.8420   90.0610 O.3   366  TYR366     -0.2866
@<TRIPOS>BOND
     1    57    56    2
     2    56    55    1
     3    52    51    2
     4    37    36    2
     5    55    54    1
     6    55    58    1
     7    51    54   am
     8    51    50    1
     9    36    35    1
    10    39    38    1
    11    50    49    1
    12    50    53    1
    13    58    59    1
    14    44    43    2
    15    72    74   ar
    16    72    71   ar
    17    74    75   ar
    18    38    35    1
    19    38    40    1
    20    35    34    1
    21    66    67    1
    22    43    42    1
    23    59    60   ar
    24    59    61   ar
    25    60    62   ar
    26    71    70    1
    27    71    73   ar
    28    75    73   ar
    29    70    67    1
    30    67    68    1
    31    42    41    1
    32    42    45    1
    33   122   121    2
    34    61    63   ar
    35    47    46    2
    36    62    64   ar
    37    69    68    2
    38   118   117    1
    39   118   119    2
    40    45    46    1
    41   121   123   am
    42   121   120    1
    43    46    48   am
    44   124   125    1
    45   117   120    1
    46   117   116    1
    47    63    64   ar
    48    64    65    1
    49    82    81   ar
    50   125   126    1
    51   125   128    1
    52    32    30   ar
    53    32    33   ar
    54   130   128    1
    55    23    22    2
    56   126   127    2
    57    30    27   ar
    58    22    21    1
    59    81    83   ar
    60    81    80    1
    61   128   129    1
    62    33    31   ar
    63    76    77    1
    64    27    25   ar
    65    27    29   ar
    66    77    80    1
    67    77    78    1
    68    21    24    1
    69    21    20    1
    70    19    18    1
    71    16    18   ar
    72    16    14   ar
    73    24    25    1
    74    31    29   ar
    75   114   113   ar
    76    18    17   ar
    77    25    26   ar
    78    14    13   ar
    79    29    28   ar
    80   101   102    1
    81   101   100    1
    82   142   141    1
    83   102    96    1
    84    78    84   am
    85    78    79    2
    86    84    85    1
    87   113   115   ar
    88   113   112    1
    89    17    15   ar
    90    13    15   ar
    91    13    12    1
    92    26    28   ar
    93   139   141   ar
    94   139   137   ar
    95   141   140   ar
    96   109   112    1
    97   109   108    1
    98   109   110    1
    99   100    97    1
   100    12     9    1
   101    96    97    1
   102    96    86   am
   103    85    86    1
   104    85    88    1
   105    11    10    2
   106   110   111    2
   107   137   136   ar
   108   140   138   ar
   109    97    98    1
   110    86    87    2
   111     9    10    1
   112     9     8    1
   113    88    89    1
   114   103    98   am
   115   103   104    1
   116   107   104    1
   117    89    91   ar
   118    89    90   ar
   119    98    99    2
   120    91    93   ar
   121   136   138   ar
   122   136   135    1
   123    90    92   ar
   124    93    94   ar
   125   104   105    1
   126   131   132    1
   127    92    94   ar
   128    94    95    1
   129   132   135    1
   130   132   133    1
   131     6     5    1
   132   105   106    2
   133   133   134    2
   134     5     7    1
   135     5     2    1
   136     3     4    2
   137     3     2    1
   138     2     1    1
