@<TRIPOS>MOLECULE
tmp/4bgqA00.pdb
 173 164 0 0 0
SMALL
GASTEIGER

@<TRIPOS>ATOM
      1  N         51.0060   34.4490   47.5840 N.3    11  VAL11      -0.1231
      2  CA        49.8690   33.9290   48.3420 C.3    11  VAL11       0.1692
      3  C         49.1730   35.0480   49.0970 C.2    11  VAL11       0.2592
      4  O         47.9530   35.1420   49.0980 O.2    11  VAL11      -0.2718
      5  CB        50.3330   32.8840   49.3830 C.3    11  VAL11       0.0266
      6  CG1       49.2470   32.6030   50.4160 C.3    11  VAL11       0.0020
      7  CG2       50.7770   31.6090   48.6910 C.3    11  VAL11       0.0020
      8  N         49.9540   35.8700   49.7760 N.am   12  GLY12      -0.1957
      9  CA        49.4030   36.9450   50.5680 C.3    12  GLY12       0.1869
     10  C         50.4560   37.9570   50.9480 C.2    12  GLY12       0.2309
     11  O         51.6490   37.6670   50.9350 O.2    12  GLY12      -0.2863
     12  N         51.3780   40.4720   58.5660 N.3    16  TYR16      -0.1241
     13  CA        52.2560   39.2940   58.7080 C.3    16  TYR16       0.1605
     14  C         53.5300   39.3870   57.8540 C.2    16  TYR16       0.2264
     15  O         54.5780   38.8680   58.2410 O.2    16  TYR16      -0.2867
     16  CB        51.5040   37.9830   58.4040 C.3    16  TYR16       0.0534
     17  CG        50.7070   37.9540   57.1070 C.ar   16  TYR16      -0.0201
     18  CD1       51.3150   37.6560   55.8860 C.ar   16  TYR16      -0.0009
     19  CD2       49.3320   38.2000   57.1110 C.ar   16  TYR16      -0.0009
     20  CE1       50.5770   37.6230   54.7070 C.ar   16  TYR16       0.0417
     21  CE2       48.5880   38.1680   55.9430 C.ar   16  TYR16       0.0417
     22  CZ        49.2100   37.8800   54.7440 C.ar   16  TYR16       0.1957
     23  OH        48.4530   37.8540   53.5930 O.3    16  TYR16      -0.2866
     24  N         53.7990   36.1210   51.9000 N.3    19  VAL19      -0.1245
     25  CA        53.8960   34.6830   51.6940 C.3    19  VAL19       0.1561
     26  C         53.9100   34.3880   50.1970 C.2    19  VAL19       0.2260
     27  O         52.9890   34.7800   49.4710 O.2    19  VAL19      -0.2867
     28  CB        52.7280   33.9220   52.3540 C.3    19  VAL19       0.0252
     29  CG1       52.8390   32.4220   52.0810 C.3    19  VAL19       0.0019
     30  CG2       52.6810   34.1920   53.8530 C.3    19  VAL19       0.0019
     31  N         55.1650   26.9960   50.8670 N.3    32  ALA32      -0.1245
     32  CA        54.8300   28.3880   51.1370 C.3    32  ALA32       0.1562
     33  C         55.9810   29.0490   51.8800 C.2    32  ALA32       0.2260
     34  O         56.3540   28.6120   52.9700 O.2    32  ALA32      -0.2867
     35  CB        53.5690   28.4620   51.9760 C.3    32  ALA32       0.0290
     36  N         57.4830   32.3010   53.7810 N.3    34  LYS34      -0.1245
     37  CA        57.1950   33.5700   54.4110 C.3    34  LYS34       0.1561
     38  C         58.4840   34.3900   54.4650 C.2    34  LYS34       0.2260
     39  O         59.4690   33.9850   55.0880 O.2    34  LYS34      -0.2867
     40  CB        56.5980   33.3660   55.8050 C.3    34  LYS34       0.0271
     41  CG        56.2430   34.6750   56.5010 C.3    34  LYS34       0.0035
     42  CD        55.3450   34.4420   57.6960 C.3    34  LYS34       0.0206
     43  CE        55.2610   35.6960   58.5500 C.3    34  LYS34       0.1093
     44  NZ        54.5850   35.4270   59.8470 N.3    34  LYS34      -0.1314
     45  N         56.9830   31.1090   68.3790 N.3    45  GLU45      -0.1245
     46  CA        56.1200   30.3850   67.4410 C.3    45  GLU45       0.1567
     47  C         56.7710   29.1120   66.9040 C.2    45  GLU45       0.2260
     48  O         56.1320   28.0540   66.8460 O.2    45  GLU45      -0.2867
     49  CB        55.6700   31.2970   66.2760 C.3    45  GLU45       0.0388
     50  CG        55.0490   30.5410   65.1030 C.3    45  GLU45       0.1160
     51  CD        54.1450   31.3900   64.2110 C.2    45  GLU45       0.3649
     52  OE1       54.3660   32.6260   64.1410 O.co2  45  GLU45      -0.2457
     53  OE2       53.2180   30.8040   63.5720 O.co2  45  GLU45      -0.2457
     54  N         49.9380   23.3480   60.5910 N.3    58  VAL58      -0.1245
     55  CA        50.8090   23.6180   59.4490 C.3    58  VAL58       0.1561
     56  C         52.2500   23.2690   59.8050 C.2    58  VAL58       0.2260
     57  O         52.7320   23.6010   60.9010 O.2    58  VAL58      -0.2867
     58  CB        50.7280   25.0820   58.9740 C.3    58  VAL58       0.0252
     59  CG1       51.4160   26.0200   59.9740 C.3    58  VAL58       0.0019
     60  CG2       51.3580   25.2260   57.5950 C.3    58  VAL58       0.0019
     61  N         57.2110   26.6960   54.8360 N.3    74  PHE74      -0.1227
     62  CA        56.1230   25.8900   55.3460 C.3    74  PHE74       0.1736
     63  C         55.5370   24.9740   54.3040 C.2    74  PHE74       0.2595
     64  O         55.6220   25.2370   53.1080 O.2    74  PHE74      -0.2718
     65  CB        54.9820   26.8040   55.8300 C.3    74  PHE74       0.0547
     66  CG        55.3280   27.6550   57.0140 C.ar   74  PHE74      -0.0202
     67  CD1       55.8820   28.9040   56.8460 C.ar   74  PHE74      -0.0042
     68  CD2       55.0560   27.2190   58.2940 C.ar   74  PHE74      -0.0042
     69  CE1       56.1830   29.7000   57.9290 C.ar   74  PHE74      -0.0003
     70  CE2       55.3700   28.0060   59.3950 C.ar   74  PHE74      -0.0003
     71  CZ        55.9260   29.2510   59.2100 C.ar   74  PHE74      -0.0000
     72  N         54.8720   23.9200   54.7800 N.am   75  GLU75      -0.1965
     73  CA        53.8840   23.2250   54.0040 C.3    75  GLU75       0.1733
     74  C         52.9800   24.2320   53.2740 C.2    75  GLU75       0.2616
     75  O         52.5580   25.2660   53.8520 O.2    75  GLU75      -0.2715
     76  CB        53.0690   22.3520   54.9730 C.3    75  GLU75       0.0429
     77  CG        51.8050   21.7320   54.4480 C.3    75  GLU75       0.1163
     78  CD        51.0340   20.9810   55.5350 C.2    75  GLU75       0.3649
     79  OE1       51.2190   21.2230   56.7590 O.co2  75  GLU75      -0.2457
     80  OE2       50.2390   20.1230   55.1470 O.co2  75  GLU75      -0.2457
     81  N         52.6610   23.9280   52.0240 N.am   76  TYR76      -0.1960
     82  CA        51.7060   24.7370   51.2690 C.3    76  TYR76       0.1771
     83  C         50.3210   24.0650   51.2440 C.2    76  TYR76       0.2619
     84  O         50.1920   22.9050   50.8780 O.2    76  TYR76      -0.2715
     85  CB        52.1610   24.9500   49.8370 C.3    76  TYR76       0.0574
     86  CG        51.1340   25.6610   48.9990 C.ar   76  TYR76      -0.0198
     87  CD1       50.9440   27.0240   49.1280 C.ar   76  TYR76      -0.0009
     88  CD2       50.3200   24.9750   48.1070 C.ar   76  TYR76      -0.0009
     89  CE1       49.9880   27.6970   48.3860 C.ar   76  TYR76       0.0417
     90  CE2       49.3770   25.6450   47.3420 C.ar   76  TYR76       0.0417
     91  CZ        49.2190   27.0090   47.4970 C.ar   76  TYR76       0.1957
     92  OH        48.2850   27.7150   46.7810 O.3    76  TYR76      -0.2866
     93  N         49.2990   24.8430   51.5910 N.am   77  VAL77      -0.1963
     94  CA        47.9150   24.4040   51.5960 C.3    77  VAL77       0.1727
     95  C         47.1950   25.3190   50.6100 C.2    77  VAL77       0.2616
     96  O         47.4530   26.5130   50.5890 O.2    77  VAL77      -0.2715
     97  CB        47.3030   24.4990   53.0020 C.3    77  VAL77       0.0290
     98  CG1       45.9520   23.8160   53.0490 C.3    77  VAL77       0.0023
     99  CG2       48.2540   23.8620   54.0170 C.3    77  VAL77       0.0023
    100  N         46.2970   24.7690   49.7960 N.am   78  GLU78      -0.1963
    101  CA        45.8300   25.4790   48.5930 C.3    78  GLU78       0.1733
    102  C         44.9860   26.7190   48.8780 C.2    78  GLU78       0.2616
    103  O         44.9220   27.6040   48.0600 O.2    78  GLU78      -0.2715
    104  CB        45.0450   24.5520   47.6480 C.3    78  GLU78       0.0429
    105  CG        43.6900   24.1590   48.1920 C.3    78  GLU78       0.1163
    106  CD        42.8280   23.4140   47.1910 C.2    78  GLU78       0.3649
    107  OE1       43.3650   22.9340   46.1760 O.co2  78  GLU78      -0.2457
    108  OE2       41.6060   23.3000   47.4450 O.co2  78  GLU78      -0.2457
    109  N         44.2990   26.7610   50.0170 N.am   79  LYS79      -0.1963
    110  CA        43.4590   27.9070   50.3360 C.3    79  LYS79       0.1728
    111  C         43.2450   28.0350   51.8500 C.2    79  LYS79       0.2616
    112  O         43.5400   27.1060   52.5980 O.2    79  LYS79      -0.2715
    113  CB        42.0980   27.7520   49.6620 C.3    79  LYS79       0.0311
    114  CG        41.2800   26.5900   50.1990 C.3    79  LYS79       0.0038
    115  CD        40.1460   26.1720   49.2670 C.3    79  LYS79       0.0206
    116  CE        39.3970   24.9610   49.8070 C.3    79  LYS79       0.1093
    117  NZ        40.2180   23.7120   49.8140 N.3    79  LYS79      -0.1314
    118  N         42.7140   29.1810   52.2710 N.am   80  ASN80      -0.1972
    119  CA        42.1570   29.3400   53.6220 C.3    80  ASN80       0.1688
    120  C         40.6430   29.5450   53.6470 C.2    80  ASN80       0.2292
    121  O         39.9860   29.7030   52.5960 O.2    80  ASN80      -0.2864
    122  CB        42.8930   30.4410   54.4070 C.3    80  ASN80       0.1181
    123  CG        42.7470   31.8250   53.8020 C.2    80  ASN80       0.2629
    124  OD1       41.8880   32.0920   52.9730 O.2    80  ASN80      -0.2716
    125  ND2       43.5860   32.7280   54.2610 N.am   80  ASN80      -0.0877
    126  N         39.1640   32.7350   52.0460 N.3    83  GLU83      -0.1245
    127  CA        39.0030   32.6630   50.5850 C.3    83  GLU83       0.1567
    128  C         37.7770   31.8620   50.2050 C.2    83  GLU83       0.2260
    129  O         37.0020   32.2340   49.3140 O.2    83  GLU83      -0.2867
    130  CB        40.2610   32.0600   49.9410 C.3    83  GLU83       0.0388
    131  CG        41.4030   33.0530   49.8830 C.3    83  GLU83       0.1160
    132  CD        42.7520   32.4150   49.5890 C.2    83  GLU83       0.3649
    133  OE1       42.7940   31.2130   49.2250 O.co2  83  GLU83      -0.2457
    134  OE2       43.7730   33.1330   49.7430 O.co2  83  GLU83      -0.2457
    135  N         41.0120   33.5970   58.3660 N.3   124  GLU124     -0.1231
    136  CA        42.2850   33.8040   57.6400 C.3   124  GLU124      0.1699
    137  C         43.3580   32.7920   57.9910 C.2   124  GLU124      0.2592
    138  O         44.1470   32.4560   57.1360 O.2   124  GLU124     -0.2718
    139  CB        42.8450   35.2360   57.8020 C.3   124  GLU124      0.0402
    140  CG        44.1350   35.4520   56.9960 C.3   124  GLU124      0.1161
    141  CD        44.5140   36.9080   56.8100 C.2   124  GLU124      0.3649
    142  OE1       44.1850   37.7190   57.6960 O.co2 124  GLU124     -0.2457
    143  OE2       45.1410   37.2370   55.7740 O.co2 124  GLU124     -0.2457
    144  N         43.4030   32.2950   59.2280 N.am  125  ASN125     -0.1974
    145  CA        44.4300   31.3300   59.5720 C.3   125  ASN125      0.1688
    146  C         43.9880   29.8660   59.7140 C.2   125  ASN125      0.2292
    147  O         44.6730   29.0480   60.3200 O.2   125  ASN125     -0.2864
    148  CB        45.2850   31.8370   60.7380 C.3   125  ASN125      0.1181
    149  CG        44.4890   32.1760   61.9550 C.2   125  ASN125      0.2629
    150  OD1       43.5280   31.4790   62.2920 O.2   125  ASN125     -0.2716
    151  ND2       44.8970   33.2550   62.6550 N.am  125  ASN125     -0.0877
    152  N         43.6650   26.9440   57.3200 N.3   127  LEU127     -0.1245
    153  CA        44.0270   26.4350   56.0000 C.3   127  LEU127      0.1561
    154  C         43.1670   25.2040   55.7110 C.2   127  LEU127      0.2260
    155  O         42.9190   24.4120   56.6070 O.2   127  LEU127     -0.2867
    156  CB        45.5300   26.1050   55.9460 C.3   127  LEU127      0.0270
    157  CG        46.4900   27.1940   56.4510 C.3   127  LEU127      0.0019
    158  CD1       47.9460   26.7590   56.2920 C.3   127  LEU127      0.0001
    159  CD2       46.2630   28.5040   55.7250 C.3   127  LEU127      0.0001
    160  N         47.3110   27.5620   61.6600 N.3   137  CYS137     -0.1221
    161  CA        48.5730   28.2940   61.5710 C.3   137  CYS137      0.1808
    162  C         48.4800   29.6320   62.3070 C.2   137  CYS137      0.2601
    163  O         47.4520   29.9590   62.9160 O.2   137  CYS137     -0.2717
    164  CB        48.9650   28.5430   60.1060 C.3   137  CYS137      0.0970
    165  SG        47.9240   29.6970   59.2220 S.3   137  CYS137     -0.0800
    166  N         49.5750   30.3880   62.2510 N.am  138  ASP138     -0.1973
    167  CA        49.6710   31.7390   62.7890 C.3   138  ASP138      0.1709
    168  C         49.6180   31.7290   64.3330 C.2   138  ASP138      0.2293
    169  O         48.6870   32.2250   64.9420 O.2   138  ASP138     -0.2864
    170  CB        48.5760   32.6030   62.1740 C.3   138  ASP138      0.1436
    171  CG        48.7990   34.0920   62.3610 C.2   138  ASP138      0.3671
    172  OD1       49.8850   34.4930   62.8310 O.co2 138  ASP138     -0.2456
    173  OD2       47.8390   34.8490   62.0440 O.co2 138  ASP138     -0.2456
@<TRIPOS>BOND
     1   107   106   ar
     2    92    91    1
     3   106   108   ar
     4   106   105    1
     5    90    91   ar
     6    90    88   ar
     7    91    89   ar
     8     1     2    1
     9   104   105    1
    10   104   101    1
    11   103   102    2
    12    88    86   ar
    13     2     3    1
    14     2     5    1
    15    89    87   ar
    16   101   102    1
    17   101   100    1
    18     7     5    1
    19   102   109   am
    20    86    87   ar
    21    86    85    1
    22     3     4    2
    23     3     8   am
    24   133   132   ar
    25   115   116    1
    26   115   114    1
    27   129   128    2
    28     5     6    1
    29    27    26    2
    30   132   134   ar
    31   132   131    1
    32   113   114    1
    33   113   110    1
    34     8     9    1
    35   100    95   am
    36   116   117    1
    37    85    82    1
    38   131   130    1
    39   130   127    1
    40   109   110    1
    41    26    25    1
    42   128   127    1
    43   110   111    1
    44     9    10    1
    45   127   126    1
    46    96    95    2
    47    95    94    1
    48    31    32    1
    49    84    83    2
    50    11    10    2
    51    32    33    1
    52    32    35    1
    53    83    82    1
    54    83    93   am
    55    82    81    1
    56    93    94    1
    57    94    97    1
    58    25    24    1
    59    25    28    1
    60   111   118   am
    61   111   112    2
    62    33    34    2
    63    81    74   am
    64    29    28    1
    65   118   119    1
    66    28    30    1
    67   121   120    2
    68   124   123    2
    69    97    98    1
    70    97    99    1
    71    64    63    2
    72    74    75    2
    73    74    73    1
    74    23    22    1
    75   119   120    1
    76   119   122    1
    77    36    37    1
    78   123   125   am
    79   123   122    1
    80    73    72    1
    81    73    76    1
    82    63    72   am
    83    63    62    1
    84    37    38    1
    85    37    40    1
    86    77    76    1
    87    77    78    1
    88    38    39    2
    89    20    22   ar
    90    20    18   ar
    91    22    21   ar
    92    61    62    1
    93    80    78   ar
    94    62    65    1
    95    78    79   ar
    96   154   153    1
    97   154   155    2
    98   159   157    1
    99   143   141   ar
   100    40    41    1
   101    65    66    1
   102    18    17   ar
   103    21    19   ar
   104   156   153    1
   105   156   157    1
   106   153   152    1
   107   158   157    1
   108    41    42    1
   109   141   140    1
   110   141   142   ar
   111    67    66   ar
   112    67    69   ar
   113   140   139    1
   114    66    68   ar
   115    17    19   ar
   116    17    16    1
   117   138   137    2
   118    60    58    1
   119   136   139    1
   120   136   137    1
   121   136   135    1
   122    42    43    1
   123    14    15    2
   124    14    13    1
   125    69    71   ar
   126   137   144   am
   127    68    70   ar
   128    16    13    1
   129    43    44    1
   130    12    13    1
   131    58    55    1
   132    58    59    1
   133    71    70   ar
   134   165   164    1
   135   144   145    1
   136    55    56    1
   137    55    54    1
   138   145   146    1
   139   145   148    1
   140   146   147    2
   141    56    57    2
   142   164   161    1
   143   148   149    1
   144   161   160    1
   145   161   162    1
   146   149   150    2
   147   149   151   am
   148   173   171   ar
   149   170   171    1
   150   170   167    1
   151   166   162   am
   152   166   167    1
   153   162   163    2
   154   171   172   ar
   155   167   168    1
   156    53    51   ar
   157    52    51   ar
   158    51    50    1
   159   168   169    2
   160    50    49    1
   161    49    46    1
   162    48    47    2
   163    47    46    1
   164    46    45    1
