@<TRIPOS>MOLECULE
tmp/4bgxA01.pdb
 141 133 0 0 0
SMALL
GASTEIGER

@<TRIPOS>ATOM
      1  N         36.7490   -9.2630   12.4690 N.3    91  TYR91      -0.1241
      2  CA        37.6710   -9.5780   13.5480 C.3    91  TYR91       0.1605
      3  C         38.8400  -10.3160   12.9160 C.2    91  TYR91       0.2264
      4  O         38.6380  -11.3310   12.2510 O.2    91  TYR91      -0.2867
      5  CB        36.9990  -10.4680   14.5960 C.3    91  TYR91       0.0534
      6  CG        37.7090  -10.4570   15.9320 C.ar   91  TYR91      -0.0201
      7  CD1       38.8710  -11.1970   16.1320 C.ar   91  TYR91      -0.0009
      8  CD2       37.2390   -9.6770   16.9900 C.ar   91  TYR91      -0.0009
      9  CE1       39.5280  -11.1770   17.3540 C.ar   91  TYR91       0.0417
     10  CE2       37.8920   -9.6510   18.2090 C.ar   91  TYR91       0.0417
     11  CZ        39.0340  -10.3980   18.3890 C.ar   91  TYR91       0.1957
     12  OH        39.6810  -10.3640   19.6050 O.3    91  TYR91      -0.2866
     13  N         27.0260  -11.6100   24.6130 N.3   129  LEU129     -0.1231
     14  CA        28.0080  -10.5570   24.7830 C.3   129  LEU129      0.1693
     15  C         29.2730  -10.9190   24.0250 C.2   129  LEU129      0.2593
     16  O         30.3600  -10.5120   24.4110 O.2   129  LEU129     -0.2718
     17  CB        28.3250  -10.3690   26.2620 C.3   129  LEU129      0.0284
     18  CG        27.1450  -10.1940   27.2290 C.3   129  LEU129      0.0019
     19  CD1       27.6650   -9.9940   28.6460 C.3   129  LEU129      0.0001
     20  CD2       26.2420   -9.0380   26.8200 C.3   129  LEU129      0.0001
     21  N         29.1180  -11.6820   22.9440 N.am  130  GLY130     -0.1942
     22  CA        30.2280  -12.1070   22.1020 C.3   130  GLY130      0.2014
     23  C         30.4070  -11.2010   20.8960 C.2   130  GLY130      0.2639
     24  O         30.3090  -11.6450   19.7430 O.2   130  GLY130     -0.2714
     25  N         30.7060   -9.9360   21.1810 N.am  131  VAL131     -0.1963
     26  CA        30.7860   -8.8910   20.1710 C.3   131  VAL131      0.1727
     27  C         32.1020   -8.1220   20.2600 C.2   131  VAL131      0.2617
     28  O         32.8530   -8.2690   21.2190 O.2   131  VAL131     -0.2715
     29  CB        29.6150   -7.8950   20.3220 C.3   131  VAL131      0.0290
     30  CG1       28.2810   -8.6320   20.2690 C.3   131  VAL131      0.0023
     31  CG2       29.7390   -7.0800   21.6080 C.3   131  VAL131      0.0023
     32  N         32.3510   -7.2830   19.2580 N.am  132  SER132     -0.1936
     33  CA        33.5760   -6.4870   19.1730 C.3   132  SER132      0.2055
     34  C         33.3990   -5.2450   18.2990 C.2   132  SER132      0.2643
     35  O         32.5620   -5.2220   17.3910 O.2   132  SER132     -0.2714
     36  CB        34.7090   -7.3320   18.5990 C.3   132  SER132      0.2130
     37  OG        35.7780   -6.5150   18.1570 O.3   132  SER132     -0.2179
     38  N         34.2210   -4.2320   18.5610 N.am  133  SER133     -0.1949
     39  CA        34.2200   -2.9960   17.7790 C.3   133  SER133      0.1924
     40  C         34.7850   -3.1920   16.3620 C.2   133  SER133      0.2314
     41  O         34.5750   -2.3550   15.4870 O.2   133  SER133     -0.2863
     42  CB        35.0070   -1.9090   18.5110 C.3   133  SER133      0.2116
     43  OG        36.2790   -2.3960   18.9080 O.3   133  SER133     -0.2180
     44  N         28.5910   -2.5060   18.3320 N.3   141  SER141     -0.1217
     45  CA        29.4580   -3.6830   18.2340 C.3   141  SER141      0.1889
     46  C         28.6440   -4.9560   17.9740 C.2   141  SER141      0.2288
     47  O         27.6460   -5.2240   18.6420 O.2   141  SER141     -0.2866
     48  CB        30.2900   -3.8410   19.5110 C.3   141  SER141      0.2089
     49  OG        31.1290   -2.7140   19.7230 O.3   141  SER141     -0.2183
     50  N         30.0400  -16.4470   19.8460 N.3   149  TRP149     -0.1241
     51  CA        31.2200  -16.2880   20.7040 C.3   149  TRP149      0.1605
     52  C         30.7940  -16.3450   22.1860 C.2   149  TRP149      0.2264
     53  O         30.3230  -15.3600   22.7570 O.2   149  TRP149     -0.2867
     54  CB        31.9520  -14.9850   20.3470 C.3   149  TRP149      0.0550
     55  CG        33.2120  -14.6730   21.1250 C.ar  149  TRP149      0.0003
     56  CD1       33.8590  -15.4760   22.0200 C.ar  149  TRP149      0.0946
     57  CD2       33.9920  -13.4690   21.0370 C.ar  149  TRP149      0.0152
     58  NE1       34.9790  -14.8380   22.5070 N.ar  149  TRP149     -0.2442
     59  CE2       35.0850  -13.6090   21.9130 C.ar  149  TRP149      0.0810
     60  CE3       33.8680  -12.2870   20.3020 C.ar  149  TRP149      0.0012
     61  CZ2       36.0460  -12.6100   22.0790 C.ar  149  TRP149      0.0191
     62  CZ3       34.8290  -11.2950   20.4660 C.ar  149  TRP149      0.0001
     63  CH2       35.9020  -11.4650   21.3460 C.ar  149  TRP149      0.0015
     64  N         31.0790  -16.6350   26.2070 N.3   151  ILE151     -0.1245
     65  CA        31.9320  -16.2270   27.3370 C.3   151  ILE151      0.1561
     66  C         31.3470  -16.6990   28.6790 C.2   151  ILE151      0.2260
     67  O         30.1910  -17.1310   28.7590 O.2   151  ILE151     -0.2867
     68  CB        32.1810  -14.6940   27.3690 C.3   151  ILE151      0.0252
     69  CG1       30.9240  -13.9250   27.7930 C.3   151  ILE151      0.0019
     70  CG2       32.6650  -14.2000   26.0150 C.3   151  ILE151      0.0019
     71  CD1       31.1060  -12.4200   27.8580 C.3   151  ILE151      0.0001
     72  N         39.1060  -18.6730   19.6610 N.3   179  HIS179     -0.1241
     73  CA        39.6100  -17.3330   19.9510 C.3   179  HIS179      0.1621
     74  C         40.9830  -17.3690   20.6280 C.2   179  HIS179      0.2264
     75  O         41.1530  -17.9810   21.6790 O.2   179  HIS179     -0.2867
     76  CB        38.6190  -16.5630   20.8220 C.3   179  HIS179      0.0745
     77  CG        39.1320  -15.2380   21.2850 C.ar  179  HIS179      0.0817
     78  ND1       39.3540  -14.9500   22.6140 N.ar  179  HIS179     -0.2268
     79  CD2       39.4880  -14.1300   20.5950 C.ar  179  HIS179      0.1154
     80  CE1       39.8090  -13.7150   22.7260 C.ar  179  HIS179      0.1986
     81  NE2       39.9000  -13.1970   21.5150 N.ar  179  HIS179     -0.2212
     82  N         45.1240  -12.1290   23.8630 N.3   182  ASN182     -0.1240
     83  CA        46.4030  -11.4180   23.9790 C.3   182  ASN182      0.1653
     84  C         47.3500  -11.8770   25.0780 C.2   182  ASN182      0.2266
     85  O         48.5500  -12.0130   24.8330 O.2   182  ASN182     -0.2867
     86  CB        46.1370   -9.9280   24.1320 C.3   182  ASN182      0.1155
     87  CG        45.7430   -9.3080   22.8260 C.2   182  ASN182      0.2627
     88  OD1       46.5990   -9.0510   21.9930 O.2   182  ASN182     -0.2716
     89  ND2       44.4450   -9.1260   22.6040 N.am  182  ASN182     -0.0877
     90  N         43.5950  -11.6930   29.8750 N.3   186  GLU186     -0.1245
     91  CA        42.4150  -11.6830   29.0080 C.3   186  GLU186      0.1567
     92  C         41.7130  -13.0480   28.9750 C.2   186  GLU186      0.2260
     93  O         40.4830  -13.1190   28.9460 O.2   186  GLU186     -0.2867
     94  CB        42.7960  -11.2510   27.5960 C.3   186  GLU186      0.0388
     95  CG        41.6110  -10.8240   26.7460 C.3   186  GLU186      0.1160
     96  CD        42.0350  -10.2310   25.4150 C.2   186  GLU186      0.3649
     97  OE1       42.4620  -10.9950   24.5140 O.co2 186  GLU186     -0.2457
     98  OE2       41.9260   -8.9960   25.2740 O.co2 186  GLU186     -0.2457
     99  N         39.7570  -13.4070   32.1510 N.3   189  LYS189     -0.1231
    100  CA        38.7390  -12.3600   32.0780 C.3   189  LYS189      0.1693
    101  C         37.5160  -12.7620   31.2330 C.2   189  LYS189      0.2591
    102  O         36.3950  -12.3980   31.5770 O.2   189  LYS189     -0.2718
    103  CB        39.3710  -11.0700   31.5430 C.3   189  LYS189      0.0285
    104  CG        38.4250   -9.8910   31.3720 C.3   189  LYS189      0.0035
    105  CD        39.1940   -8.6480   30.9420 C.3   189  LYS189      0.0206
    106  CE        38.2790   -7.5170   30.4890 C.3   189  LYS189      0.1093
    107  NZ        37.8440   -7.6820   29.0750 N.3   189  LYS189     -0.1314
    108  N         37.7280  -13.5100   30.1470 N.am  190  LEU190     -0.1980
    109  CA        36.6280  -13.9540   29.2740 C.3   190  LEU190      0.1596
    110  C         36.1240  -15.3680   29.5820 C.2   190  LEU190      0.2287
    111  O         34.9210  -15.6390   29.5200 O.2   190  LEU190     -0.2864
    112  CB        37.0550  -13.9160   27.7960 C.3   190  LEU190      0.0297
    113  CG        37.6070  -12.6030   27.2340 C.3   190  LEU190      0.0022
    114  CD1       37.7070  -12.6760   25.7230 C.3   190  LEU190      0.0001
    115  CD2       36.7750  -11.4000   27.6540 C.3   190  LEU190      0.0001
    116  N         48.0970   -4.7810   16.1920 N.3   218  LYS218     -0.1245
    117  CA        46.6620   -4.5720   16.0750 C.3   218  LYS218      0.1561
    118  C         46.2410   -4.5540   14.6090 C.2   218  LYS218      0.2260
    119  O         46.9630   -4.0510   13.7490 O.2   218  LYS218     -0.2867
    120  CB        46.2320   -3.2820   16.7810 C.3   218  LYS218      0.0271
    121  CG        46.2080   -3.4380   18.2860 C.3   218  LYS218      0.0035
    122  CD        45.8730   -2.1560   19.0150 C.3   218  LYS218      0.0206
    123  CE        46.0970   -2.3510   20.5060 C.3   218  LYS218      0.1093
    124  NZ        45.5110   -1.2420   21.2980 N.3   218  LYS218     -0.1314
    125  N         41.8170   -2.7200   15.0770 N.3   221  GLY221     -0.1210
    126  CA        41.6810   -2.3870   16.4940 C.3   221  GLY221      0.1956
    127  C         41.8870   -3.5330   17.4700 C.2   221  GLY221      0.2611
    128  O         41.7770   -3.3420   18.6780 O.2   221  GLY221     -0.2717
    129  N         42.1880   -4.7240   16.9660 N.am  222  GLN222     -0.1979
    130  CA        42.3090   -5.8970   17.8210 C.3   222  GLN222      0.1601
    131  C         43.6580   -6.5580   17.6340 C.2   222  GLN222      0.2287
    132  O         44.1790   -6.6200   16.5140 O.2   222  GLN222     -0.2864
    133  CB        41.2170   -6.9230   17.5090 C.3   222  GLN222      0.0394
    134  CG        39.8190   -6.3510   17.3020 C.3   222  GLN222      0.0908
    135  CD        39.2910   -5.5560   18.4850 C.2   222  GLN222      0.2608
    136  OE1       39.6590   -5.7970   19.6430 O.2   222  GLN222     -0.2717
    137  NE2       38.4030   -4.6030   18.1950 N.am  222  GLN222     -0.0878
    138  N         43.9100   -9.6190   19.4350 N.3   224  GLY224     -0.1225
    139  CA        43.3970  -10.9800   19.5080 C.3   224  GLY224      0.1811
    140  C         43.0180  -11.4860   18.1290 C.2   224  GLY224      0.2280
    141  O         42.7700  -10.6950   17.2210 O.2   224  GLY224     -0.2866
@<TRIPOS>BOND
     1     4     3    2
     2     1     2    1
     3     3     2    1
     4     2     5    1
     5   119   118    2
     6     5     6    1
     7   118   117    1
     8   125   126    1
     9    41    40    2
    10     6     7   ar
    11     6     8   ar
    12   117   116    1
    13   117   120    1
    14     7     9   ar
    15    40    39    1
    16   126   127    1
    17   132   131    2
    18   120   121    1
    19   129   127   am
    20   129   130    1
    21     8    10   ar
    22   141   140    2
    23   134   133    1
    24   134   135    1
    25     9    11   ar
    26    35    34    2
    27   127   128    2
    28   133   130    1
    29   131   130    1
    30    39    42    1
    31    39    38    1
    32    46    45    1
    33    46    47    2
    34   140   139    1
    35    37    36    1
    36   137   135   am
    37    10    11   ar
    38    45    44    1
    39    45    48    1
    40   121   122    1
    41    34    38   am
    42    34    33    1
    43    11    12    1
    44   135   136    2
    45    42    43    1
    46    36    33    1
    47   122   123    1
    48    33    32    1
    49    32    27   am
    50   138   139    1
    51    48    49    1
    52    72    73    1
    53    24    23    2
    54    50    51    1
    55    73    74    1
    56    73    76    1
    57    26    27    1
    58    26    29    1
    59    26    25    1
    60    27    28    2
    61    30    29    1
    62    60    62   ar
    63    60    57   ar
    64    29    31    1
    65    54    51    1
    66    54    55    1
    67    62    63   ar
    68   123   124    1
    69    79    77   ar
    70    79    81   ar
    71    74    75    2
    72    51    52    1
    73    76    77    1
    74    23    25   am
    75    23    22    1
    76    57    55   ar
    77    57    59   ar
    78    55    56   ar
    79    77    78   ar
    80    63    61   ar
    81    81    80   ar
    82    59    61   ar
    83    59    58   ar
    84    88    87    2
    85    56    58   ar
    86    22    21    1
    87    52    53    2
    88    89    87   am
    89    78    80   ar
    90    87    86    1
    91    21    15   am
    92    82    83    1
    93    83    86    1
    94    83    84    1
    95    15    16    2
    96    15    14    1
    97    97    96   ar
    98    13    14    1
    99    14    17    1
   100    85    84    2
   101    98    96   ar
   102    96    95    1
   103   114   113    1
   104    70    68    1
   105    64    65    1
   106    17    18    1
   107    95    94    1
   108    20    18    1
   109    18    19    1
   110   113   115    1
   111   113   112    1
   112    65    68    1
   113    65    66    1
   114    68    69    1
   115    94    91    1
   116    69    71    1
   117   112   109    1
   118    66    67    2
   119    93    92    2
   120    92    91    1
   121    91    90    1
   122   107   106    1
   123   109   110    1
   124   109   108    1
   125   111   110    2
   126   108   101   am
   127   106   105    1
   128   105   104    1
   129   101   102    2
   130   101   100    1
   131   104   103    1
   132   103   100    1
   133   100    99    1
