@<TRIPOS>MOLECULE
tmp/4bgyA01.pdb
 132 125 0 0 0
SMALL
GASTEIGER

@<TRIPOS>ATOM
      1  N        -26.5280   31.2390   87.3030 N.3    91  TYR91      -0.1241
      2  CA       -27.2390   30.6310   88.4210 C.3    91  TYR91       0.1605
      3  C        -28.5180   30.0100   87.8800 C.2    91  TYR91       0.2264
      4  O        -29.3750   30.7250   87.3670 O.2    91  TYR91      -0.2867
      5  CB       -27.5940   31.6790   89.4670 C.3    91  TYR91       0.0534
      6  CG       -27.9370   31.1070   90.8230 C.ar   91  TYR91      -0.0201
      7  CD1      -29.2130   30.6320   91.0980 C.ar   91  TYR91      -0.0009
      8  CD2      -26.9820   31.0510   91.8360 C.ar   91  TYR91      -0.0009
      9  CE1      -29.5280   30.1180   92.3480 C.ar   91  TYR91       0.0417
     10  CE2      -27.2880   30.5370   93.0840 C.ar   91  TYR91       0.0417
     11  CZ       -28.5630   30.0720   93.3330 C.ar   91  TYR91       0.1957
     12  OH       -28.8750   29.5610   94.5690 O.3    91  TYR91      -0.2866
     13  N        -23.5030   40.7460   99.7900 N.3   129  LEU129     -0.1231
     14  CA       -23.1100   39.3580   99.9720 C.3   129  LEU129      0.1693
     15  C        -23.9810   38.4520   99.1100 C.2   129  LEU129      0.2593
     16  O        -23.9200   37.2320   99.2360 O.2   129  LEU129     -0.2718
     17  CB       -23.2270   38.9460  101.4400 C.3   129  LEU129      0.0284
     18  CG       -22.9770   40.0250  102.4970 C.3   129  LEU129      0.0019
     19  CD1      -23.4130   39.5500  103.8770 C.3   129  LEU129      0.0001
     20  CD2      -21.5370   40.4960  102.5560 C.3   129  LEU129      0.0001
     21  N        -24.7790   39.0520   98.2260 N.am  130  GLY130     -0.1942
     22  CA       -25.6860   38.3130   97.3510 C.3   130  GLY130      0.2014
     23  C        -25.0230   37.7770   96.0940 C.2   130  GLY130      0.2639
     24  O        -25.2570   38.2840   94.9860 O.2   130  GLY130     -0.2714
     25  N        -24.2060   36.7390   96.2640 N.am  131  VAL131     -0.1963
     26  CA       -23.4520   36.1550   95.1570 C.3   131  VAL131      0.1727
     27  C        -23.4060   34.6320   95.2410 C.2   131  VAL131      0.2617
     28  O        -23.7690   34.0420   96.2580 O.2   131  VAL131     -0.2715
     29  CB       -22.0100   36.7090   95.1230 C.3   131  VAL131      0.0290
     30  CG1      -22.0210   38.2270   95.2580 C.3   131  VAL131      0.0023
     31  CG2      -21.1560   36.0890   96.2230 C.3   131  VAL131      0.0023
     32  N        -22.9450   34.0060   94.1630 N.am  132  SER132     -0.1936
     33  CA       -22.8520   32.5520   94.0860 C.3   132  SER132      0.2055
     34  C        -21.6400   32.1170   93.2840 C.2   132  SER132      0.2643
     35  O        -21.1270   32.8660   92.4570 O.2   132  SER132     -0.2714
     36  CB       -24.1040   31.9700   93.4370 C.3   132  SER132      0.2130
     37  OG       -23.8850   30.6200   93.0510 O.3   132  SER132     -0.2179
     38  N        -21.1990   30.8890   93.5260 N.am  133  SER133     -0.1949
     39  CA       -20.0560   30.3310   92.8210 C.3   133  SER133      0.1924
     40  C        -20.4270   30.0030   91.3740 C.2   133  SER133      0.2314
     41  O        -19.5490   29.8960   90.5240 O.2   133  SER133     -0.2863
     42  CB       -19.5560   29.0680   93.5230 C.3   133  SER133      0.2116
     43  OG       -20.4130   27.9710   93.2530 O.3   133  SER133     -0.2180
     44  N        -16.6040   34.8120   93.2720 N.3   141  SER141     -0.1217
     45  CA       -18.0520   34.6600   93.1720 C.3   141  SER141      0.1889
     46  C        -18.7160   36.0240   92.9790 C.2   141  SER141      0.2288
     47  O        -18.4990   36.9410   93.7620 O.2   141  SER141     -0.2866
     48  CB       -18.6070   33.9800   94.4250 C.3   141  SER141      0.2089
     49  OG       -18.0030   32.7140   94.6330 O.3   141  SER141     -0.2183
     50  N        -29.2460   40.6870   94.8840 N.3   149  TRP149     -0.1241
     51  CA       -29.7160   39.5560   95.6970 C.3   149  TRP149      0.1605
     52  C        -29.6470   39.9170   97.1920 C.2   149  TRP149      0.2264
     53  O        -28.6280   39.7010   97.8490 O.2   149  TRP149     -0.2867
     54  CB       -28.8860   38.2990   95.3920 C.3   149  TRP149      0.0550
     55  CG       -29.3340   37.0320   96.1030 C.ar  149  TRP149      0.0003
     56  CD1      -30.3320   36.9080   97.0320 C.ar  149  TRP149      0.0946
     57  CD2      -28.7680   35.7230   95.9540 C.ar  149  TRP149      0.0152
     58  NE1      -30.4310   35.6040   97.4530 N.ar  149  TRP149     -0.2442
     59  CE2      -29.4830   34.8560   96.8080 C.ar  149  TRP149      0.0810
     60  CE3      -27.7360   35.1980   95.1730 C.ar  149  TRP149      0.0012
     61  CZ2      -29.1980   33.4950   96.9040 C.ar  149  TRP149      0.0191
     62  CZ3      -27.4460   33.8480   95.2750 C.ar  149  TRP149      0.0001
     63  CH2      -28.1780   33.0100   96.1320 C.ar  149  TRP149      0.0015
     64  N        -30.0840   39.8950  101.1700 N.3   151  ILE151     -0.1245
     65  CA       -30.1310   38.9610  102.3130 C.3   151  ILE151      0.1561
     66  C        -30.2880   39.7080  103.6500 C.2   151  ILE151      0.2260
     67  O        -30.1710   40.9380  103.7140 O.2   151  ILE151     -0.2867
     68  CB       -28.8880   38.0330  102.3590 C.3   151  ILE151      0.0252
     69  CG1      -27.6320   38.7980  102.7840 C.3   151  ILE151      0.0019
     70  CG2      -28.6650   37.3690  101.0070 C.3   151  ILE151      0.0019
     71  CD1      -26.3890   37.9360  102.8700 C.3   151  ILE151      0.0001
     72  N        -35.9620   33.9640   94.6680 N.3   179  HIS179     -0.1241
     73  CA       -35.0560   32.8510   94.8830 C.3   179  HIS179      0.1621
     74  C        -35.7550   31.6920   95.5720 C.2   179  HIS179      0.2264
     75  O        -36.4150   31.8690   96.5960 O.2   179  HIS179     -0.2867
     76  CB       -33.8550   33.2810   95.7090 C.3   179  HIS179      0.0745
     77  CG       -32.9940   32.1390   96.1490 C.ar  179  HIS179      0.0817
     78  ND1      -32.7890   31.8330   97.4760 N.ar  179  HIS179     -0.2268
     79  CD2      -32.3060   31.2160   95.4390 C.ar  179  HIS179      0.1154
     80  CE1      -31.9940   30.7830   97.5650 C.ar  179  HIS179      0.1986
     81  NE2      -31.6890   30.3870   96.3440 N.ar  179  HIS179     -0.2212
     82  N        -33.0930   25.6090   98.7560 N.3   182  ASN182     -0.1240
     83  CA       -33.0540   24.1450   98.7650 C.3   182  ASN182      0.1653
     84  C        -33.9370   23.5030   99.8370 C.2   182  ASN182      0.2266
     85  O        -34.6270   22.5160   99.5640 O.2   182  ASN182     -0.2867
     86  CB       -31.6100   23.6620   98.9210 C.3   182  ASN182      0.1155
     87  CG       -30.7700   23.9710   97.7010 C.2   182  ASN182      0.2627
     88  OD1      -30.9960   23.4120   96.6380 O.2   182  ASN182     -0.2716
     89  ND2      -29.8070   24.8700   97.8450 N.am  182  ASN182     -0.0877
     90  N        -32.1800   26.4260  104.8510 N.3   186  GLU186     -0.1245
     91  CA       -31.5970   27.3820  103.9130 C.3   186  GLU186      0.1567
     92  C        -32.4160   28.6740  103.8400 C.2   186  GLU186      0.2260
     93  O        -31.8590   29.7700  103.7710 O.2   186  GLU186     -0.2867
     94  CB       -31.4690   26.7600  102.5190 C.3   186  GLU186      0.0388
     95  CG       -30.8020   27.6800  101.5050 C.3   186  GLU186      0.1160
     96  CD       -30.0180   26.9260  100.4380 C.2   186  GLU186      0.3649
     97  OE1      -30.6380   26.4290   99.4660 O.co2 186  GLU186     -0.2457
     98  OE2      -28.7750   26.8430  100.5670 O.co2 186  GLU186     -0.2457
     99  N        -31.8840   30.5610  107.1820 N.3   189  LYS189     -0.1231
    100  CA       -30.4990   31.0150  107.1570 C.3   189  LYS189      0.1693
    101  C        -30.3120   32.2760  106.3160 C.2   189  LYS189      0.2591
    102  O        -29.6530   33.2210  106.7370 O.2   189  LYS189     -0.2718
    103  CB       -29.5950   29.9040  106.6170 C.3   189  LYS189      0.0285
    104  CG       -28.1840   30.3600  106.3020 C.3   189  LYS189      0.0035
    105  CD       -27.3200   29.1970  105.8480 C.3   189  LYS189      0.0206
    106  CE       -25.9610   29.6810  105.3690 C.3   189  LYS189      0.1093
    107  NZ       -25.2420   28.6320  104.5990 N.3   189  LYS189     -0.1314
    108  N        -30.8920   32.2830  105.1240 N.am  190  LEU190     -0.1980
    109  CA       -30.6820   33.3910  104.1970 C.3   190  LEU190      0.1596
    110  C        -31.5300   34.6100  104.5210 C.2   190  LEU190      0.2287
    111  O        -31.0760   35.7470  104.3790 O.2   190  LEU190     -0.2864
    112  CB       -30.9840   32.9460  102.7700 C.3   190  LEU190      0.0297
    113  CG       -29.9250   32.0560  102.1260 C.3   190  LEU190      0.0022
    114  CD1      -30.5260   31.2550  100.9810 C.3   190  LEU190      0.0001
    115  CD2      -28.7430   32.8890  101.6520 C.3   190  LEU190      0.0001
    116  N        -23.3320   23.7000   89.8300 N.3   221  GLY221     -0.1210
    117  CA       -22.9140   23.6110   91.2240 C.3   221  GLY221      0.1956
    118  C        -23.9250   24.0660   92.2670 C.2   221  GLY221      0.2611
    119  O        -23.6030   24.1300   93.4500 O.2   221  GLY221     -0.2717
    120  N        -25.1480   24.3770   91.8540 N.am  222  GLN222     -0.1979
    121  CA       -26.1640   24.8120   92.8050 C.3   222  GLN222      0.1601
    122  C        -27.4890   24.1150   92.5680 C.2   222  GLN222      0.2287
    123  O        -27.8840   23.8990   91.4270 O.2   222  GLN222     -0.2864
    124  CB       -26.3440   26.3280   92.7200 C.3   222  GLN222      0.0394
    125  CG       -25.0790   27.1210   93.0280 C.3   222  GLN222      0.0908
    126  CD       -24.5990   26.9340   94.4540 C.2   222  GLN222      0.2608
    127  OE1      -25.3580   26.4980   95.3210 O.2   222  GLN222     -0.2717
    128  NE2      -23.3350   27.2590   94.7020 N.am  222  GLN222     -0.0878
    129  N        -30.2150   25.3790   94.1860 N.3   224  GLY224     -0.1225
    130  CA       -31.1640   26.4830   94.3310 C.3   224  GLY224      0.1811
    131  C        -31.5060   27.0860   92.9840 C.2   224  GLY224      0.2280
    132  O        -30.7290   26.9650   92.0350 O.2   224  GLY224     -0.2866
@<TRIPOS>BOND
     1     1     2    1
     2     4     3    2
     3     3     2    1
     4     2     5    1
     5     5     6    1
     6   116   117    1
     7    41    40    2
     8     6     7   ar
     9     6     8   ar
    10     7     9   ar
    11   117   118    1
    12    40    39    1
    13   123   122    2
    14     8    10   ar
    15   120   118   am
    16   120   121    1
    17   132   131    2
    18   118   119    2
    19     9    11   ar
    20    35    34    2
    21   122   121    1
    22   124   121    1
    23   124   125    1
    24    39    42    1
    25    39    38    1
    26    46    45    1
    27    46    47    2
    28   131   130    1
    29   125   126    1
    30    37    36    1
    31    10    11   ar
    32    45    44    1
    33    45    48    1
    34    43    42    1
    35    34    38   am
    36    34    33    1
    37    11    12    1
    38    36    33    1
    39    33    32    1
    40    32    27   am
    41   129   130    1
    42    48    49    1
    43   126   128   am
    44   126   127    2
    45    72    73    1
    46    73    74    1
    47    73    76    1
    48    50    51    1
    49    24    23    2
    50    29    26    1
    51    29    30    1
    52    29    31    1
    53    26    27    1
    54    26    25    1
    55    60    62   ar
    56    60    57   ar
    57    27    28    2
    58    62    63   ar
    59    54    51    1
    60    54    55    1
    61    79    77   ar
    62    79    81   ar
    63    74    75    2
    64    51    52    1
    65    76    77    1
    66    57    55   ar
    67    57    59   ar
    68    23    25   am
    69    23    22    1
    70    55    56   ar
    71    63    61   ar
    72    77    78   ar
    73    81    80   ar
    74    88    87    2
    75    59    61   ar
    76    59    58   ar
    77    56    58   ar
    78    52    53    2
    79    22    21    1
    80    78    80   ar
    81    87    89   am
    82    87    86    1
    83    21    15   am
    84    82    83    1
    85    83    86    1
    86    83    84    1
    87    15    16    2
    88    15    14    1
    89    97    96   ar
    90    85    84    2
    91    13    14    1
    92    14    17    1
    93    96    98   ar
    94    96    95    1
    95   114   113    1
    96    70    68    1
    97    64    65    1
    98    17    18    1
    99    95    94    1
   100   115   113    1
   101   113   112    1
   102    65    68    1
   103    65    66    1
   104    68    69    1
   105    18    20    1
   106    18    19    1
   107    94    91    1
   108   112   109    1
   109    69    71    1
   110    66    67    2
   111    93    92    2
   112    92    91    1
   113    91    90    1
   114   109   110    1
   115   109   108    1
   116   111   110    2
   117   107   106    1
   118   108   101   am
   119   106   105    1
   120   105   104    1
   121   104   103    1
   122   101   102    2
   123   101   100    1
   124   103   100    1
   125   100    99    1
