@<TRIPOS>MOLECULE
tmp/4bh4A01.pdb
 155 148 0 0 0
SMALL
GASTEIGER

@<TRIPOS>ATOM
      1  N         24.0600    3.7400  -22.1030 N.3    93  TYR93      -0.1241
      2  CA        23.4500    3.0210  -20.9770 C.3    93  TYR93       0.1605
      3  C         22.2700    2.2380  -21.5480 C.2    93  TYR93       0.2264
      4  O         21.4010    2.8260  -22.2010 O.2    93  TYR93      -0.2867
      5  CB        22.9890    3.9910  -19.8880 C.3    93  TYR93       0.0534
      6  CG        22.7330    3.3550  -18.5320 C.ar   93  TYR93      -0.0201
      7  CD1       21.6420    2.5160  -18.3220 C.ar   93  TYR93      -0.0009
      8  CD2       23.5810    3.5970  -17.4600 C.ar   93  TYR93      -0.0009
      9  CE1       21.4050    1.9400  -17.0870 C.ar   93  TYR93       0.0417
     10  CE2       23.3470    3.0320  -16.2150 C.ar   93  TYR93       0.0417
     11  CZ        22.2600    2.1990  -16.0360 C.ar   93  TYR93       0.1957
     12  OH        22.0360    1.6340  -14.7950 O.3    93  TYR93      -0.2866
     13  N         26.5800   13.3830   -9.9340 N.3   131  LEU131     -0.1231
     14  CA        27.0420   12.0120   -9.7050 C.3   131  LEU131      0.1693
     15  C         26.3220   11.0070  -10.6060 C.2   131  LEU131      0.2593
     16  O         26.4670    9.7970  -10.4340 O.2   131  LEU131     -0.2718
     17  CB        26.8810   11.6330   -8.2280 C.3   131  LEU131      0.0284
     18  CG        28.1030   11.9010   -7.3400 C.3   131  LEU131      0.0019
     19  CD1       28.6210   13.3200   -7.4980 C.3   131  LEU131      0.0001
     20  CD2       27.7890   11.6150   -5.8800 C.3   131  LEU131      0.0001
     21  N         25.5760   11.5170  -11.5830 N.am  132  GLY132     -0.1942
     22  CA        24.7670   10.6960  -12.4730 C.3   132  GLY132      0.2014
     23  C         25.5570   10.1680  -13.6540 C.2   132  GLY132      0.2639
     24  O         25.3390   10.5740  -14.7980 O.2   132  GLY132     -0.2714
     25  N         26.4620    9.2430  -13.3710 N.am  133  VAL133     -0.1963
     26  CA        27.4100    8.7720  -14.3620 C.3   133  VAL133      0.1727
     27  C         27.5530    7.2600  -14.3120 C.2   133  VAL133      0.2617
     28  O         27.1560    6.6200  -13.3380 O.2   133  VAL133     -0.2715
     29  CB        28.7860    9.4450  -14.1770 C.3   133  VAL133      0.0290
     30  CG1       28.6550   10.9490  -14.3490 C.3   133  VAL133      0.0023
     31  CG2       29.3970    9.1150  -12.8180 C.3   133  VAL133      0.0023
     32  N         28.1250    6.7060  -15.3730 N.am  134  SER134     -0.1936
     33  CA        28.2910    5.2690  -15.5140 C.3   134  SER134      0.2055
     34  C         29.5220    4.9660  -16.3490 C.2   134  SER134      0.2643
     35  O         29.8580    5.7280  -17.2500 O.2   134  SER134     -0.2714
     36  CB        27.0440    4.6690  -16.1710 C.3   134  SER134      0.2130
     37  OG        27.1740    3.2690  -16.3390 O.3   134  SER134     -0.2179
     38  N         30.2050    3.8620  -16.0500 N.am  135  SER135     -0.1949
     39  CA        31.3330    3.4330  -16.8770 C.3   135  SER135      0.1924
     40  C         30.8570    2.9980  -18.2690 C.2   135  SER135      0.2314
     41  O         31.6480    2.9280  -19.1950 O.2   135  SER135     -0.2863
     42  CB        32.1270    2.3030  -16.2050 C.3   135  SER135      0.2116
     43  OG        31.2890    1.2000  -15.9020 O.3   135  SER135     -0.2180
     44  N         33.9750    8.1480  -16.3030 N.3   143  SER143     -0.1217
     45  CA        32.5630    7.7960  -16.3660 C.3   143  SER143      0.1889
     46  C         31.7390    9.0590  -16.5800 C.2   143  SER143      0.2288
     47  O         32.0140   10.0980  -15.9930 O.2   143  SER143     -0.2866
     48  CB        32.1230    7.0750  -15.0960 C.3   143  SER143      0.2089
     49  OG        32.8370    5.8630  -14.9500 O.3   143  SER143     -0.2183
     50  N         20.9040   12.6970  -14.7520 N.3   151  TRP151     -0.1241
     51  CA        20.5630   11.6080  -13.8400 C.3   151  TRP151      0.1605
     52  C         20.7040   12.0980  -12.3960 C.2   151  TRP151      0.2264
     53  O         21.8090   12.1400  -11.8490 O.2   151  TRP151     -0.2867
     54  CB        21.5090   10.4360  -14.1030 C.3   151  TRP151      0.0550
     55  CG        21.2070    9.1620  -13.4000 C.ar  151  TRP151      0.0003
     56  CD1       20.1980    8.9150  -12.5080 C.ar  151  TRP151      0.0946
     57  CD2       21.9460    7.9490  -13.5180 C.ar  151  TRP151      0.0152
     58  NE1       20.2570    7.6150  -12.0810 N.ar  151  TRP151     -0.2442
     59  CE2       21.3240    6.9970  -12.6760 C.ar  151  TRP151      0.0810
     60  CE3       23.0710    7.5690  -14.2590 C.ar  151  TRP151      0.0012
     61  CZ2       21.7870    5.6870  -12.5560 C.ar  151  TRP151      0.0191
     62  CZ3       23.5330    6.2710  -14.1420 C.ar  151  TRP151      0.0001
     63  CH2       22.8870    5.3390  -13.2900 C.ar  151  TRP151      0.0015
     64  N         20.3260   11.9880   -8.3230 N.3   153  ILE153     -0.1245
     65  CA        20.2640   11.0330   -7.2170 C.3   153  ILE153      0.1561
     66  C         20.0640   11.7550   -5.8970 C.2   153  ILE153      0.2260
     67  O         20.0680   12.9790   -5.8540 O.2   153  ILE153     -0.2867
     68  CB        21.4870   10.0910   -7.1820 C.3   153  ILE153      0.0252
     69  CG1       22.7660   10.8350   -6.8360 C.3   153  ILE153      0.0019
     70  CG2       21.6320    9.3540   -8.5120 C.3   153  ILE153      0.0019
     71  CD1       23.8980    9.8990   -6.4880 C.3   153  ILE153      0.0001
     72  N         14.8270    5.6220  -14.8550 N.3   181  HIS181     -0.1241
     73  CA        15.7870    4.5680  -14.5710 C.3   181  HIS181      0.1621
     74  C         15.0800    3.4240  -13.8520 C.2   181  HIS181      0.2264
     75  O         14.4480    3.6220  -12.8170 O.2   181  HIS181     -0.2867
     76  CB        16.9420    5.1080  -13.7250 C.3   181  HIS181      0.0745
     77  CG        17.9130    4.0590  -13.2860 C.ar  181  HIS181      0.0817
     78  ND1       18.2060    3.8310  -11.9610 N.ar  181  HIS181     -0.2268
     79  CD2       18.6570    3.1770  -13.9940 C.ar  181  HIS181      0.1154
     80  CE1       19.0900    2.8530  -11.8690 C.ar  181  HIS181      0.1986
     81  NE2       19.3770    2.4360  -13.0890 N.ar  181  HIS181     -0.2212
     82  N         17.8110   -2.6190  -10.5460 N.3   184  ASN184     -0.1240
     83  CA        17.8200   -4.0870  -10.5180 C.3   184  ASN184      0.1653
     84  C         17.0470   -4.6940   -9.3690 C.2   184  ASN184      0.2266
     85  O         16.5180   -5.8010   -9.4870 O.2   184  ASN184     -0.2867
     86  CB        19.2620   -4.5750  -10.4680 C.3   184  ASN184      0.1155
     87  CG        20.0330   -4.1530  -11.6890 C.2   184  ASN184      0.2627
     88  OD1       19.4910   -4.1830  -12.7880 O.2   184  ASN184     -0.2716
     89  ND2       21.2800   -3.7250  -11.5090 N.am  184  ASN184     -0.0877
     90  N         19.2040   -1.3770   -4.5230 N.3   188  GLU188     -0.1245
     91  CA        19.7260   -0.3410   -5.4220 C.3   188  GLU188      0.1567
     92  C         18.7830    0.8650   -5.4650 C.2   188  GLU188      0.2260
     93  O         19.2300    2.0080   -5.4170 O.2   188  GLU188     -0.2867
     94  CB        19.9390   -0.8920   -6.8320 C.3   188  GLU188      0.0388
     95  CG        20.5630    0.1090   -7.7880 C.3   188  GLU188      0.1160
     96  CD        20.9410   -0.5120   -9.1140 C.2   188  GLU188      0.3649
     97  OE1       22.0690   -1.0360   -9.2380 O.co2 188  GLU188     -0.2457
     98  OE2       20.1030   -0.4900  -10.0290 O.co2 188  GLU188     -0.2457
     99  N         19.2810    2.9310   -2.4130 N.3   191  LYS191     -0.1231
    100  CA        20.6530    3.4330   -2.4220 C.3   191  LYS191      0.1693
    101  C         20.7730    4.6930   -3.2700 C.2   191  LYS191      0.2591
    102  O         21.4490    5.6320   -2.8740 O.2   191  LYS191     -0.2718
    103  CB        21.6250    2.3750   -2.9370 C.3   191  LYS191      0.0285
    104  CG        23.0890    2.7830   -2.8570 C.3   191  LYS191      0.0035
    105  CD        24.0150    1.6510   -3.2780 C.3   191  LYS191      0.0206
    106  CE        23.8780    1.3690   -4.7670 C.3   191  LYS191      0.1093
    107  NZ        24.9180    0.4190   -5.2490 N.3   191  LYS191     -0.1314
    108  N         20.1250    4.7080   -4.4350 N.am  192  LEU192     -0.1980
    109  CA        20.1920    5.8590   -5.3320 C.3   192  LEU192      0.1596
    110  C         19.2120    6.9660   -4.9680 C.2   192  LEU192      0.2287
    111  O         19.5560    8.1490   -5.0530 O.2   192  LEU192     -0.2864
    112  CB        19.9220    5.4340   -6.7790 C.3   192  LEU192      0.0297
    113  CG        20.7660    4.2930   -7.3560 C.3   192  LEU192      0.0022
    114  CD1       20.4630    4.1030   -8.8340 C.3   192  LEU192      0.0001
    115  CD2       22.2490    4.5190   -7.1360 C.3   192  LEU192      0.0001
    116  N         22.8320   -8.7060  -17.8450 N.3   220  LYS220     -0.1245
    117  CA        23.8140   -7.6300  -17.8870 C.3   220  LYS220      0.1561
    118  C         24.1310   -7.2950  -19.3340 C.2   220  LYS220      0.2260
    119  O         24.3960   -8.1810  -20.1460 O.2   220  LYS220     -0.2867
    120  CB        25.0950   -7.9910  -17.1200 C.3   220  LYS220      0.0271
    121  CG        24.8650   -8.1780  -15.6310 C.3   220  LYS220      0.0035
    122  CD        26.1580   -8.4090  -14.8610 C.3   220  LYS220      0.0206
    123  CE        25.8950   -9.1070  -13.5290 C.3   220  LYS220      0.1093
    124  NZ        24.7290   -8.5280  -12.7910 N.3   220  LYS220     -0.1314
    125  N         26.6930   -4.5500  -21.1490 N.3   222  LYS222     -0.1231
    126  CA        27.8470   -3.7300  -20.7730 C.3   222  LYS222      0.1693
    127  C         28.0340   -3.7450  -19.2550 C.2   222  LYS222      0.2593
    128  O         28.3040   -2.7160  -18.6430 O.2   222  LYS222     -0.2718
    129  CB        27.6850   -2.2980  -21.2910 C.3   222  LYS222      0.0285
    130  CG        27.4030   -2.2160  -22.7830 C.3   222  LYS222      0.0035
    131  CD        27.1720   -0.7880  -23.2350 C.3   222  LYS222      0.0206
    132  CE        28.4520    0.0290  -23.1870 C.3   222  LYS222      0.1093
    133  NZ        28.2500    1.4130  -23.6940 N.3   222  LYS222     -0.1314
    134  N         27.8570   -4.9210  -18.6590 N.am  223  GLY223     -0.1942
    135  CA        27.9810   -5.1040  -17.2170 C.3   223  GLY223      0.2014
    136  C         26.8440   -4.5890  -16.3550 C.2   223  GLY223      0.2639
    137  O         26.9300   -4.6580  -15.1280 O.2   223  GLY223     -0.2714
    138  N         25.7670   -4.0980  -16.9760 N.am  224  LEU224     -0.1963
    139  CA        24.6780   -3.4680  -16.2430 C.3   224  LEU224      0.1728
    140  C         23.3420   -4.1630  -16.4580 C.2   224  LEU224      0.2617
    141  O         22.9320   -4.3860  -17.5950 O.2   224  LEU224     -0.2715
    142  CB        24.5330   -2.0130  -16.6750 C.3   224  LEU224      0.0311
    143  CG        25.7670   -1.1370  -16.4630 C.3   224  LEU224      0.0022
    144  CD1       25.5740    0.2080  -17.1330 C.3   224  LEU224      0.0001
    145  CD2       26.0500   -0.9770  -14.9800 C.3   224  LEU224      0.0001
    146  N         22.6680   -4.4580  -15.3520 N.am  225  SER225     -0.1936
    147  CA        21.3150   -5.0120  -15.3650 C.3   225  SER225      0.2055
    148  C         20.2400   -3.9180  -15.2590 C.2   225  SER225      0.2643
    149  O         19.0540   -4.1940  -15.4520 O.2   225  SER225     -0.2714
    150  CB        21.1580   -6.0180  -14.2300 C.3   225  SER225      0.2130
    151  OG        21.8710   -7.2040  -14.5100 O.3   225  SER225     -0.2179
    152  N         20.6450   -2.6900  -14.9320 N.am  226  GLY226     -0.1954
    153  CA        19.7210   -1.5500  -14.8950 C.3   226  GLY226      0.1869
    154  C         19.3390   -1.1310  -16.3030 C.2   226  GLY226      0.2309
    155  O         20.0000   -1.5210  -17.2610 O.2   226  GLY226     -0.2863
@<TRIPOS>BOND
     1   133   132    1
     2   131   132    1
     3   131   130    1
     4   130   129    1
     5     4     3    2
     6     1     2    1
     7     3     2    1
     8   129   126    1
     9   125   126    1
    10     2     5    1
    11   126   127    1
    12   119   118    2
    13     5     6    1
    14   118   117    1
    15   127   134   am
    16   127   128    2
    17    41    40    2
    18   134   135    1
    19     6     7   ar
    20     6     8   ar
    21     7     9   ar
    22    40    39    1
    23   117   116    1
    24   117   120    1
    25   141   140    2
    26     8    10   ar
    27   155   154    2
    28    35    34    2
    29   135   136    1
    30   144   143    1
    31   120   121    1
    32     9    11   ar
    33   138   136   am
    34   138   139    1
    35    39    42    1
    36    39    38    1
    37   142   143    1
    38   142   139    1
    39    46    45    1
    40    46    47    2
    41   143   145    1
    42   140   139    1
    43   140   146   am
    44    45    44    1
    45    45    48    1
    46   136   137    2
    47    34    38   am
    48    34    33    1
    49    37    36    1
    50   154   153    1
    51    10    11   ar
    52    42    43    1
    53    36    33    1
    54    11    12    1
    55   121   122    1
    56    33    32    1
    57   149   148    2
    58    32    27   am
    59   147   146    1
    60   147   148    1
    61   147   150    1
    62   148   152   am
    63    48    49    1
    64   152   153    1
    65   122   123    1
    66    72    73    1
    67    24    23    2
    68    50    51    1
    69    73    74    1
    70    73    76    1
    71   151   150    1
    72    26    27    1
    73    26    29    1
    74    26    25    1
    75    30    29    1
    76    27    28    2
    77    60    62   ar
    78    60    57   ar
    79    29    31    1
    80    62    63   ar
    81    54    51    1
    82    54    55    1
    83    79    77   ar
    84    79    81   ar
    85    74    75    2
    86    51    52    1
    87    76    77    1
    88    23    25   am
    89    23    22    1
    90   123   124    1
    91    57    55   ar
    92    57    59   ar
    93    55    56   ar
    94    63    61   ar
    95    77    78   ar
    96    81    80   ar
    97    88    87    2
    98    59    61   ar
    99    59    58   ar
   100    56    58   ar
   101    22    21    1
   102    52    53    2
   103    78    80   ar
   104    87    89   am
   105    87    86    1
   106    21    15   am
   107    15    16    2
   108    15    14    1
   109    82    83    1
   110    83    86    1
   111    83    84    1
   112    98    96   ar
   113    13    14    1
   114    14    17    1
   115    85    84    2
   116    97    96   ar
   117    96    95    1
   118   114   113    1
   119    70    68    1
   120    64    65    1
   121    17    18    1
   122    95    94    1
   123    19    18    1
   124   113   115    1
   125   113   112    1
   126    18    20    1
   127    65    68    1
   128    65    66    1
   129    68    69    1
   130    69    71    1
   131    94    91    1
   132   112   109    1
   133    66    67    2
   134    92    91    1
   135    92    93    2
   136    91    90    1
   137   109   110    1
   138   109   108    1
   139   107   106    1
   140   111   110    2
   141   106   105    1
   142   108   101   am
   143   105   104    1
   144   101   102    2
   145   101   100    1
   146   103   104    1
   147   103   100    1
   148   100    99    1
