@<TRIPOS>MOLECULE
tmp/4bh7B00.pdb
 96 94 0 0 0
SMALL
GASTEIGER

@<TRIPOS>ATOM
      1  N         24.9480    2.3970   44.3800 N.3    50  TYR50      -0.1241
      2  CA        25.4050    1.0510   44.6560 C.3    50  TYR50       0.1605
      3  C         25.2350    0.6480   46.1170 C.2    50  TYR50       0.2264
      4  O         24.8440    1.4780   46.9350 O.2    50  TYR50      -0.2867
      5  CB        26.8460    0.9420   44.2100 C.3    50  TYR50       0.0534
      6  CG        27.8370    0.9520   45.3110 C.ar   50  TYR50      -0.0201
      7  CD1       27.6810    1.8110   46.3980 C.ar   50  TYR50      -0.0009
      8  CD2       28.8910    0.0370   45.3170 C.ar   50  TYR50      -0.0009
      9  CE1       28.5440    1.7470   47.4650 C.ar   50  TYR50       0.0417
     10  CE2       29.7560   -0.0250   46.3720 C.ar   50  TYR50       0.0417
     11  CZ        29.5730    0.8230   47.4430 C.ar   50  TYR50       0.1957
     12  OH        30.4190    0.7530   48.5160 O.3    50  TYR50      -0.2866
     13  N         27.4250   -4.7830   54.4640 N.3    55  ASN55      -0.1240
     14  CA        27.4530   -3.4690   55.1040 C.3    55  ASN55       0.1653
     15  C         26.0910   -2.8170   55.2060 C.2    55  ASN55       0.2266
     16  O         25.7840   -2.1780   56.1990 O.2    55  ASN55      -0.2867
     17  CB        28.3870   -2.5190   54.3570 C.3    55  ASN55       0.1155
     18  CG        29.4540   -1.9430   55.2450 C.2    55  ASN55       0.2627
     19  OD1       29.5260   -2.2810   56.4150 O.2    55  ASN55      -0.2716
     20  ND2       30.3060   -1.0860   54.6990 N.am   55  ASN55      -0.0877
     21  N         25.5040   -0.5010   53.3650 N.3    57  TYR57      -0.1241
     22  CA        25.8880    0.8440   52.9620 C.3    57  TYR57       0.1605
     23  C         25.4590    1.1270   51.5420 C.2    57  TYR57       0.2264
     24  O         25.3720    0.2130   50.7260 O.2    57  TYR57      -0.2867
     25  CB        27.3990    1.0320   53.1090 C.3    57  TYR57       0.0534
     26  CG        27.8980    2.3880   52.6760 C.ar   57  TYR57      -0.0201
     27  CD1       28.2580    2.6220   51.3660 C.ar   57  TYR57      -0.0009
     28  CD2       28.0000    3.4430   53.5790 C.ar   57  TYR57      -0.0009
     29  CE1       28.7060    3.8650   50.9650 C.ar   57  TYR57       0.0417
     30  CE2       28.4500    4.6990   53.1850 C.ar   57  TYR57       0.0417
     31  CZ        28.8030    4.9020   51.8840 C.ar   57  TYR57       0.1957
     32  OH        29.2290    6.1450   51.4940 O.3    57  TYR57      -0.2866
     33  N         25.6950    4.2540   48.3310 N.3    59  LYS59      -0.1231
     34  CA        26.3060    5.4670   47.8260 C.3    59  LYS59       0.1693
     35  C         25.6470    5.7810   46.4990 C.2    59  LYS59       0.2592
     36  O         25.7100    4.9680   45.5730 O.2    59  LYS59      -0.2718
     37  CB        27.7920    5.2510   47.6360 C.3    59  LYS59       0.0285
     38  CG        28.5050    6.4730   47.1820 C.3    59  LYS59       0.0035
     39  CD        28.4200    7.5660   48.2220 C.3    59  LYS59       0.0206
     40  CE        29.0400    8.8520   47.7050 C.3    59  LYS59       0.1093
     41  NZ        28.6430   10.0720   48.4830 N.3    59  LYS59      -0.1314
     42  N         25.0300    6.9550   46.4010 N.am   60  TYR60      -0.1976
     43  CA        24.2980    7.3220   45.2040 C.3    60  TYR60       0.1639
     44  C         25.0050    8.2860   44.3110 C.2    60  TYR60       0.2290
     45  O         25.9330    8.9630   44.7030 O.2    60  TYR60      -0.2864
     46  CB        22.9220    7.8970   45.5540 C.3    60  TYR60       0.0560
     47  CG        22.0550    6.9090   46.2500 C.ar   60  TYR60      -0.0198
     48  CD1       22.0930    6.7880   47.6270 C.ar   60  TYR60      -0.0009
     49  CD2       21.2210    6.0590   45.5330 C.ar   60  TYR60      -0.0009
     50  CE1       21.2970    5.8360   48.2940 C.ar   60  TYR60       0.0417
     51  CE2       20.4340    5.1030   46.1700 C.ar   60  TYR60       0.0417
     52  CZ        20.4710    4.9950   47.5530 C.ar   60  TYR60       0.1957
     53  OH        19.7050    4.0440   48.1570 O.3    60  TYR60      -0.2866
     54  N         19.7590   10.1830   43.0920 N.3    65  LYS65      -0.1245
     55  CA        19.3930   10.1180   44.4750 C.3    65  LYS65       0.1561
     56  C         18.0460   10.8010   44.6420 C.2    65  LYS65       0.2260
     57  O         17.5930   11.5760   43.7780 O.2    65  LYS65      -0.2867
     58  CB        20.4450   10.8100   45.3250 C.3    65  LYS65       0.0271
     59  CG        20.3340   10.4870   46.8050 C.3    65  LYS65       0.0035
     60  CD        21.4690   11.1670   47.5550 C.3    65  LYS65       0.0206
     61  CE        21.5590   10.6830   48.9990 C.3    65  LYS65       0.1093
     62  NZ        22.7770   11.2230   49.7190 N.3    65  LYS65      -0.1314
     63  N         37.3630   -5.7560   44.0820 N.3   101  TYR101     -0.1241
     64  CA        38.3880   -4.8230   44.4620 C.3   101  TYR101      0.1605
     65  C         39.6440   -5.1650   43.7450 C.2   101  TYR101      0.2264
     66  O         39.9040   -6.3200   43.4570 O.2   101  TYR101     -0.2867
     67  CB        38.6480   -4.9380   45.9390 C.3   101  TYR101      0.0534
     68  CG        39.7330   -4.0250   46.4610 C.ar  101  TYR101     -0.0201
     69  CD1       39.4580   -2.7210   46.8140 C.ar  101  TYR101     -0.0009
     70  CD2       41.0230   -4.4860   46.6460 C.ar  101  TYR101     -0.0009
     71  CE1       40.4430   -1.9030   47.3400 C.ar  101  TYR101      0.0417
     72  CE2       42.0060   -3.6730   47.1690 C.ar  101  TYR101      0.0417
     73  CZ        41.7070   -2.3920   47.5180 C.ar  101  TYR101      0.1957
     74  OH        42.6950   -1.5940   48.0230 O.3   101  TYR101     -0.2866
     75  N         43.3810    0.2010   44.1310 N.3   104  GLY104     -0.1210
     76  CA        42.6840    0.8360   45.2190 C.3   104  GLY104      0.1956
     77  C         41.2210    0.9840   44.8600 C.2   104  GLY104      0.2613
     78  O         40.4930    1.6840   45.5430 O.2   104  GLY104     -0.2717
     79  N         40.7680    0.3190   43.8020 N.am  105  SER105     -0.1938
     80  CA        39.3930    0.5420   43.3180 C.3   105  SER105      0.2055
     81  C         38.6340   -0.6830   42.8830 C.2   105  SER105      0.2643
     82  O         39.1070   -1.8050   43.0240 O.2   105  SER105     -0.2714
     83  CB        39.3940    1.4930   42.1270 C.3   105  SER105      0.2130
     84  OG        39.8330    0.8050   40.9500 O.3   105  SER105     -0.2179
     85  N         37.4680   -0.4230   42.2960 N.am  106  TYR106     -0.1973
     86  CA        36.5620   -1.4570   41.8320 C.3   106  TYR106      0.1639
     87  C         36.3460   -1.4580   40.3590 C.2   106  TYR106      0.2290
     88  O         36.7770   -0.5570   39.6450 O.2   106  TYR106     -0.2864
     89  CB        35.2190   -1.2660   42.4980 C.3   106  TYR106      0.0560
     90  CG        35.3770   -1.3430   43.9580 C.ar  106  TYR106     -0.0198
     91  CD1       35.8550   -0.2550   44.6820 C.ar  106  TYR106     -0.0009
     92  CD2       35.1560   -2.5420   44.6160 C.ar  106  TYR106     -0.0009
     93  CE1       36.0880   -0.3710   46.0300 C.ar  106  TYR106      0.0417
     94  CE2       35.3810   -2.6640   45.9550 C.ar  106  TYR106      0.0417
     95  CZ        35.8430   -1.5860   46.6550 C.ar  106  TYR106      0.1957
     96  OH        36.0490   -1.7720   47.9780 O.3   106  TYR106     -0.2866
@<TRIPOS>BOND
     1    88    87    2
     2    87    86    1
     3    84    83    1
     4    86    85    1
     5    86    89    1
     6    83    80    1
     7    85    81   am
     8    89    90    1
     9    81    82    2
    10    81    80    1
    11    54    55    1
    12    80    79    1
    13    66    65    2
    14    65    64    1
    15    57    56    2
    16    79    77   am
    17    90    92   ar
    18    90    91   ar
    19    63    64    1
    20    75    76    1
    21     5     2    1
    22     5     6    1
    23    44    45    2
    24    44    43    1
    25     1     2    1
    26    64    67    1
    27    55    56    1
    28    55    58    1
    29    92    94   ar
    30     2     3    1
    31    91    93   ar
    32    77    76    1
    33    77    78    2
    34    43    46    1
    35    43    42    1
    36     6     8   ar
    37     6     7   ar
    38     8    10   ar
    39    58    59    1
    40    49    51   ar
    41    49    47   ar
    42    46    47    1
    43    36    35    2
    44    67    68    1
    45    94    95   ar
    46    93    95   ar
    47     3     4    2
    48    51    52   ar
    49    47    48   ar
    50    10    11   ar
    51     7     9   ar
    52    42    35   am
    53    68    70   ar
    54    68    69   ar
    55    35    34    1
    56    70    72   ar
    57    95    96    1
    58    59    60    1
    59    69    71   ar
    60    72    73   ar
    61    38    37    1
    62    38    39    1
    63    71    73   ar
    64    11     9   ar
    65    11    12    1
    66    73    74    1
    67    52    53    1
    68    52    50   ar
    69    60    61    1
    70    48    50   ar
    71    37    34    1
    72    40    39    1
    73    40    41    1
    74    34    33    1
    75    61    62    1
    76    24    23    2
    77    29    27   ar
    78    29    31   ar
    79    27    26   ar
    80    32    31    1
    81    23    22    1
    82    31    30   ar
    83    26    25    1
    84    26    28   ar
    85    22    25    1
    86    22    21    1
    87    30    28   ar
    88    17    14    1
    89    17    18    1
    90    13    14    1
    91    20    18   am
    92    14    15    1
    93    15    16    2
    94    18    19    2
