@<TRIPOS>MOLECULE
tmp/4bh8B00.pdb
 114 115 0 0 0
SMALL
GASTEIGER

@<TRIPOS>ATOM
      1  N         27.8030  -11.3810   50.5440 N.3    30  THR30      -0.1203
      2  CA        28.2050  -10.2760   51.4040 C.3    30  THR30       0.1994
      3  C         29.6510   -9.8380   51.2140 C.2    30  THR30       0.2619
      4  O         30.0730   -8.8310   51.7700 O.2    30  THR30      -0.2717
      5  CB        27.9860  -10.6190   52.9040 C.3    30  THR30       0.1784
      6  OG1       28.6810  -11.8280   53.2360 O.3    30  THR30      -0.2211
      7  CG2       26.5160  -10.7880   53.1990 C.3    30  THR30       0.0376
      8  N         30.4110  -10.5960   50.4330 N.am   31  SER31      -0.1937
      9  CA        31.8120  -10.2770   50.1870 C.3    31  SER31       0.2055
     10  C         32.0300   -9.3390   49.0190 C.2    31  SER31       0.2643
     11  O         33.1570   -8.9210   48.7670 O.2    31  SER31      -0.2714
     12  CB        32.6080  -11.5570   49.9520 C.3    31  SER31       0.2130
     13  OG        32.6750  -12.3270   51.1370 O.3    31  SER31      -0.2179
     14  N         30.9590   -9.0150   48.3000 N.am   32  TYR32      -0.1959
     15  CA        31.0760   -8.1100   47.1690 C.3    32  TYR32       0.1771
     16  C         29.9420   -7.0940   47.1240 C.2    32  TYR32       0.2620
     17  O         28.8320   -7.3470   47.5720 O.2    32  TYR32      -0.2715
     18  CB        31.1190   -8.8810   45.8440 C.3    32  TYR32       0.0574
     19  CG        32.2390   -9.8940   45.7290 C.ar   32  TYR32      -0.0198
     20  CD1       32.1520  -11.1350   46.3570 C.ar   32  TYR32      -0.0009
     21  CD2       33.3820   -9.6170   44.9830 C.ar   32  TYR32      -0.0009
     22  CE1       33.1800  -12.0850   46.2400 C.ar   32  TYR32       0.0417
     23  CE2       34.4160  -10.5530   44.8630 C.ar   32  TYR32       0.0417
     24  CZ        34.3060  -11.7840   45.4940 C.ar   32  TYR32       0.1957
     25  OH        35.3200  -12.7060   45.3720 O.3    32  TYR32      -0.2866
     26  N         30.2400   -5.9350   46.5590 N.am   33  GLY33      -0.1954
     27  CA        29.2610   -4.8790   46.4420 C.3    33  GLY33       0.1869
     28  C         28.4570   -5.0370   45.1740 C.2    33  GLY33       0.2309
     29  O         28.8530   -5.7560   44.2620 O.2    33  GLY33      -0.2863
     30  N         25.8400    2.3420   44.5870 N.3    50  TYR50      -0.1241
     31  CA        26.4090    1.0820   45.0370 C.3    50  TYR50       0.1605
     32  C         26.0050    0.7470   46.4750 C.2    50  TYR50       0.2264
     33  O         25.7180    1.6480   47.2700 O.2    50  TYR50      -0.2867
     34  CB        27.9380    1.2080   44.8770 C.3    50  TYR50       0.0534
     35  CG        28.7950    0.7880   46.0390 C.ar   50  TYR50      -0.0201
     36  CD1       29.0800   -0.5570   46.2580 C.ar   50  TYR50      -0.0009
     37  CD2       29.3590    1.7350   46.8980 C.ar   50  TYR50      -0.0009
     38  CE1       29.9150   -0.9620   47.3040 C.ar   50  TYR50       0.0417
     39  CE2       30.2010    1.3430   47.9580 C.ar   50  TYR50       0.0417
     40  CZ        30.4700   -0.0110   48.1460 C.ar   50  TYR50       0.1957
     41  OH        31.3010   -0.4220   49.1590 O.3    50  TYR50      -0.2866
     42  N         26.7830   -2.2500   49.8560 N.3    52  ASN52      -0.1240
     43  CA        27.6160   -3.3160   50.3970 C.3    52  ASN52       0.1653
     44  C         26.6910   -4.2560   51.1630 C.2    52  ASN52       0.2266
     45  O         26.2060   -3.9190   52.2460 O.2    52  ASN52      -0.2867
     46  CB        28.6650   -2.7460   51.3480 C.3    52  ASN52       0.1155
     47  CG        29.5600   -3.8160   51.9450 C.2    52  ASN52       0.2627
     48  OD1       29.1600   -4.9740   52.0800 O.2    52  ASN52      -0.2716
     49  ND2       30.7740   -3.4280   52.3250 N.am   52  ASN52      -0.0877
     50  N         31.1500   -5.7940   42.1120 N.3    99  SER99      -0.1202
     51  CA        32.3920   -5.0280   42.1530 C.3    99  SER99       0.2020
     52  C         33.4610   -5.8880   42.7810 C.2    99  SER99       0.2619
     53  O         33.1520   -6.7140   43.6340 O.2    99  SER99      -0.2717
     54  CB        32.2280   -3.7850   43.0200 C.3    99  SER99       0.2103
     55  OG        30.9830   -3.1800   42.7710 O.3    99  SER99      -0.2182
     56  N         34.7060   -5.6870   42.3600 N.am  100  VAL100     -0.1965
     57  CA        35.8440   -6.4130   42.9030 C.3   100  VAL100      0.1727
     58  C         36.9290   -5.3860   43.1680 C.2   100  VAL100      0.2616
     59  O         37.0290   -4.3840   42.4710 O.2   100  VAL100     -0.2715
     60  CB        36.3410   -7.5230   41.9470 C.3   100  VAL100      0.0290
     61  CG1       37.5730   -8.2010   42.5210 C.3   100  VAL100      0.0023
     62  CG2       35.2440   -8.5550   41.7680 C.3   100  VAL100      0.0023
     63  N         37.7330   -5.6390   44.1880 N.am  101  TYR101     -0.1960
     64  CA        38.7820   -4.7170   44.5950 C.3   101  TYR101      0.1771
     65  C         40.1880   -4.9980   44.0780 C.2   101  TYR101      0.2620
     66  O         40.8410   -5.9130   44.5560 O.2   101  TYR101     -0.2715
     67  CB        38.8310   -4.6760   46.1260 C.3   101  TYR101      0.0574
     68  CG        39.9100   -3.7860   46.7100 C.ar  101  TYR101     -0.0198
     69  CD1       39.6600   -2.4440   47.0050 C.ar  101  TYR101     -0.0009
     70  CD2       41.1750   -4.2980   47.0020 C.ar  101  TYR101     -0.0009
     71  CE1       40.6380   -1.6500   47.5790 C.ar  101  TYR101      0.0417
     72  CE2       42.1580   -3.5100   47.5710 C.ar  101  TYR101      0.0417
     73  CZ        41.8870   -2.1920   47.8650 C.ar  101  TYR101      0.1957
     74  OH        42.8630   -1.4280   48.4770 O.3   101  TYR101     -0.2866
     75  N         40.6660   -4.2170   43.1170 N.am  102  TYR102     -0.1960
     76  CA        42.0360   -4.4040   42.6550 C.3   102  TYR102      0.1771
     77  C         42.7640   -3.0820   42.8450 C.2   102  TYR102      0.2620
     78  O         42.2250   -2.0190   42.5450 O.2   102  TYR102     -0.2715
     79  CB        42.1120   -4.8020   41.1850 C.3   102  TYR102      0.0574
     80  CG        43.5270   -5.1390   40.7610 C.ar  102  TYR102     -0.0198
     81  CD1       44.0610   -6.4090   40.9810 C.ar  102  TYR102     -0.0009
     82  CD2       44.3390   -4.1800   40.1490 C.ar  102  TYR102     -0.0009
     83  CE1       45.3610   -6.7200   40.5970 C.ar  102  TYR102      0.0417
     84  CE2       45.6490   -4.4780   39.7610 C.ar  102  TYR102      0.0417
     85  CZ        46.1510   -5.7520   39.9820 C.ar  102  TYR102      0.1957
     86  OH        47.4190   -6.0670   39.5450 O.3   102  TYR102     -0.2866
     87  N         43.9930   -3.1490   43.3390 N.am  103  GLY103     -0.1954
     88  CA        44.7500   -1.9330   43.5590 C.3   103  GLY103      0.1869
     89  C         43.9780   -0.9880   44.4570 C.2   103  GLY103      0.2309
     90  O         43.4550   -1.3900   45.4920 O.2   103  GLY103     -0.2863
     91  N         37.7000   -0.2620   42.5550 N.3   106  TYR106     -0.1227
     92  CA        36.8600   -1.3170   42.0090 C.3   106  TYR106      0.1736
     93  C         36.5240   -1.2750   40.5260 C.2   106  TYR106      0.2595
     94  O         36.7210   -0.2710   39.8380 O.2   106  TYR106     -0.2718
     95  CB        35.5540   -1.3320   42.7910 C.3   106  TYR106      0.0548
     96  CG        35.7730   -1.4190   44.2740 C.ar  106  TYR106     -0.0200
     97  CD1       36.1310   -2.6250   44.8580 C.ar  106  TYR106     -0.0009
     98  CD2       35.6620   -0.2940   45.0900 C.ar  106  TYR106     -0.0009
     99  CE1       36.3750   -2.7260   46.2190 C.ar  106  TYR106      0.0417
    100  CE2       35.9090   -0.3810   46.4610 C.ar  106  TYR106      0.0417
    101  CZ        36.2650   -1.6120   47.0140 C.ar  106  TYR106      0.1957
    102  OH        36.5030   -1.7600   48.3600 O.3   106  TYR106     -0.2866
    103  N         35.9990   -2.4020   40.0590 N.am  107  TYR107     -0.1976
    104  CA        35.5660   -2.5730   38.6780 C.3   107  TYR107      0.1639
    105  C         34.4500   -3.6240   38.7030 C.2   107  TYR107      0.2290
    106  O         34.3650   -4.4160   39.6500 O.2   107  TYR107     -0.2864
    107  CB        36.7460   -3.0050   37.7890 C.3   107  TYR107      0.0560
    108  CG        37.4030   -4.3120   38.1720 C.ar  107  TYR107     -0.0198
    109  CD1       38.3700   -4.3640   39.1800 C.ar  107  TYR107     -0.0009
    110  CD2       37.0650   -5.4950   37.5230 C.ar  107  TYR107     -0.0009
    111  CE1       38.9820   -5.5570   39.5310 C.ar  107  TYR107      0.0417
    112  CE2       37.6770   -6.7060   37.8680 C.ar  107  TYR107      0.0417
    113  CZ        38.6300   -6.7240   38.8720 C.ar  107  TYR107      0.1957
    114  OH        39.2140   -7.9150   39.2250 O.3   107  TYR107     -0.2866
@<TRIPOS>BOND
     1   110   112   ar
     2   110   108   ar
     3   107   108    1
     4   107   104    1
     5   112   113   ar
     6   108   109   ar
     7   104   105    1
     8   104   103    1
     9   105   106    2
    10   113   114    1
    11   113   111   ar
    12   109   111   ar
    13    86    85    1
    14    84    85   ar
    15    84    82   ar
    16    94    93    2
    17    85    83   ar
    18   103    93   am
    19    82    80   ar
    20    93    92    1
    21    83    81   ar
    22    80    81   ar
    23    80    79    1
    24    79    76    1
    25    62    60    1
    26    60    61    1
    27    60    57    1
    28    92    91    1
    29    92    95    1
    30    50    51    1
    31    51    52    1
    32    51    54    1
    33    56    52   am
    34    56    57    1
    35    59    58    2
    36    78    77    2
    37    76    77    1
    38    76    75    1
    39    55    54    1
    40    52    53    2
    41    95    96    1
    42    77    87   am
    43    57    58    1
    44    75    65   am
    45    58    63   am
    46    87    88    1
    47    88    89    1
    48    65    66    2
    49    65    64    1
    50    63    64    1
    51    29    28    2
    52    96    97   ar
    53    96    98   ar
    54    89    90    2
    55    30    31    1
    56    64    67    1
    57    97    99   ar
    58    23    21   ar
    59    23    24   ar
    60    34    31    1
    61    34    35    1
    62    21    19   ar
    63    31    32    1
    64    98   100   ar
    65    28    27    1
    66    25    24    1
    67    24    22   ar
    68    19    18    1
    69    19    20   ar
    70    18    15    1
    71    35    36   ar
    72    35    37   ar
    73    67    68    1
    74    99   101   ar
    75    22    20   ar
    76    36    38   ar
    77    27    26    1
    78   100   101   ar
    79    32    33    2
    80    26    16   am
    81    68    70   ar
    82    68    69   ar
    83    37    39   ar
    84    70    72   ar
    85    69    71   ar
    86   101   102    1
    87    16    15    1
    88    16    17    2
    89    15    14    1
    90    38    40   ar
    91    72    73   ar
    92    71    73   ar
    93    73    74    1
    94    39    40   ar
    95    40    41    1
    96    14    10   am
    97    11    10    2
    98    10     9    1
    99    42    43    1
   100    12     9    1
   101    12    13    1
   102     9     8    1
   103    43    44    1
   104    43    46    1
   105     8     3   am
   106     1     2    1
   107    44    45    2
   108     3     2    1
   109     3     4    2
   110    46    47    1
   111     2     5    1
   112    47    48    2
   113    47    49   am
   114     5     7    1
   115     5     6    1
