@<TRIPOS>MOLECULE
tmp/4bhtE01.pdb
 108 101 0 0 0
SMALL
GASTEIGER

@<TRIPOS>ATOM
      1  N        -45.7420  -15.9860   -0.6050 N.3   175  ALA175     -0.1245
      2  CA       -46.3190  -15.5610    0.6730 C.3   175  ALA175      0.1562
      3  C        -45.5620  -16.1610    1.8750 C.2   175  ALA175      0.2260
      4  O        -45.2890  -15.4570    2.8980 O.2   175  ALA175     -0.2867
      5  CB       -47.7430  -15.9360    0.7350 C.3   175  ALA175      0.0290
      6  N        -43.5510  -14.1500    4.7210 N.3   179  LYS179     -0.1245
      7  CA       -43.7750  -14.3060    6.1400 C.3   179  LYS179      0.1561
      8  C        -42.4630  -14.6160    6.8570 C.2   179  LYS179      0.2260
      9  O        -42.1040  -13.9330    7.8020 O.2   179  LYS179     -0.2867
     10  CB       -44.8110  -15.4060    6.3720 C.3   179  LYS179      0.0271
     11  CG       -45.1120  -15.6870    7.7780 C.3   179  LYS179      0.0035
     12  CD       -46.0890  -16.8180    7.8850 C.3   179  LYS179      0.0206
     13  CE       -47.4300  -16.5120    7.2450 C.3   179  LYS179      0.1093
     14  NZ       -48.3820  -17.6430    7.5390 N.3   179  LYS179     -0.1314
     15  N        -47.1390  -11.9010    9.4990 N.3   185  THR185     -0.1203
     16  CA       -48.1400  -12.7440    8.8990 C.3   185  THR185      0.1994
     17  C        -49.2680  -11.9930    8.2630 C.2   185  THR185      0.2618
     18  O        -50.2610  -12.6020    7.8590 O.2   185  THR185     -0.2717
     19  CB       -48.7530  -13.7150    9.9440 C.3   185  THR185      0.1784
     20  OG1      -49.2740  -12.9440   11.0290 O.3   185  THR185     -0.2211
     21  CG2      -47.7100  -14.6780   10.4650 C.3   185  THR185      0.0376
     22  N        -49.1640  -10.6790    8.2110 N.am  186  ALA186     -0.1965
     23  CA       -50.2140   -9.8740    7.5830 C.3   186  ALA186      0.1728
     24  C        -50.3440  -10.2130    6.0900 C.2   186  ALA186      0.2616
     25  O        -49.3970  -10.7120    5.4530 O.2   186  ALA186     -0.2715
     26  CB       -49.9420   -8.3860    7.7730 C.3   186  ALA186      0.0334
     27  N        -51.5050   -9.8800    5.5330 N.am  187  CYS187     -0.1968
     28  CA       -51.8400  -10.1630    4.1420 C.3   187  CYS187      0.1712
     29  C        -51.0200   -9.3590    3.1600 C.2   187  CYS187      0.2296
     30  O        -51.2030   -8.1730    3.0170 O.2   187  CYS187     -0.2864
     31  CB       -53.3120   -9.8750    3.8770 C.3   187  CYS187      0.0983
     32  SG       -53.7130  -10.0750    2.1140 S.3   187  CYS187     -0.0798
     33  N        -54.4890  -16.5120   -1.9620 N.3   192  LYS192     -0.1245
     34  CA       -54.0010  -17.5580   -1.0670 C.3   192  LYS192      0.1561
     35  C        -54.9810  -18.6870   -1.0250 C.2   192  LYS192      0.2260
     36  O        -56.1500  -18.4960   -1.3910 O.2   192  LYS192     -0.2867
     37  CB       -53.7430  -16.9890    0.3260 C.3   192  LYS192      0.0271
     38  CG       -52.6980  -15.8920    0.2540 C.3   192  LYS192      0.0035
     39  CD       -52.1670  -15.4470    1.6100 C.3   192  LYS192      0.0206
     40  CE       -53.2550  -14.8750    2.4820 C.3   192  LYS192      0.1093
     41  NZ       -53.9480  -13.7260    1.8380 N.3   192  LYS192     -0.1314
     42  N        -57.1890  -21.6970    0.9860 N.3   194  LEU194     -0.1245
     43  CA       -58.0790  -21.6020    2.1450 C.3   194  LEU194      0.1561
     44  C        -57.3860  -21.8910    3.5050 C.2   194  LEU194      0.2260
     45  O        -57.7810  -21.3410    4.5320 O.2   194  LEU194     -0.2867
     46  CB       -59.2850  -22.5320    1.9700 C.3   194  LEU194      0.0270
     47  CG       -60.2060  -22.1140    0.8290 C.3   194  LEU194      0.0019
     48  CD1      -61.3920  -23.0910    0.6350 C.3   194  LEU194      0.0001
     49  CD2      -60.6950  -20.6660    0.9950 C.3   194  LEU194      0.0001
     50  N        -54.5450  -20.8420    4.5840 N.3   196  PHE196     -0.1227
     51  CA       -53.7570  -19.7560    5.1630 C.3   196  PHE196      0.1736
     52  C        -54.1740  -18.3530    4.7470 C.2   196  PHE196      0.2596
     53  O        -53.3280  -17.5160    4.3900 O.2   196  PHE196     -0.2718
     54  CB       -52.2750  -19.9940    4.8760 C.3   196  PHE196      0.0547
     55  CG       -51.9130  -20.0080    3.4200 C.ar  196  PHE196     -0.0202
     56  CD1      -52.3030  -21.0640    2.5870 C.ar  196  PHE196     -0.0042
     57  CD2      -51.1380  -19.0010    2.8880 C.ar  196  PHE196     -0.0042
     58  CE1      -51.9310  -21.0870    1.2360 C.ar  196  PHE196     -0.0003
     59  CE2      -50.7780  -19.0220    1.5440 C.ar  196  PHE196     -0.0003
     60  CZ       -51.1770  -20.0680    0.7220 C.ar  196  PHE196     -0.0000
     61  N        -55.4760  -18.1000    4.7590 N.am  197  GLY197     -0.1942
     62  CA       -55.9970  -16.7460    4.5570 C.3   197  GLY197      0.2014
     63  C        -56.7700  -16.4510    3.2600 C.2   197  GLY197      0.2639
     64  O        -57.3780  -15.4030    3.1360 O.2   197  GLY197     -0.2714
     65  N        -56.8120  -17.3920    2.3180 N.am  198  GLY198     -0.1954
     66  CA       -57.5490  -17.2150    1.0880 C.3   198  GLY198      0.1869
     67  C        -59.0200  -17.0280    1.3320 C.2   198  GLY198      0.2309
     68  O        -59.4950  -17.2610    2.4380 O.2   198  GLY198     -0.2863
     69  N        -61.0230   -9.5290    4.7090 N.3   381  GLN381     -0.1231
     70  CA       -61.1420  -10.6050    5.6660 C.3   381  GLN381      0.1698
     71  C        -59.8240  -10.7780    6.4320 C.2   381  GLN381      0.2592
     72  O        -59.8210  -10.9370    7.6730 O.2   381  GLN381     -0.2718
     73  CB       -61.5400  -11.8980    4.9740 C.3   381  GLN381      0.0381
     74  CG       -62.9870  -11.9540    4.5460 C.3   381  GLN381      0.0905
     75  CD       -63.2490  -13.1250    3.6010 C.2   381  GLN381      0.2608
     76  OE1      -63.5030  -14.2750    4.0400 O.2   381  GLN381     -0.2717
     77  NE2      -63.1240  -12.8580    2.2920 N.am  381  GLN381     -0.0878
     78  N        -58.6950  -10.7070    5.7310 N.am  382  ASN382     -0.1974
     79  CA       -57.4260  -10.8290    6.4460 C.3   382  ASN382      0.1688
     80  C        -57.2680   -9.6970    7.4280 C.2   382  ASN382      0.2292
     81  O        -56.8190   -9.9140    8.5260 O.2   382  ASN382     -0.2864
     82  CB       -56.2390  -10.8760    5.5060 C.3   382  ASN382      0.1181
     83  CG       -56.2840  -12.0440    4.5520 C.2   382  ASN382      0.2629
     84  OD1      -55.7280  -11.9770    3.4610 O.2   382  ASN382     -0.2716
     85  ND2      -56.9270  -13.1190    4.9520 N.am  382  ASN382     -0.0877
     86  N        -59.1990  -10.3370   10.5190 N.3   385  ARG385     -0.1231
     87  CA       -58.8480  -11.5520   11.2380 C.3   385  ARG385      0.1694
     88  C        -60.0610  -12.4480   11.3720 C.2   385  ARG385      0.2592
     89  O        -60.1910  -13.1560   12.3620 O.2   385  ARG385     -0.2718
     90  CB       -58.2540  -11.2320   12.6090 C.3   385  ARG385      0.0321
     91  CG       -57.2650  -10.1360   12.5250 C.3   385  ARG385      0.0489
     92  CD       -56.5040   -9.9450   13.8350 C.3   385  ARG385      0.2205
     93  NE       -55.4170   -8.9640   13.6450 N.pl3 385  ARG385     -0.0865
     94  CZ       -54.1470   -9.2310   13.3440 C.cat 385  ARG385      0.5346
     95  NH1      -53.6860  -10.4760   13.3010 N.pl3 385  ARG385      0.1354
     96  NH2      -53.3200   -8.2180   13.1790 N.pl3 385  ARG385      0.1354
     97  N        -60.9440  -12.3940   10.3760 N.am  386  LEU386     -0.1966
     98  CA       -62.1690  -13.2070   10.3490 C.3   386  LEU386      0.1728
     99  C        -62.5860  -13.5660    8.9170 C.2   386  LEU386      0.2616
    100  O        -62.8490  -12.6680    8.1200 O.2   386  LEU386     -0.2715
    101  CB       -63.3110  -12.4610   11.0060 C.3   386  LEU386      0.0311
    102  CG       -63.2590  -12.2500   12.4980 C.3   386  LEU386      0.0022
    103  CD1      -64.2800  -11.2120   12.8140 C.3   386  LEU386      0.0001
    104  CD2      -63.5940  -13.5210   13.1850 C.3   386  LEU386      0.0001
    105  N        -62.7090  -14.8560    8.5990 N.am  387  GLY387     -0.1955
    106  CA       -63.2090  -15.2650    7.2980 C.3   387  GLY387      0.1869
    107  C        -64.7110  -15.1810    7.1740 C.2   387  GLY387      0.2309
    108  O        -65.4360  -15.4470    8.1170 O.2   387  GLY387     -0.2863
@<TRIPOS>BOND
     1    33    34    1
     2    36    35    2
     3    34    35    1
     4    34    37    1
     5     1     2    1
     6    38    37    1
     7    38    39    1
     8    48    47    1
     9     2     5    1
    10     2     3    1
    11    60    58   ar
    12    60    59   ar
    13    47    49    1
    14    47    46    1
    15    42    43    1
    16    66    67    1
    17    66    65    1
    18    58    56   ar
    19    67    68    2
    20    59    57   ar
    21    39    40    1
    22    41    40    1
    23     3     4    2
    24    46    43    1
    25    32    31    1
    26    43    44    1
    27    77    75   am
    28    65    63   am
    29    56    55   ar
    30    57    55   ar
    31    30    29    2
    32    64    63    2
    33    29    28    1
    34    63    62    1
    35    55    54    1
    36    84    83    2
    37    44    45    2
    38    75    76    2
    39    75    74    1
    40    31    28    1
    41    28    27    1
    42    53    52    2
    43    74    73    1
    44    83    85   am
    45    83    82    1
    46    62    61    1
    47    50    51    1
    48    69    70    1
    49     6     7    1
    50    52    61   am
    51    52    51    1
    52    54    51    1
    53    73    70    1
    54    25    24    2
    55    82    79    1
    56    27    24   am
    57    70    71    1
    58    78    71   am
    59    78    79    1
    60    24    23    1
    61     7    10    1
    62     7     8    1
    63    10    11    1
    64    71    72    2
    65    79    80    1
    66     8     9    2
    67   107   106    1
    68   107   108    2
    69    13    14    1
    70    13    12    1
    71   106   105    1
    72    80    81    2
    73    23    26    1
    74    23    22    1
    75    11    12    1
    76    18    17    2
    77   100    99    2
    78    22    17   am
    79    17    16    1
    80   105    99   am
    81    16    15    1
    82    16    19    1
    83    99    98    1
    84    19    21    1
    85    19    20    1
    86    98    97    1
    87    98   101    1
    88    97    88   am
    89    86    87    1
    90   101   102    1
    91    87    88    1
    92    87    90    1
    93    88    89    2
    94   102   103    1
    95   102   104    1
    96    91    90    1
    97    91    92    1
    98    96    94    1
    99    95    94    1
   100    94    93    2
   101    93    92    1
