@<TRIPOS>MOLECULE
tmp/4bhxB01.pdb
 90 86 0 0 0
SMALL
GASTEIGER

@<TRIPOS>ATOM
      1  N         31.7710   26.0290    3.8790 N.3     5  SER5       -0.1202
      2  CA        30.5080   26.7480    3.8640 C.3     5  SER5        0.2020
      3  C         30.1830   27.2810    2.4660 C.2     5  SER5        0.2618
      4  O         29.0090   27.4560    2.1640 O.2     5  SER5       -0.2717
      5  CB        30.5220   27.8620    4.9520 C.3     5  SER5        0.2103
      6  OG        31.6740   28.6930    4.8000 O.3     5  SER5       -0.2182
      7  N         31.1760   27.5170    1.5920 N.am    6  GLU6       -0.1979
      8  CA        30.9010   27.9880    0.2280 C.3     6  GLU6        0.1602
      9  C         30.2590   26.9750   -0.7330 C.2     6  GLU6        0.2287
     10  O         29.4460   27.3320   -1.6570 O.2     6  GLU6       -0.2864
     11  CB        32.1750   28.4840   -0.4080 C.3     6  GLU6        0.0415
     12  CG        31.9990   29.0190   -1.8110 C.3     6  GLU6        0.1163
     13  CD        30.9660   30.1570   -1.8830 C.2     6  GLU6        0.3649
     14  OE1       30.7790   30.9150   -0.8950 O.co2   6  GLU6       -0.2457
     15  OE2       30.3630   30.2980   -2.9610 O.co2   6  GLU6       -0.2457
     16  N         26.7390   27.4250    0.2500 N.3     9  HIS9       -0.1241
     17  CA        26.2860   28.6640   -0.3760 C.3     9  HIS9        0.1621
     18  C         25.8050   28.3940   -1.7790 C.2     9  HIS9        0.2264
     19  O         24.6310   28.7130   -2.1450 O.2     9  HIS9       -0.2867
     20  CB        27.4090   29.6550   -0.3980 C.3     9  HIS9        0.0745
     21  CG        27.0590   30.9110   -1.0990 C.ar    9  HIS9        0.0817
     22  ND1       27.8380   31.4250   -2.1060 N.ar    9  HIS9       -0.2268
     23  CD2       25.9600   31.7130   -1.0170 C.ar    9  HIS9        0.1154
     24  CE1       27.2610   32.5200   -2.5930 C.ar    9  HIS9        0.1986
     25  NE2       26.1320   32.7210   -1.9430 N.ar    9  HIS9       -0.2212
     26  N         21.8040   28.5090   -3.2290 N.3    13  ARG13      -0.1245
     27  CA        21.4230   29.4270   -4.2900 C.3    13  ARG13       0.1563
     28  C         21.0460   28.7220   -5.5920 C.2    13  ARG13       0.2260
     29  O         20.4990   29.3510   -6.4580 O.2    13  ARG13      -0.2867
     30  CB        22.5620   30.4190   -4.5950 C.3    13  ARG13       0.0307
     31  CG        22.8430   31.3670   -3.4580 C.3    13  ARG13       0.0489
     32  CD        21.6380   32.2990   -3.2100 C.3    13  ARG13       0.2205
     33  NE        21.8850   33.2780   -2.1240 N.pl3  13  ARG13      -0.0865
     34  CZ        20.9050   33.8500   -1.4070 C.cat  13  ARG13       0.5346
     35  NH1       19.6280   33.5490   -1.6070 N.pl3  13  ARG13       0.1354
     36  NH2       21.1880   34.7110   -0.4610 N.pl3  13  ARG13       0.1354
     37  N         25.4040   27.0310    5.1400 N.3    37  TRP37      -0.1241
     38  CA        26.1750   28.1860    4.6260 C.3    37  TRP37       0.1605
     39  C         26.4600   29.2350    5.7090 C.2    37  TRP37       0.2264
     40  O         27.6210   29.5500    6.0490 O.2    37  TRP37      -0.2867
     41  CB        25.4160   28.7650    3.4590 C.3    37  TRP37       0.0550
     42  CG        25.9470   30.1160    3.0190 C.ar   37  TRP37       0.0003
     43  CD1       27.2530   30.5100    2.9910 C.ar   37  TRP37       0.0946
     44  CD2       25.1710   31.2330    2.5610 C.ar   37  TRP37       0.0152
     45  NE1       27.3430   31.7950    2.5070 N.ar   37  TRP37      -0.2442
     46  CE2       26.0820   32.2780    2.2480 C.ar   37  TRP37       0.0810
     47  CE3       23.8050   31.4510    2.3520 C.ar   37  TRP37       0.0012
     48  CZ2       25.6400   33.5540    1.7630 C.ar   37  TRP37       0.0191
     49  CZ3       23.3820   32.7450    1.8900 C.ar   37  TRP37       0.0001
     50  CH2       24.2980   33.7530    1.6290 C.ar   37  TRP37       0.0015
     51  N         27.7480   39.1630    6.0070 N.3    51  LEU51      -0.1245
     52  CA        27.9280   38.1190    5.0030 C.3    51  LEU51       0.1561
     53  C         26.9800   38.3270    3.8180 C.2    51  LEU51       0.2260
     54  O         27.3150   38.0210    2.6570 O.2    51  LEU51      -0.2867
     55  CB        27.6480   36.7250    5.5700 C.3    51  LEU51       0.0270
     56  CG        28.8120   35.8020    5.9580 C.3    51  LEU51       0.0019
     57  CD1       30.0750   36.4940    6.2990 C.3    51  LEU51       0.0001
     58  CD2       28.3620   34.9400    7.1060 C.3    51  LEU51       0.0001
     59  N         28.3930   41.1630    1.8600 N.3    54  LEU54      -0.1231
     60  CA        29.4910   40.5970    1.0340 C.3    54  LEU54       0.1693
     61  C         28.9840   39.8190   -0.2150 C.2    54  LEU54       0.2591
     62  O         29.4460   40.0630   -1.3470 O.2    54  LEU54      -0.2718
     63  CB        30.3930   39.7300    1.9150 C.3    54  LEU54       0.0284
     64  CG        31.5870   39.1490    1.1620 C.3    54  LEU54       0.0019
     65  CD1       32.4870   40.2640    0.6560 C.3    54  LEU54       0.0001
     66  CD2       32.3450   38.2510    2.1300 C.3    54  LEU54       0.0001
     67  N         28.0050   38.9260   -0.0510 N.am   55  GLU55      -0.1979
     68  CA        27.4440   38.2250   -1.1720 C.3    55  GLU55       0.1602
     69  C         26.9770   39.1270   -2.3360 C.2    55  GLU55       0.2287
     70  O         27.2880   38.8930   -3.5050 O.2    55  GLU55      -0.2864
     71  CB        26.2960   37.2830   -0.7360 C.3    55  GLU55       0.0415
     72  CG        25.7130   36.4760   -1.8880 C.3    55  GLU55       0.1163
     73  CD        24.4970   35.6780   -1.5110 C.2    55  GLU55       0.3649
     74  OE1       23.6570   36.1840   -0.6880 O.co2  55  GLU55      -0.2457
     75  OE2       24.2850   34.5880   -2.1090 O.co2  55  GLU55      -0.2457
     76  N         29.8940   41.0380   -4.0520 N.3    58  LEU58      -0.1231
     77  CA        30.6510   40.1910   -4.9530 C.3    58  LEU58       0.1693
     78  C         29.8330   39.9470   -6.2700 C.2    58  LEU58       0.2592
     79  O         30.3790   39.8660   -7.3690 O.2    58  LEU58      -0.2718
     80  CB        30.9830   38.8450   -4.2800 C.3    58  LEU58       0.0284
     81  CG        31.9590   38.9390   -3.0840 C.3    58  LEU58       0.0019
     82  CD1       31.9530   37.6220   -2.3270 C.3    58  LEU58       0.0001
     83  CD2       33.3470   39.3390   -3.5680 C.3    58  LEU58       0.0001
     84  N         28.5030   39.9380   -6.1680 N.am   59  THR59      -0.1953
     85  CA        27.6160   39.8530   -7.3350 C.3    59  THR59       0.1897
     86  C         27.7570   40.9640   -8.3240 C.2    59  THR59       0.2313
     87  O         27.6700   40.7760   -9.5250 O.2    59  THR59      -0.2863
     88  CB        26.1310   39.7320   -6.8530 C.3    59  THR59       0.1794
     89  OG1       26.0150   38.5390   -6.0520 O.3    59  THR59      -0.2208
     90  CG2       25.1620   39.6730   -8.0020 C.3    59  THR59       0.0378
@<TRIPOS>BOND
     1    87    86    2
     2    86    85    1
     3    90    88    1
     4    79    78    2
     5    85    88    1
     6    85    84    1
     7    88    89    1
     8    29    28    2
     9    78    84   am
    10    78    77    1
    11    28    27    1
    12    77    80    1
    13    77    76    1
    14    30    27    1
    15    30    31    1
    16    27    26    1
    17    80    81    1
    18    83    81    1
    19    70    69    2
    20    31    32    1
    21    32    33    1
    22    81    82    1
    23    15    13   ar
    24    24    22   ar
    25    24    25   ar
    26    69    68    1
    27    19    18    2
    28    33    34    2
    29    75    73   ar
    30    22    21   ar
    31    25    23   ar
    32    72    73    1
    33    72    71    1
    34    13    12    1
    35    13    14   ar
    36    12    11    1
    37    18    17    1
    38    10     9    2
    39    35    34    1
    40    73    74   ar
    41    34    36    1
    42    62    61    2
    43    68    71    1
    44    68    67    1
    45    21    23   ar
    46    21    20    1
    47     9     8    1
    48    11     8    1
    49    20    17    1
    50    17    16    1
    51    61    67   am
    52    61    60    1
    53     8     7    1
    54    65    64    1
    55    60    59    1
    56    60    63    1
    57    64    63    1
    58    64    66    1
    59     7     3   am
    60    50    48   ar
    61    50    49   ar
    62    48    46   ar
    63    49    47   ar
    64     4     3    2
    65    46    45   ar
    66    46    44   ar
    67    47    44   ar
    68     3     2    1
    69    45    43   ar
    70    44    42   ar
    71    54    53    2
    72    43    42   ar
    73    42    41    1
    74    41    38    1
    75    53    52    1
    76     2     1    1
    77     2     5    1
    78    38    37    1
    79    38    39    1
    80     6     5    1
    81    52    55    1
    82    52    51    1
    83    55    56    1
    84    39    40    2
    85    56    57    1
    86    56    58    1
