@<TRIPOS>MOLECULE
tmp/4bhzA02.pdb
 104 96 0 0 0
SMALL
GASTEIGER

@<TRIPOS>ATOM
      1  N          5.0080  -46.9980   13.0580 N.3    16  ILE16      -0.1245
      2  CA         3.7880  -46.2350   12.7890 C.3    16  ILE16       0.1561
      3  C          4.1400  -45.0100   11.8780 C.2    16  ILE16       0.2260
      4  O          3.8090  -45.0220   10.6870 O.2    16  ILE16      -0.2867
      5  CB         2.9920  -45.8990   14.0820 C.3    16  ILE16       0.0252
      6  CG1        2.5590  -47.1970   14.8240 C.3    16  ILE16       0.0019
      7  CG2        1.8050  -44.9990   13.7550 C.3    16  ILE16       0.0019
      8  CD1        2.2650  -47.0140   16.3590 C.3    16  ILE16       0.0001
      9  N          8.1230  -43.3100   14.7930 N.3    21  VAL21      -0.1245
     10  CA         7.2120  -43.7570   15.8630 C.3    21  VAL21       0.1561
     11  C          6.9870  -45.2660   15.6350 C.2    21  VAL21       0.2260
     12  O          6.8020  -45.6900   14.4920 O.2    21  VAL21      -0.2867
     13  CB         5.8710  -42.9550   15.9450 C.3    21  VAL21       0.0252
     14  CG1        5.0270  -43.3780   17.1530 C.3    21  VAL21       0.0019
     15  CG2        6.1210  -41.4490   15.9820 C.3    21  VAL21       0.0019
     16  N          3.5450  -47.1300   22.4220 N.3    33  ALA33      -0.1245
     17  CA         4.0510  -46.3920   21.2680 C.3    33  ALA33       0.1562
     18  C          5.3800  -45.7960   21.6660 C.2    33  ALA33       0.2260
     19  O          5.4710  -45.2190   22.7410 O.2    33  ALA33      -0.2867
     20  CB         3.0950  -45.2870   20.8920 C.3    33  ALA33       0.0290
     21  N          8.1430  -43.0730   20.5760 N.3    35  LYS35      -0.1245
     22  CA         8.5820  -42.0690   19.6250 C.3    35  LYS35       0.1561
     23  C         10.1260  -41.9340   19.7280 C.2    35  LYS35       0.2260
     24  O         10.6570  -41.6600   20.8090 O.2    35  LYS35      -0.2867
     25  CB         7.8750  -40.7360   19.8650 C.3    35  LYS35       0.0271
     26  CG         8.0590  -39.7440   18.7420 C.3    35  LYS35       0.0035
     27  CD         7.7000  -38.3560   19.2330 C.3    35  LYS35       0.0206
     28  CE         7.8570  -37.3360   18.1550 C.3    35  LYS35       0.1093
     29  NZ         7.1820  -36.0820   18.5250 N.3    35  LYS35      -0.1314
     30  N         -2.8440  -37.4800   25.1520 N.3    68  ILE68      -0.1245
     31  CA        -2.0650  -38.7280   25.0660 C.3    68  ILE68       0.1561
     32  C         -1.2100  -38.9900   26.3260 C.2    68  ILE68       0.2260
     33  O         -0.5610  -38.0770   26.8480 O.2    68  ILE68      -0.2867
     34  CB        -1.2180  -38.7770   23.7550 C.3    68  ILE68       0.0252
     35  CG1       -0.7050  -40.1960   23.4570 C.3    68  ILE68       0.0019
     36  CG2       -0.0820  -37.7340   23.7350 C.3    68  ILE68       0.0019
     37  CD1       -0.0540  -40.3810   22.0910 C.3    68  ILE68       0.0001
     38  N          4.8410  -43.8910   25.1320 N.3    84  MET84      -0.1230
     39  CA         3.5030  -43.3290   25.1380 C.3    84  MET84       0.1702
     40  C          2.3980  -44.3830   25.0030 C.2    84  MET84       0.2592
     41  O          2.6840  -45.5670   24.8280 O.2    84  MET84      -0.2718
     42  CB         3.3970  -42.2890   24.0020 C.3    84  MET84       0.0401
     43  CG         4.4160  -41.1730   24.1240 C.3    84  MET84       0.0596
     44  SD         4.5200  -40.2410   22.6080 S.3    84  MET84      -0.1393
     45  CE         3.4200  -38.9780   23.0110 C.3    84  MET84       0.0692
     46  N          1.1360  -43.9560   25.0570 N.am   85  GLU85      -0.1966
     47  CA         0.0740  -44.9200   24.8350 C.3    85  GLU85       0.1733
     48  C         -0.1120  -45.1320   23.3300 C.2    85  GLU85       0.2616
     49  O          0.1750  -44.2370   22.5130 O.2    85  GLU85      -0.2715
     50  CB        -1.2380  -44.6040   25.6040 C.3    85  GLU85       0.0429
     51  CG        -2.0410  -43.4000   25.1420 C.3    85  GLU85       0.1163
     52  CD        -3.3750  -43.2140   25.8440 C.2    85  GLU85       0.3649
     53  OE1       -4.1250  -44.2060   25.9890 O.co2  85  GLU85      -0.2457
     54  OE2       -3.6890  -42.0630   26.2200 O.co2  85  GLU85      -0.2457
     55  N         -0.4950  -46.3650   22.9710 N.am   86  CYS86      -0.1954
     56  CA        -0.7390  -46.6920   21.5810 C.3    86  CYS86       0.1843
     57  C         -2.2120  -46.4920   21.2000 C.2    86  CYS86       0.2626
     58  O         -3.1280  -46.9990   21.8690 O.2    86  CYS86      -0.2714
     59  CB        -0.2470  -48.0870   21.2320 C.3    86  CYS86       0.0997
     60  SG        -0.0120  -48.3400   19.4570 S.3    86  CYS86      -0.0797
     61  N         -2.4170  -45.7110   20.1500 N.am   87  GLY87      -0.1940
     62  CA        -3.7520  -45.4690   19.6360 C.3    87  GLY87       0.2014
     63  C         -4.1120  -46.5220   18.6170 C.2    87  GLY87       0.2639
     64  O         -3.2650  -47.3330   18.2410 O.2    87  GLY87      -0.2714
     65  N         -5.3520  -46.5010   18.1450 N.am   88  ASN88      -0.1958
     66  CA        -5.7920  -47.4220   17.1050 C.3    88  ASN88       0.1819
     67  C         -5.4010  -46.8850   15.7100 C.2    88  ASN88       0.2621
     68  O         -4.7160  -47.5660   14.9470 O.2    88  ASN88      -0.2715
     69  CB        -7.2890  -47.7050   17.2280 C.3    88  ASN88       0.1195
     70  CG        -7.6320  -48.5190   18.4430 C.2    88  ASN88       0.2630
     71  OD1       -6.9690  -49.5130   18.7640 O.2    88  ASN88      -0.2716
     72  ND2       -8.6810  -48.1340   19.1400 N.am   88  ASN88      -0.0877
     73  N         -5.7890  -45.6410   15.4150 N.am   89  ILE89      -0.1963
     74  CA        -5.5470  -44.9540   14.1470 C.3    89  ILE89       0.1727
     75  C         -5.6130  -43.4410   14.4370 C.2    89  ILE89       0.2616
     76  O         -6.1430  -43.0500   15.4790 O.2    89  ILE89      -0.2715
     77  CB        -6.6440  -45.4370   13.1460 C.3    89  ILE89       0.0290
     78  CG1       -6.4070  -44.9380   11.7030 C.3    89  ILE89       0.0022
     79  CG2       -8.0800  -45.1930   13.6760 C.3    89  ILE89       0.0023
     80  CD1       -7.3080  -45.5770   10.6190 C.3    89  ILE89       0.0001
     81  N         -5.0700  -42.5930   13.5540 N.am   90  ASP90      -0.1971
     82  CA        -5.1890  -41.1520   13.7720 C.3    90  ASP90       0.1709
     83  C         -6.5290  -40.7680   13.1880 C.2    90  ASP90       0.2293
     84  O         -7.0920  -41.5510   12.4170 O.2    90  ASP90      -0.2864
     85  CB        -4.0250  -40.3500   13.1570 C.3    90  ASP90       0.1436
     86  CG        -4.0200  -40.3370   11.6470 C.2    90  ASP90       0.3671
     87  OD1       -4.7470  -39.5250   11.0690 O.co2  90  ASP90      -0.2456
     88  OD2       -3.3010  -41.1560   11.0520 O.co2  90  ASP90      -0.2456
     89  N         -5.9260  -38.6950   17.9410 N.3   136  LEU136     -0.1245
     90  CA        -5.7660  -40.1440   17.9410 C.3   136  LEU136      0.1561
     91  C         -6.9950  -40.8200   18.4560 C.2   136  LEU136      0.2260
     92  O         -7.4920  -40.4160   19.5070 O.2   136  LEU136     -0.2867
     93  CB        -4.6350  -40.4190   18.9350 C.3   136  LEU136      0.0270
     94  CG        -3.8740  -41.6940   18.8430 C.3   136  LEU136      0.0019
     95  CD1       -3.0410  -41.6830   17.6120 C.3   136  LEU136      0.0001
     96  CD2       -2.9360  -41.8070   20.0210 C.3   136  LEU136      0.0001
     97  N         -2.5980  -35.4530   20.1670 N.3   145  ILE145     -0.1245
     98  CA        -1.2540  -36.0370   19.9850 C.3   145  ILE145      0.1561
     99  C         -0.1410  -35.0900   20.4060 C.2   145  ILE145      0.2260
    100  O          0.8220  -35.5530   21.0010 O.2   145  ILE145     -0.2867
    101  CB        -1.0780  -36.6410   18.5400 C.3   145  ILE145      0.0252
    102  CG1       -1.9060  -37.9110   18.3910 C.3   145  ILE145      0.0019
    103  CG2        0.3350  -36.9580   18.1880 C.3   145  ILE145      0.0019
    104  CD1       -2.0230  -38.4560   16.9050 C.3   145  ILE145      0.0001
@<TRIPOS>BOND
     1    80    78    1
     2     4     3    2
     3    88    86   ar
     4    87    86   ar
     5    86    85    1
     6    78    77    1
     7     3     2    1
     8    84    83    2
     9     2     1    1
    10     2     5    1
    11    77    79    1
    12    77    74    1
    13    85    82    1
    14    83    82    1
    15    81    82    1
    16    81    75   am
    17     7     5    1
    18     5     6    1
    19    74    75    1
    20    74    73    1
    21    75    76    2
    22    12    11    2
    23     9    10    1
    24     6     8    1
    25    68    67    2
    26    73    67   am
    27    11    10    1
    28    67    66    1
    29    10    13    1
    30    13    15    1
    31    13    14    1
    32   104   102    1
    33    66    69    1
    34    66    65    1
    35    69    70    1
    36    95    94    1
    37    89    90    1
    38    90    91    1
    39    90    93    1
    40    65    63   am
    41    28    29    1
    42    28    27    1
    43   103   101    1
    44    64    63    2
    45   102   101    1
    46    70    71    2
    47    70    72   am
    48    91    92    2
    49   101    98    1
    50    63    62    1
    51    26    27    1
    52    26    25    1
    53    94    93    1
    54    94    96    1
    55    60    59    1
    56    22    23    1
    57    22    25    1
    58    22    21    1
    59    62    61    1
    60    23    24    2
    61    98    97    1
    62    98    99    1
    63    61    57   am
    64    99   100    2
    65    20    17    1
    66    57    56    1
    67    57    58    2
    68    59    56    1
    69    17    18    1
    70    17    16    1
    71    56    55    1
    72    18    19    2
    73    37    35    1
    74    49    48    2
    75    44    45    1
    76    44    43    1
    77    55    48   am
    78    48    47    1
    79    35    34    1
    80    36    34    1
    81    34    31    1
    82    42    43    1
    83    42    39    1
    84    41    40    2
    85    47    46    1
    86    47    50    1
    87    40    46   am
    88    40    39    1
    89    31    30    1
    90    31    32    1
    91    38    39    1
    92    51    50    1
    93    51    52    1
    94    52    53   ar
    95    52    54   ar
    96    32    33    2
