@<TRIPOS>MOLECULE
tmp/4bi0A02.pdb
 98 89 0 0 0
SMALL
GASTEIGER

@<TRIPOS>ATOM
      1  N         -4.8440   47.5880   13.7410 N.3    16  ILE16      -0.1245
      2  CA        -3.5410   46.9150   13.7510 C.3    16  ILE16       0.1561
      3  C         -3.4890   45.6680   12.8320 C.2    16  ILE16       0.2260
      4  O         -2.4020   45.2540   12.4040 O.2    16  ILE16      -0.2867
      5  CB        -3.1510   46.5880   15.2270 C.3    16  ILE16       0.0252
      6  CG1       -2.2810   47.6790   15.8490 C.3    16  ILE16       0.0019
      7  CG2       -2.5130   45.2070   15.3900 C.3    16  ILE16       0.0019
      8  CD1       -2.0230   47.4420   17.3380 C.3    16  ILE16       0.0001
      9  N         -8.2140   43.6570   15.1320 N.3    24  VAL24      -0.1245
     10  CA        -7.3170   44.1210   16.2020 C.3    24  VAL24       0.1561
     11  C         -7.1240   45.6390   16.0190 C.2    24  VAL24       0.2260
     12  O         -6.9270   46.0990   14.8950 O.2    24  VAL24      -0.2867
     13  CB        -5.9720   43.3270   16.3010 C.3    24  VAL24       0.0252
     14  CG1       -5.1510   43.7620   17.5130 C.3    24  VAL24       0.0019
     15  CG2       -6.2130   41.8160   16.3530 C.3    24  VAL24       0.0019
     16  N         -3.6430   47.2990   22.6740 N.3    36  ALA36      -0.1245
     17  CA        -4.2220   46.6430   21.5070 C.3    36  ALA36       0.1562
     18  C         -5.5010   45.9940   21.9660 C.2    36  ALA36       0.2260
     19  O         -5.5380   45.3980   23.0360 O.2    36  ALA36      -0.2867
     20  CB        -3.2800   45.5990   20.9410 C.3    36  ALA36       0.0290
     21  N         -8.2350   43.3020   20.8210 N.3    38  LYS38      -0.1245
     22  CA        -8.6650   42.3080   19.8720 C.3    38  LYS38       0.1561
     23  C        -10.1760   42.1550   20.0600 C.2    38  LYS38       0.2260
     24  O        -10.6510   41.8800   21.1670 O.2    38  LYS38      -0.2867
     25  CB        -7.9270   40.9860   20.0900 C.3    38  LYS38       0.0271
     26  CG        -8.1950   39.9610   18.9940 C.3    38  LYS38       0.0035
     27  CD        -7.5060   38.6920   19.3450 C.3    38  LYS38       0.0206
     28  CE        -7.9450   37.5380   18.5250 C.3    38  LYS38       0.1093
     29  NZ        -7.2130   36.3300   18.9530 N.3    38  LYS38      -0.1314
     30  N          2.8500   37.6200   25.4830 N.3    71  ILE71      -0.1245
     31  CA         2.0930   38.8760   25.3810 C.3    71  ILE71       0.1561
     32  C          1.1970   39.1480   26.6120 C.2    71  ILE71       0.2260
     33  O          0.6450   38.2060   27.1820 O.2    71  ILE71      -0.2867
     34  CB         1.3380   38.9210   24.0340 C.3    71  ILE71       0.0252
     35  CG1        1.1160   40.3630   23.5600 C.3    71  ILE71       0.0019
     36  CG2        0.0840   38.0390   24.0210 C.3    71  ILE71       0.0019
     37  CD1       -0.1380   40.5880   22.7510 C.3    71  ILE71       0.0001
     38  N         -4.8390   44.0010   25.4440 N.3    87  MET87      -0.1230
     39  CA        -3.5100   43.4110   25.4850 C.3    87  MET87       0.1702
     40  C         -2.3920   44.4430   25.3190 C.2    87  MET87       0.2595
     41  O         -2.6740   45.6220   25.0650 O.2    87  MET87      -0.2718
     42  CB        -3.3930   42.3380   24.3960 C.3    87  MET87       0.0401
     43  CG        -4.2760   41.1440   24.6290 C.3    87  MET87       0.0596
     44  SD        -4.6070   40.3950   23.0320 S.3    87  MET87      -0.1393
     45  CE        -3.6150   38.9980   23.1650 C.3    87  MET87       0.0692
     46  N         -1.1190   44.0070   25.4410 N.am   88  GLU88      -0.1934
     47  CA        -0.0280   44.9470   25.1940 C.3    88  GLU88       0.1818
     48  C          0.1410   45.1080   23.6800 C.2    88  GLU88       0.2332
     49  O         -0.0960   44.1690   22.9030 O.2    88  GLU88      -0.2860
     50  CB         1.2880   44.6130   25.9440 C.2    88  GLU88       0.0097
     51  CG         2.0670   43.4140   25.4350 C.2    88  GLU88       0.0837
     52  CD         3.3870   43.1510   26.1330 C.2    88  GLU88       0.3877
     53  OE1        4.1950   44.0970   26.2590 O.co2  88  GLU88      -0.2406
     54  OE2        3.6290   41.9880   26.5290 O.co2  88  GLU88      -0.2406
     55  N          2.3200   45.8690   20.3390 N.3    90  GLY90      -0.1210
     56  CA         3.6810   45.6720   19.8660 C.3    90  GLY90       0.1956
     57  C          4.1330   46.7820   18.9460 C.2    90  GLY90       0.2612
     58  O          3.3530   47.6740   18.6070 O.2    90  GLY90      -0.2717
     59  N          5.3800   46.7140   18.5110 N.am   91  ASN91      -0.1960
     60  CA         5.9010   47.6920   17.5720 C.3    91  ASN91       0.1819
     61  C          5.5850   47.2020   16.1520 C.2    91  ASN91       0.2621
     62  O          5.0120   47.9520   15.3630 O.2    91  ASN91      -0.2715
     63  CB         7.4000   47.9560   17.8020 C.3    91  ASN91       0.1195
     64  CG         7.7550   48.4960   19.1750 C.2    91  ASN91       0.2630
     65  OD1        8.8120   48.1990   19.7230 O.2    91  ASN91      -0.2716
     66  ND2        6.9120   49.3320   19.7650 N.am   91  ASN91      -0.0877
     67  N          5.8800   45.9190   15.8600 N.am   92  ILE92      -0.1963
     68  CA         5.6680   45.2550   14.5650 C.3    92  ILE92       0.1727
     69  C          5.7080   43.7310   14.7850 C.2    92  ILE92       0.2616
     70  O          6.3420   43.2810   15.7360 O.2    92  ILE92      -0.2715
     71  CB         6.7710   45.7400   13.5560 C.3    92  ILE92       0.0290
     72  CG1        6.5090   45.2810   12.1030 C.3    92  ILE92       0.0022
     73  CG2        8.2090   45.4390   14.0440 C.3    92  ILE92       0.0023
     74  CD1        7.3690   45.9910   11.0310 C.3    92  ILE92       0.0001
     75  N          5.0630   42.9380   13.9260 N.am   93  ASP93      -0.1971
     76  CA         5.1930   41.4870   14.0660 C.3    93  ASP93       0.1709
     77  C          6.5240   41.0910   13.4060 C.2    93  ASP93       0.2293
     78  O          7.0370   41.8340   12.5690 O.2    93  ASP93      -0.2864
     79  CB         3.9930   40.7110   13.4790 C.3    93  ASP93       0.1436
     80  CG         3.9980   40.6210   11.9730 C.2    93  ASP93       0.3671
     81  OD1        3.5180   41.5690   11.3240 O.co2  93  ASP93      -0.2456
     82  OD2        4.5150   39.6210   11.4450 O.co2  93  ASP93      -0.2456
     83  N          6.0110   39.0070   18.1680 N.3   139  LEU139     -0.1245
     84  CA         5.8080   40.4450   18.1720 C.3   139  LEU139      0.1561
     85  C          6.9760   41.1570   18.8010 C.2   139  LEU139      0.2260
     86  O          7.3530   40.8100   19.9250 O.2   139  LEU139     -0.2867
     87  CB         4.5640   40.6610   19.0390 C.3   139  LEU139      0.0270
     88  CG         3.8070   41.9460   18.9250 C.3   139  LEU139      0.0019
     89  CD1        3.0390   41.9880   17.6120 C.3   139  LEU139      0.0001
     90  CD2        2.8540   42.0840   20.1010 C.3   139  LEU139      0.0001
     91  N          2.5280   35.6620   20.4620 N.3   148  ILE148     -0.1245
     92  CA         1.1810   36.2260   20.2830 C.3   148  ILE148      0.1561
     93  C          0.0810   35.2440   20.6700 C.2   148  ILE148      0.2260
     94  O         -0.8720   35.6380   21.3330 O.2   148  ILE148     -0.2867
     95  CB         1.0170   36.8350   18.8540 C.3   148  ILE148      0.0252
     96  CG1        1.9970   38.0050   18.6470 C.3   148  ILE148      0.0019
     97  CG2       -0.3650   37.3190   18.5790 C.3   148  ILE148      0.0019
     98  CD1        2.1500   38.4790   17.1450 C.3   148  ILE148      0.0001
@<TRIPOS>BOND
     1    74    72    1
     2    81    80   ar
     3    82    80   ar
     4    80    79    1
     5    72    71    1
     6     4     3    2
     7    78    77    2
     8     3     2    1
     9    77    76    1
    10    79    76    1
    11    71    73    1
    12    71    68    1
    13     1     2    1
    14     2     5    1
    15    75    76    1
    16    75    69   am
    17    68    69    1
    18    68    67    1
    19    69    70    2
    20    12    11    2
    21     9    10    1
    22     5     7    1
    23     5     6    1
    24    62    61    2
    25     6     8    1
    26    67    61   am
    27    11    10    1
    28    61    60    1
    29    10    13    1
    30    13    15    1
    31    13    14    1
    32    98    96    1
    33    60    63    1
    34    60    59    1
    35    89    88    1
    36    63    64    1
    37    83    84    1
    38    84    85    1
    39    84    87    1
    40    59    57   am
    41    28    29    1
    42    28    27    1
    43    97    95    1
    44    58    57    2
    45    96    95    1
    46    85    86    2
    47    95    92    1
    48    88    87    1
    49    88    90    1
    50    57    56    1
    51    26    27    1
    52    26    25    1
    53    64    65    2
    54    64    66   am
    55    56    55    1
    56    22    23    1
    57    22    25    1
    58    22    21    1
    59    23    24    2
    60    92    91    1
    61    92    93    1
    62    93    94    2
    63    20    17    1
    64    17    18    1
    65    17    16    1
    66    18    19    2
    67    37    35    1
    68    49    48    2
    69    44    45    1
    70    44    43    1
    71    35    34    1
    72    48    47    1
    73    36    34    1
    74    34    31    1
    75    42    43    1
    76    42    39    1
    77    41    40    2
    78    47    46    1
    79    47    50    1
    80    40    46   am
    81    40    39    1
    82    31    30    1
    83    31    32    1
    84    51    50    2
    85    51    52    1
    86    38    39    1
    87    52    53   ar
    88    52    54   ar
    89    32    33    2
