@<TRIPOS>MOLECULE
tmp/4bi1A02.pdb
 108 100 0 0 0
SMALL
GASTEIGER

@<TRIPOS>ATOM
      1  N         -4.8610   47.3080   13.3450 N.3    16  ILE16      -0.1231
      2  CA        -3.6080   46.5820   13.1480 C.3    16  ILE16       0.1692
      3  C         -3.8380   45.3310   12.2500 C.2    16  ILE16       0.2592
      4  O         -3.3020   45.2610   11.1430 O.2    16  ILE16      -0.2718
      5  CB        -2.8870   46.2330   14.4800 C.3    16  ILE16       0.0266
      6  CG1       -2.5230   47.4920   15.3080 C.3    16  ILE16       0.0019
      7  CG2       -1.6690   45.3660   14.1970 C.3    16  ILE16       0.0020
      8  CD1       -2.1720   47.1870   16.8190 C.3    16  ILE16       0.0001
      9  N         -4.6270   44.3740   12.7360 N.am   17  GLY17      -0.1957
     10  CA        -4.9050   43.1400   12.0070 C.3    17  GLY17       0.1869
     11  C         -6.3710   42.9010   11.7210 C.2    17  GLY17       0.2309
     12  O         -7.2080   43.7530   12.0260 O.2    17  GLY17      -0.2863
     13  N         -7.9340   43.5060   15.1340 N.3    23  VAL23      -0.1245
     14  CA        -7.0250   43.9480   16.2000 C.3    23  VAL23       0.1561
     15  C         -6.8120   45.4420   15.9690 C.2    23  VAL23       0.2260
     16  O         -6.6030   45.8600   14.8290 O.2    23  VAL23      -0.2867
     17  CB        -5.6920   43.1360   16.2560 C.3    23  VAL23       0.0252
     18  CG1       -4.7310   43.6840   17.3080 C.3    23  VAL23       0.0019
     19  CG2       -5.9500   41.6600   16.5110 C.3    23  VAL23       0.0019
     20  N         -3.4930   47.1840   22.6070 N.3    35  ALA35      -0.1245
     21  CA        -4.0620   46.5220   21.4330 C.3    35  ALA35       0.1562
     22  C         -5.3420   45.8320   21.8950 C.2    35  ALA35       0.2260
     23  O         -5.3490   45.1590   22.9280 O.2    35  ALA35      -0.2867
     24  CB        -3.1050   45.5090   20.8510 C.3    35  ALA35       0.0290
     25  N         -8.0880   43.1610   20.8250 N.3    37  LYS37      -0.1245
     26  CA        -8.5020   42.1610   19.8720 C.3    37  LYS37       0.1561
     27  C        -10.0120   41.9520   20.0320 C.2    37  LYS37       0.2260
     28  O        -10.4900   41.5330   21.0940 O.2    37  LYS37      -0.2867
     29  CB        -7.7070   40.8620   20.0160 C.3    37  LYS37       0.0271
     30  CG        -8.1530   39.7860   19.0240 C.3    37  LYS37       0.0035
     31  CD        -7.2700   38.6000   19.1270 C.3    37  LYS37       0.0206
     32  CE        -7.8080   37.4310   18.3890 C.3    37  LYS37       0.1093
     33  NZ        -7.2030   36.1830   18.9160 N.3    37  LYS37      -0.1314
     34  N          2.9110   37.5600   25.2430 N.3    70  ILE70      -0.1245
     35  CA         2.1740   38.8260   25.1850 C.3    70  ILE70       0.1561
     36  C          1.3150   39.0740   26.4560 C.2    70  ILE70       0.2260
     37  O          0.7140   38.1410   26.9860 O.2    70  ILE70      -0.2867
     38  CB         1.3650   38.9260   23.8570 C.3    70  ILE70       0.0252
     39  CG1        0.9120   40.3630   23.5600 C.3    70  ILE70       0.0019
     40  CG2        0.2160   37.9020   23.7860 C.3    70  ILE70       0.0019
     41  CD1        0.1650   40.6050   22.2050 C.3    70  ILE70       0.0001
     42  N         -4.6580   43.9390   25.4280 N.3    86  MET86      -0.1230
     43  CA        -3.3220   43.3930   25.4660 C.3    86  MET86       0.1702
     44  C         -2.2900   44.4780   25.3030 C.2    86  MET86       0.2592
     45  O         -2.6470   45.6290   25.0650 O.2    86  MET86      -0.2718
     46  CB        -3.1700   42.3630   24.3310 C.3    86  MET86       0.0401
     47  CG        -4.2430   41.2690   24.3420 C.3    86  MET86       0.0596
     48  SD        -4.2970   40.3850   22.7800 S.3    86  MET86      -0.1393
     49  CE        -3.3190   39.0910   23.2000 C.3    86  MET86       0.0692
     50  N         -1.0020   44.1200   25.3980 N.am   87  GLU87      -0.1966
     51  CA         0.0400   45.1070   25.1530 C.3    87  GLU87       0.1733
     52  C          0.1790   45.3100   23.6360 C.2    87  GLU87       0.2616
     53  O         -0.1820   44.4260   22.8420 O.2    87  GLU87      -0.2715
     54  CB         1.3850   44.7450   25.8340 C.3    87  GLU87       0.0429
     55  CG         2.1690   43.6170   25.1930 C.3    87  GLU87       0.1163
     56  CD         3.4120   43.2070   25.9610 C.2    87  GLU87       0.3649
     57  OE1        4.2620   44.0790   26.2470 O.co2  87  GLU87      -0.2457
     58  OE2        3.5390   42.0040   26.2790 O.co2  87  GLU87      -0.2457
     59  N          0.6590   46.4850   23.2460 N.am   88  CYS88      -0.1954
     60  CA         0.8940   46.7760   21.8480 C.3    88  CYS88       0.1843
     61  C          2.3770   46.5410   21.4870 C.2    88  CYS88       0.2626
     62  O          3.2900   46.9730   22.2090 O.2    88  CYS88      -0.2714
     63  CB         0.4530   48.1940   21.5090 C.3    88  CYS88       0.0997
     64  SG        -0.0020   48.4170   19.7750 S.3    88  CYS88      -0.0797
     65  N          2.5940   45.8450   20.3880 N.am   89  GLY89      -0.1940
     66  CA         3.9370   45.6360   19.8790 C.3    89  GLY89       0.2014
     67  C          4.2680   46.7110   18.8680 C.2    89  GLY89       0.2639
     68  O          3.4180   47.5400   18.5410 O.2    89  GLY89      -0.2714
     69  N          5.4930   46.6990   18.3580 N.am   90  ASN90      -0.1958
     70  CA         5.9120   47.6550   17.3420 C.3    90  ASN90       0.1819
     71  C          5.5530   47.0720   15.9780 C.2    90  ASN90       0.2621
     72  O          4.9590   47.7650   15.1550 O.2    90  ASN90      -0.2715
     73  CB         7.4140   47.9410   17.4180 C.3    90  ASN90       0.1195
     74  CG         7.9190   48.3790   18.7670 C.2    90  ASN90       0.2630
     75  OD1        7.8390   47.6650   19.7570 O.2    90  ASN90      -0.2716
     76  ND2        8.5390   49.5250   18.8250 N.am   90  ASN90      -0.0877
     77  N          5.8970   45.7920   15.7460 N.am   91  ILE91      -0.1963
     78  CA         5.6910   45.0920   14.4740 C.3    91  ILE91       0.1727
     79  C          5.7370   43.5750   14.7240 C.2    91  ILE91       0.2616
     80  O          6.3140   43.1400   15.7200 O.2    91  ILE91      -0.2715
     81  CB         6.8020   45.5780   13.4800 C.3    91  ILE91       0.0290
     82  CG1        6.5050   45.2360   12.0040 C.3    91  ILE91       0.0022
     83  CG2        8.2190   45.2120   13.9370 C.3    91  ILE91       0.0023
     84  CD1        7.4020   45.9410   10.9910 C.3    91  ILE91       0.0001
     85  N          5.1390   42.7720   13.8440 N.am   92  ASP92      -0.1971
     86  CA         5.2440   41.3200   13.9860 C.3    92  ASP92       0.1709
     87  C          6.5770   40.9240   13.3300 C.2    92  ASP92       0.2293
     88  O          7.1210   41.6930   12.5370 O.2    92  ASP92      -0.2864
     89  CB         4.0270   40.5730   13.3840 C.3    92  ASP92       0.1436
     90  CG         4.0200   40.5100   11.8730 C.2    92  ASP92       0.3671
     91  OD1        4.7250   39.6640   11.3210 O.co2  92  ASP92      -0.2456
     92  OD2        3.3080   41.3140   11.2470 O.co2  92  ASP92      -0.2456
     93  N          5.9810   38.8600   18.0620 N.3   138  LEU138     -0.1245
     94  CA         5.8190   40.3030   18.0450 C.3   138  LEU138      0.1561
     95  C          7.0130   40.9980   18.6640 C.2   138  LEU138      0.2260
     96  O          7.4650   40.5780   19.7340 O.2   138  LEU138     -0.2867
     97  CB         4.5680   40.5780   18.8880 C.3   138  LEU138      0.0270
     98  CG         4.0000   41.9680   18.9500 C.3   138  LEU138      0.0019
     99  CD1        3.6070   42.4490   17.5640 C.3   138  LEU138      0.0001
    100  CD2        2.8270   41.9990   19.8970 C.3   138  LEU138      0.0001
    101  N          2.5790   35.6000   20.4370 N.3   147  ILE147     -0.1245
    102  CA         1.2210   36.1470   20.4560 C.3   147  ILE147      0.1561
    103  C          0.1030   35.1530   20.7110 C.2   147  ILE147      0.2260
    104  O         -0.8730   35.5080   21.3600 O.2   147  ILE147     -0.2867
    105  CB         0.9270   37.1810   19.3430 C.3   147  ILE147      0.0252
    106  CG1        0.7870   36.5450   17.9700 C.3   147  ILE147      0.0019
    107  CG2        1.9940   38.2630   19.3420 C.3   147  ILE147      0.0019
    108  CD1        0.1930   37.4860   16.9440 C.3   147  ILE147      0.0001
@<TRIPOS>BOND
     1    84    82    1
     2     4     3    2
     3    92    90   ar
     4    91    90   ar
     5    11    10    1
     6    11    12    2
     7    90    89    1
     8    82    81    1
     9    10     9    1
    10     3     9   am
    11     3     2    1
    12    88    87    2
    13     2     1    1
    14     2     5    1
    15    87    86    1
    16    89    86    1
    17    81    83    1
    18    81    78    1
    19    85    86    1
    20    85    79   am
    21     7     5    1
    22    78    79    1
    23    78    77    1
    24     5     6    1
    25    79    80    2
    26    16    15    2
    27    13    14    1
    28    72    71    2
    29     6     8    1
    30    77    71   am
    31    15    14    1
    32    71    70    1
    33    14    17    1
    34    17    19    1
    35    17    18    1
    36   108   106    1
    37    70    73    1
    38    70    69    1
    39    73    74    1
    40    99    98    1
    41   106   105    1
    42    94    93    1
    43    94    95    1
    44    94    97    1
    45    69    67   am
    46    32    33    1
    47    32    31    1
    48    68    67    2
    49    95    96    2
    50    74    76   am
    51    74    75    2
    52    67    66    1
    53    97    98    1
    54    98   100    1
    55    30    31    1
    56    30    29    1
    57   107   105    1
    58   105   102    1
    59    64    63    1
    60    26    29    1
    61    26    27    1
    62    26    25    1
    63    66    65    1
    64    27    28    2
    65    65    61   am
    66   101   102    1
    67   102   103    1
    68   103   104    2
    69    24    21    1
    70    21    22    1
    71    21    20    1
    72    61    60    1
    73    61    62    2
    74    63    60    1
    75    60    59    1
    76    22    23    2
    77    41    39    1
    78    48    49    1
    79    48    47    1
    80    53    52    2
    81    59    52   am
    82    39    38    1
    83    52    51    1
    84    40    38    1
    85    38    35    1
    86    46    47    1
    87    46    43    1
    88    45    44    2
    89    51    50    1
    90    51    54    1
    91    35    34    1
    92    35    36    1
    93    55    54    1
    94    55    56    1
    95    44    50   am
    96    44    43    1
    97    42    43    1
    98    56    57   ar
    99    56    58   ar
   100    36    37    2
