@<TRIPOS>MOLECULE
tmp/4bi2A01.pdb
 104 96 0 0 0
SMALL
GASTEIGER

@<TRIPOS>ATOM
      1  N         -4.7550   47.2410   12.8990 N.3    16  ILE16      -0.1245
      2  CA        -3.5150   46.4780   12.7560 C.3    16  ILE16       0.1561
      3  C         -3.6970   45.3430   11.7220 C.2    16  ILE16       0.2260
      4  O         -3.0930   45.3870   10.6590 O.2    16  ILE16      -0.2867
      5  CB        -2.9290   46.0170   14.1280 C.3    16  ILE16       0.0252
      6  CG1       -2.4290   47.2260   14.9560 C.3    16  ILE16       0.0019
      7  CG2       -1.8140   45.0140   13.9320 C.3    16  ILE16       0.0019
      8  CD1       -2.0190   46.9190   16.3870 C.3    16  ILE16       0.0001
      9  N         -8.0740   43.2900   14.4550 N.3    24  VAL24      -0.1245
     10  CA        -7.1500   43.7840   15.4680 C.3    24  VAL24       0.1561
     11  C         -6.9070   45.2740   15.2160 C.2    24  VAL24       0.2260
     12  O         -6.5900   45.6640   14.0930 O.2    24  VAL24      -0.2867
     13  CB        -5.8300   42.9890   15.5310 C.3    24  VAL24       0.0252
     14  CG1       -5.1020   43.2690   16.8320 C.3    24  VAL24       0.0019
     15  CG2       -6.0720   41.4970   15.3850 C.3    24  VAL24       0.0019
     16  N         -3.5810   47.1100   21.9600 N.3    36  ALA36      -0.1245
     17  CA        -4.0500   46.4050   20.7710 C.3    36  ALA36       0.1562
     18  C         -5.3390   45.6800   21.1140 C.2    36  ALA36       0.2260
     19  O         -5.3280   44.8190   21.9860 O.2    36  ALA36      -0.2867
     20  CB        -2.9930   45.4260   20.2770 C.3    36  ALA36       0.0290
     21  N         -8.4810   43.2580   20.1480 N.3    38  LYS38      -0.1245
     22  CA        -8.8980   42.2490   19.2220 C.3    38  LYS38       0.1561
     23  C        -10.4100   42.0790   19.2750 C.2    38  LYS38       0.2260
     24  O        -10.9840   41.7690   20.3240 O.2    38  LYS38      -0.2867
     25  CB        -8.1940   40.9430   19.5580 C.3    38  LYS38       0.0271
     26  CG        -8.2850   39.9250   18.4630 C.3    38  LYS38       0.0035
     27  CD        -7.5400   38.7130   18.8680 C.3    38  LYS38       0.0206
     28  CE        -7.6430   37.7040   17.7880 C.3    38  LYS38       0.1093
     29  NZ        -7.2850   36.3810   18.3060 N.3    38  LYS38      -0.1314
     30  N          2.7700   37.5010   24.7720 N.3    71  ILE71      -0.1245
     31  CA         2.0200   38.7670   24.6640 C.3    71  ILE71       0.1561
     32  C          1.1510   39.0710   25.8960 C.2    71  ILE71       0.2260
     33  O          0.3660   38.2150   26.2910 O.2    71  ILE71      -0.2867
     34  CB         1.2370   38.9090   23.3060 C.3    71  ILE71       0.0252
     35  CG1        0.4870   40.2620   23.2200 C.3    71  ILE71       0.0019
     36  CG2        0.2740   37.7320   23.0560 C.3    71  ILE71       0.0019
     37  CD1       -0.0500   40.6420   21.8830 C.3    71  ILE71       0.0001
     38  N         -4.7650   43.7480   24.6740 N.3    87  MET87      -0.1230
     39  CA        -3.4040   43.2230   24.7460 C.3    87  MET87       0.1702
     40  C         -2.3660   44.3170   24.5540 C.2    87  MET87       0.2592
     41  O         -2.7100   45.4490   24.2300 O.2    87  MET87      -0.2718
     42  CB        -3.1860   42.1090   23.7010 C.3    87  MET87       0.0401
     43  CG        -4.1450   40.9630   23.8300 C.3    87  MET87       0.0596
     44  SD        -4.1390   39.9280   22.3570 S.3    87  MET87      -0.1393
     45  CE        -4.7850   41.0740   21.1520 C.3    87  MET87       0.0692
     46  N         -1.0940   43.9710   24.7310 N.am   88  GLU88      -0.1966
     47  CA        -0.0310   44.9160   24.5040 C.3    88  GLU88       0.1733
     48  C          0.1650   45.0940   23.0060 C.2    88  GLU88       0.2616
     49  O         -0.0590   44.1650   22.2100 O.2    88  GLU88      -0.2715
     50  CB         1.2600   44.5070   25.2310 C.3    88  GLU88       0.0429
     51  CG         2.0470   43.3490   24.6380 C.3    88  GLU88       0.1163
     52  CD         3.3360   43.0330   25.3690 C.2    88  GLU88       0.3649
     53  OE1        4.1080   43.9730   25.6680 O.co2  88  GLU88      -0.2457
     54  OE2        3.5550   41.8410   25.6780 O.co2  88  GLU88      -0.2457
     55  N          0.5270   46.3210   22.6200 N.am   89  CYS89      -0.1954
     56  CA         0.7550   46.6310   21.2250 C.3    89  CYS89       0.1843
     57  C          2.2310   46.5040   20.8790 C.2    89  CYS89       0.2626
     58  O          3.1010   47.0590   21.5570 O.2    89  CYS89      -0.2714
     59  CB         0.1950   47.9980   20.8570 C.3    89  CYS89       0.0997
     60  SG        -0.0150   48.2240   19.0790 S.3    89  CYS89      -0.0797
     61  N          2.4980   45.6890   19.8790 N.am   90  GLY90      -0.1940
     62  CA         3.8530   45.4800   19.4080 C.3    90  GLY90       0.2014
     63  C          4.1070   46.3990   18.2420 C.2    90  GLY90       0.2639
     64  O          3.1740   47.0310   17.7320 O.2    90  GLY90      -0.2714
     65  N          5.3700   46.4890   17.8250 N.am   91  ASN91      -0.1958
     66  CA         5.7740   47.3160   16.6960 C.3    91  ASN91       0.1819
     67  C          5.3550   46.6420   15.3840 C.2    91  ASN91       0.2621
     68  O          4.6150   47.2350   14.5990 O.2    91  ASN91      -0.2715
     69  CB         7.2780   47.5660   16.7220 C.3    91  ASN91       0.1195
     70  CG         7.7830   48.0400   18.0540 C.2    91  ASN91       0.2630
     71  OD1        8.1500   47.2470   18.9250 O.2    91  ASN91      -0.2716
     72  ND2        7.7900   49.3470   18.2490 N.am   91  ASN91      -0.0877
     73  N          5.7770   45.3840   15.1730 N.am   92  ILE92      -0.1963
     74  CA         5.5190   44.6420   13.9410 C.3    92  ILE92       0.1727
     75  C          5.6630   43.1330   14.1760 C.2    92  ILE92       0.2616
     76  O          6.3870   42.7210   15.0930 O.2    92  ILE92      -0.2715
     77  CB         6.5430   45.1650   12.8780 C.3    92  ILE92       0.0290
     78  CG1        6.3040   44.5820   11.4690 C.3    92  ILE92       0.0022
     79  CG2        8.0090   45.0410   13.3620 C.3    92  ILE92       0.0023
     80  CD1        7.1600   45.1820   10.3660 C.3    92  ILE92       0.0001
     81  N          5.0070   42.3090   13.3280 N.am   93  ASP93      -0.1971
     82  CA         5.1650   40.8550   13.3930 C.3    93  ASP93       0.1709
     83  C          6.5160   40.5260   12.7870 C.2    93  ASP93       0.2293
     84  O          7.0260   41.3030   11.9780 O.2    93  ASP93      -0.2864
     85  CB         4.0510   40.1140   12.6440 C.3    93  ASP93       0.1436
     86  CG         3.9770   40.4730   11.1820 C.2    93  ASP93       0.3671
     87  OD1        3.5670   41.6090   10.8720 O.co2  93  ASP93      -0.2456
     88  OD2        4.3480   39.6320   10.3480 O.co2  93  ASP93      -0.2456
     89  N          5.9470   38.5160   17.5310 N.3   139  LEU139     -0.1245
     90  CA         5.7630   39.9510   17.4510 C.3   139  LEU139      0.1561
     91  C          6.8850   40.6870   18.1390 C.2   139  LEU139      0.2260
     92  O          7.1550   40.4190   19.3110 O.2   139  LEU139     -0.2867
     93  CB         4.4190   40.2550   18.1290 C.3   139  LEU139      0.0270
     94  CG         4.1060   41.6870   18.4740 C.3   139  LEU139      0.0019
     95  CD1        3.6890   42.4360   17.2430 C.3   139  LEU139      0.0001
     96  CD2        3.0450   41.7590   19.5520 C.3   139  LEU139      0.0001
     97  N          2.4090   35.2760   19.8770 N.3   148  ILE148     -0.1245
     98  CA         1.0500   35.8060   19.7170 C.3   148  ILE148      0.1561
     99  C          0.0020   34.7920   20.1430 C.2   148  ILE148      0.2260
    100  O         -0.9060   35.1480   20.8830 O.2   148  ILE148     -0.2867
    101  CB         0.8270   36.3040   18.2390 C.3   148  ILE148      0.0252
    102  CG1        1.6770   37.5170   17.8970 C.3   148  ILE148      0.0019
    103  CG2       -0.6110   36.5670   17.8870 C.3   148  ILE148      0.0019
    104  CD1        1.3610   38.7290   18.7220 C.3   148  ILE148      0.0001
@<TRIPOS>BOND
     1    88    86   ar
     2    80    78    1
     3     4     3    2
     4    87    86   ar
     5    86    85    1
     6    78    77    1
     7     3     2    1
     8    84    83    2
     9    85    82    1
    10     2     1    1
    11     2     5    1
    12    83    82    1
    13    77    79    1
    14    77    74    1
    15    81    82    1
    16    81    75   am
    17     7     5    1
    18    74    75    1
    19    74    73    1
    20    12    11    2
    21     5     6    1
    22    75    76    2
    23     9    10    1
    24    68    67    2
    25     6     8    1
    26    73    67   am
    27    11    10    1
    28    67    66    1
    29    15    13    1
    30    10    13    1
    31    13    14    1
    32    66    69    1
    33    66    65    1
    34    69    70    1
    35    95    94    1
    36    90    89    1
    37    90    93    1
    38    90    91    1
    39    64    63    2
    40    28    29    1
    41    28    27    1
    42    65    63   am
    43   103   101    1
    44   102   101    1
    45   102   104    1
    46    70    72   am
    47    70    71    2
    48    93    94    1
    49    91    92    2
    50   101    98    1
    51    63    62    1
    52    26    27    1
    53    26    25    1
    54    94    96    1
    55    60    59    1
    56    22    23    1
    57    22    25    1
    58    22    21    1
    59    23    24    2
    60    62    61    1
    61    98    97    1
    62    98    99    1
    63    61    57   am
    64    99   100    2
    65    20    17    1
    66    17    18    1
    67    17    16    1
    68    59    56    1
    69    57    56    1
    70    57    58    2
    71    18    19    2
    72    45    44    1
    73    56    55    1
    74    37    35    1
    75    49    48    2
    76    44    43    1
    77    55    48   am
    78    48    47    1
    79    36    34    1
    80    35    34    1
    81    34    31    1
    82    42    43    1
    83    42    39    1
    84    41    40    2
    85    47    46    1
    86    47    50    1
    87    40    46   am
    88    40    39    1
    89    51    50    1
    90    51    52    1
    91    31    30    1
    92    31    32    1
    93    38    39    1
    94    52    53   ar
    95    52    54   ar
    96    32    33    2
