@<TRIPOS>MOLECULE
tmp/4bi7A00.pdb
 91 85 0 0 0
SMALL
GASTEIGER

@<TRIPOS>ATOM
      1  N          4.6760  -14.8370  -17.9810 N.3    10  ASN10      -0.1240
      2  CA         3.9730  -13.6900  -18.5450 C.3    10  ASN10       0.1653
      3  C          2.4780  -13.8270  -18.2720 C.2    10  ASN10       0.2266
      4  O          1.8220  -14.6820  -18.8590 O.2    10  ASN10      -0.2867
      5  CB         4.2150  -13.6780  -20.0610 C.3    10  ASN10       0.1155
      6  CG         3.5110  -12.5350  -20.7690 C.2    10  ASN10       0.2627
      7  OD1        2.9260  -11.6520  -20.1420 O.2    10  ASN10      -0.2716
      8  ND2        3.5990  -12.5260  -22.0990 N.am   10  ASN10      -0.0877
      9  N          0.1680  -11.8910  -19.0930 N.3    12  LYS12      -0.1245
     10  CA        -0.5900  -11.2310  -20.1520 C.3    12  LYS12       0.1561
     11  C         -1.7120  -10.3710  -19.5810 C.2    12  LYS12       0.2260
     12  O         -1.5530   -9.7650  -18.5120 O.2    12  LYS12      -0.2867
     13  CB        -1.0900  -12.2510  -21.1870 C.3    12  LYS12       0.0271
     14  CG         0.0560  -13.1010  -21.6980 C.3    12  LYS12       0.0035
     15  CD        -0.3740  -13.9840  -22.8590 C.3    12  LYS12       0.0206
     16  CE         0.8210  -14.8380  -23.3090 C.3    12  LYS12       0.1093
     17  NZ         0.4490  -15.6820  -24.4960 N.3    12  LYS12      -0.1314
     18  N          6.9350   -9.1800  -27.7680 N.3    95  HIS95      -0.1241
     19  CA         6.0860  -10.3460  -27.6790 C.3    95  HIS95       0.1621
     20  C          5.2880  -10.4750  -28.9810 C.2    95  HIS95       0.2264
     21  O          4.8850   -9.4790  -29.5750 O.2    95  HIS95      -0.2867
     22  CB         5.1380  -10.2590  -26.4790 C.3    95  HIS95       0.0745
     23  CG         4.4640  -11.5560  -26.1810 C.ar   95  HIS95       0.0817
     24  ND1        3.3280  -11.9660  -26.8430 N.ar   95  HIS95      -0.2268
     25  CD2        4.8050  -12.5600  -25.3480 C.ar   95  HIS95       0.1154
     26  CE1        2.9790  -13.1610  -26.4020 C.ar   95  HIS95       0.1986
     27  NE2        3.8570  -13.5480  -25.4970 N.ar   95  HIS95      -0.2212
     28  N          9.3800  -18.1180  -29.3340 N.3   169  GLU169     -0.1245
     29  CA         8.0210  -18.6250  -29.1590 C.3   169  GLU169      0.1567
     30  C          7.3720  -18.7550  -30.5280 C.2   169  GLU169      0.2260
     31  O          6.9530  -17.7640  -31.0950 O.2   169  GLU169     -0.2867
     32  CB         7.1940  -17.6720  -28.2920 C.3   169  GLU169      0.0388
     33  CG         7.7540  -17.4150  -26.8890 C.3   169  GLU169      0.1160
     34  CD         6.6980  -16.8460  -25.9350 C.2   169  GLU169      0.3649
     35  OE1        5.9910  -15.8910  -26.3200 O.co2 169  GLU169     -0.2457
     36  OE2        6.5530  -17.3670  -24.8050 O.co2 169  GLU169     -0.2457
     37  N          1.5360  -20.5620  -29.3930 N.3   174  ILE174     -0.1231
     38  CA         1.0660  -19.6420  -28.3540 C.3   174  ILE174      0.1692
     39  C         -0.4250  -19.8010  -28.0770 C.2   174  ILE174      0.2592
     40  O         -1.2690  -19.4440  -28.9030 O.2   174  ILE174     -0.2718
     41  CB         1.4140  -18.1940  -28.6840 C.3   174  ILE174      0.0266
     42  CG1        2.9330  -18.0430  -28.8220 C.3   174  ILE174      0.0019
     43  CG2        0.9130  -17.2660  -27.5740 C.3   174  ILE174      0.0020
     44  CD1        3.3600  -16.6800  -29.2670 C.3   174  ILE174      0.0001
     45  N         -0.7260  -20.3570  -26.9050 N.am  175  GLY175     -0.1957
     46  CA        -2.0910  -20.4840  -26.4260 C.3   175  GLY175      0.1869
     47  C         -2.9110  -21.5320  -27.1520 C.2   175  GLY175      0.2309
     48  O         -4.1240  -21.6190  -26.9610 O.2   175  GLY175     -0.2863
     49  N          5.6570  -21.0860  -25.5450 N.3   214  GLY214     -0.1210
     50  CA         4.5610  -21.5050  -26.4040 C.3   214  GLY214      0.1956
     51  C          4.0320  -22.8350  -25.9300 C.2   214  GLY214      0.2613
     52  O          4.5800  -23.8840  -26.2670 O.2   214  GLY214     -0.2717
     53  N          2.9820  -22.7800  -25.1140 N.am  215  SER215     -0.1938
     54  CA         2.3620  -23.9510  -24.5050 C.3   215  SER215      0.2055
     55  C          3.3010  -24.7620  -23.6130 C.2   215  SER215      0.2642
     56  O          3.0740  -25.9510  -23.3750 O.2   215  SER215     -0.2714
     57  CB         1.7110  -24.8260  -25.5770 C.3   215  SER215      0.2130
     58  OG         0.7470  -24.0720  -26.2900 O.3   215  SER215     -0.2179
     59  N          4.3430  -24.1140  -23.0890 N.am  216  ALA216     -0.1977
     60  CA         5.2070  -24.7760  -22.1250 C.3   216  ALA216      0.1597
     61  C          4.4570  -24.9140  -20.8090 C.2   216  ALA216      0.2287
     62  O          3.8500  -23.9590  -20.3320 O.2   216  ALA216     -0.2864
     63  CB         6.4960  -23.9820  -21.9230 C.3   216  ALA216      0.0319
     64  N          9.6210  -19.1940  -21.3010 N.3   234  LEU234     -0.1231
     65  CA         8.7170  -18.0710  -21.1440 C.3   234  LEU234      0.1693
     66  C          7.3290  -18.7010  -21.1130 C.2   234  LEU234      0.2592
     67  O          6.8870  -19.3240  -22.0850 O.2   234  LEU234     -0.2718
     68  CB         8.8560  -17.0820  -22.2930 C.3   234  LEU234      0.0284
     69  CG         8.0530  -15.7980  -22.0950 C.3   234  LEU234      0.0019
     70  CD1        8.4040  -15.1330  -20.7650 C.3   234  LEU234      0.0001
     71  CD2        8.2830  -14.8440  -23.2500 C.3   234  LEU234      0.0001
     72  N          6.6740  -18.5880  -19.9700 N.am  235  VAL235     -0.1966
     73  CA         5.4440  -19.3270  -19.7070 C.3   235  VAL235      0.1727
     74  C          4.2540  -18.3800  -19.7110 C.2   235  VAL235      0.2617
     75  O          4.2570  -17.3680  -19.0200 O.2   235  VAL235     -0.2715
     76  CB         5.5230  -20.0230  -18.3330 C.3   235  VAL235      0.0290
     77  CG1        4.3220  -20.9370  -18.1330 C.3   235  VAL235      0.0023
     78  CG2        6.8300  -20.8110  -18.2080 C.3   235  VAL235      0.0023
     79  N          3.2370  -18.6980  -20.4970 N.am  236  GLY236     -0.1940
     80  CA         2.0480  -17.8720  -20.5530 C.3   236  GLY236      0.2014
     81  C          0.9730  -18.4100  -19.6380 C.2   236  GLY236      0.2639
     82  O          1.0120  -18.1890  -18.4270 O.2   236  GLY236     -0.2714
     83  N          0.0240  -19.1500  -20.1960 N.am  237  GLY237     -0.1939
     84  CA        -1.0910  -19.6540  -19.4070 C.3   237  GLY237      0.2014
     85  C         -0.7140  -20.3710  -18.1200 C.2   237  GLY237      0.2638
     86  O         -1.3550  -20.1770  -17.0710 O.2   237  GLY237     -0.2714
     87  N          0.2950  -21.2370  -18.1800 N.am  238  ALA238     -0.1977
     88  CA         0.6560  -22.0040  -17.0020 C.3   238  ALA238      0.1597
     89  C          1.2250  -21.1130  -15.8970 C.2   238  ALA238      0.2287
     90  O          1.2720  -21.5240  -14.7410 O.2   238  ALA238     -0.2864
     91  CB         1.6230  -23.1510  -17.3500 C.3   238  ALA238      0.0319
@<TRIPOS>BOND
     1    31    30    2
     2    30    29    1
     3    21    20    2
     4    37    38    1
     5    28    29    1
     6    44    42    1
     7    29    32    1
     8    20    19    1
     9    40    39    2
    10    42    41    1
    11    41    38    1
    12    41    43    1
    13    38    39    1
    14    32    33    1
    15    39    45   am
    16    18    19    1
    17    19    22    1
    18    47    48    2
    19    47    46    1
    20    45    46    1
    21    33    34    1
    22    24    26   ar
    23    24    23   ar
    24    22    23    1
    25    50    51    1
    26    50    49    1
    27    26    27   ar
    28    35    34   ar
    29    58    57    1
    30    52    51    2
    31    23    25   ar
    32    34    36   ar
    33    51    53   am
    34    57    54    1
    35    27    25   ar
    36    53    54    1
    37    54    55    1
    38    17    16    1
    39    55    56    2
    40    55    59   am
    41    16    15    1
    42    71    69    1
    43    59    60    1
    44    15    14    1
    45    68    69    1
    46    68    65    1
    47    60    63    1
    48    60    61    1
    49     8     6   am
    50    69    70    1
    51    67    66    2
    52    14    13    1
    53    64    65    1
    54    13    10    1
    55    65    66    1
    56    66    72   am
    57    61    62    2
    58     6     7    2
    59     6     5    1
    60    80    79    1
    61    80    81    1
    62    79    74   am
    63    83    81   am
    64    83    84    1
    65    10    11    1
    66    10     9    1
    67     5     2    1
    68    72    73    1
    69    74    73    1
    70    74    75    2
    71    73    76    1
    72    81    82    2
    73    11    12    2
    74    84    85    1
    75     4     3    2
    76     2     3    1
    77     2     1    1
    78    76    78    1
    79    76    77    1
    80    87    85   am
    81    87    88    1
    82    85    86    2
    83    91    88    1
    84    88    89    1
    85    89    90    2
