@<TRIPOS>MOLECULE
tmp/4bioA00.pdb
 150 141 0 0 0
SMALL
GASTEIGER

@<TRIPOS>ATOM
      1  N        -29.9910   19.1670    1.6050 N.3    92  TYR92      -0.1241
      2  CA       -29.0700   20.1790    2.1110 C.3    92  TYR92       0.1605
      3  C        -29.8650   21.2800    2.8100 C.2    92  TYR92       0.2264
      4  O        -31.0620   21.4280    2.5810 O.2    92  TYR92      -0.2867
      5  CB       -28.2550   20.7970    0.9710 C.3    92  TYR92       0.0534
      6  CG       -27.6940   19.7940   -0.0110 C.ar   92  TYR92      -0.0201
      7  CD1      -26.4560   19.1890    0.2110 C.ar   92  TYR92      -0.0009
      8  CD2      -28.3970   19.4580   -1.1720 C.ar   92  TYR92      -0.0009
      9  CE1      -25.9290   18.2760   -0.7010 C.ar   92  TYR92       0.0417
     10  CE2      -27.8810   18.5500   -2.0910 C.ar   92  TYR92       0.0417
     11  CZ       -26.6440   17.9640   -1.8500 C.ar   92  TYR92       0.1957
     12  OH       -26.1170   17.0860   -2.7680 O.3    92  TYR92      -0.2866
     13  N        -21.8590   11.9160   -0.2490 N.3   135  TYR135     -0.1241
     14  CA       -21.7260   12.8320   -1.3690 C.3   135  TYR135      0.1605
     15  C        -20.6570   13.8410   -0.9970 C.2   135  TYR135      0.2264
     16  O        -20.8280   14.6060   -0.0530 O.2   135  TYR135     -0.2867
     17  CB       -23.0510   13.5650   -1.6340 C.3   135  TYR135      0.0534
     18  CG       -23.3020   13.9470   -3.0880 C.ar  135  TYR135     -0.0201
     19  CD1      -22.2500   14.2870   -3.9420 C.ar  135  TYR135     -0.0009
     20  CD2      -24.5970   13.9690   -3.6040 C.ar  135  TYR135     -0.0009
     21  CE1      -22.4840   14.6350   -5.2810 C.ar  135  TYR135      0.0417
     22  CE2      -24.8430   14.3180   -4.9370 C.ar  135  TYR135      0.0417
     23  CZ       -23.7840   14.6470   -5.7720 C.ar  135  TYR135      0.1957
     24  OH       -24.0250   14.9740   -7.0940 O.3   135  TYR135     -0.2866
     25  N        -18.6450   17.1930   -1.6200 N.3   137  GLN137     -0.1245
     26  CA       -18.7740   18.4770   -2.3040 C.3   137  GLN137      0.1566
     27  C        -17.8160   19.4780   -1.6740 C.2   137  GLN137      0.2260
     28  O        -18.1120   20.0690   -0.6420 O.2   137  GLN137     -0.2867
     29  CB       -20.2100   18.9840   -2.2000 C.3   137  GLN137      0.0367
     30  CG       -21.2130   17.9930   -2.7460 C.3   137  GLN137      0.0905
     31  CD       -22.6340   18.3850   -2.4540 C.2   137  GLN137      0.2608
     32  OE1      -23.5370   17.5610   -2.5430 O.2   137  GLN137     -0.2717
     33  NE2      -22.8440   19.6490   -2.1050 N.am  137  GLN137     -0.0878
     34  N        -16.6180   23.8110   -7.7430 N.3   176  LEU176     -0.1245
     35  CA       -16.9950   22.7770   -6.8040 C.3   176  LEU176      0.1561
     36  C        -16.7290   21.3820   -7.3510 C.2   176  LEU176      0.2260
     37  O        -17.1090   21.0580   -8.4750 O.2   176  LEU176     -0.2867
     38  CB       -18.4730   22.9240   -6.4380 C.3   176  LEU176      0.0270
     39  CG       -18.9480   22.1130   -5.2340 C.3   176  LEU176      0.0019
     40  CD1      -18.5970   22.8690   -3.9670 C.3   176  LEU176      0.0001
     41  CD2      -20.4600   21.8890   -5.3030 C.3   176  LEU176      0.0001
     42  N        -17.5930   17.5950   -7.0960 N.3   178  LEU178     -0.1245
     43  CA       -18.6150   16.7250   -6.5450 C.3   178  LEU178      0.1561
     44  C        -18.3290   15.2820   -6.9410 C.2   178  LEU178      0.2260
     45  O        -18.0840   14.9780   -8.1090 O.2   178  LEU178     -0.2867
     46  CB       -20.0120   17.1530   -7.0280 C.3   178  LEU178      0.0270
     47  CG       -20.4410   18.6010   -6.7400 C.3   178  LEU178      0.0019
     48  CD1      -19.9490   19.5130   -7.8440 C.3   178  LEU178      0.0001
     49  CD2      -21.9470   18.6890   -6.6570 C.3   178  LEU178      0.0001
     50  N        -29.8590   14.9930   -5.9790 N.3   186  THR186     -0.1218
     51  CA       -29.8630   16.3420   -5.4570 C.3   186  THR186      0.1862
     52  C        -31.2360   16.8490   -5.8780 C.2   186  THR186      0.2287
     53  O        -31.4770   17.0990   -7.0610 O.2   186  THR186     -0.2866
     54  CB       -28.7360   17.1820   -6.0900 C.3   186  THR186      0.1770
     55  OG1      -27.4840   16.7750   -5.5260 O.3   186  THR186     -0.2211
     56  CG2      -28.9470   18.6700   -5.8410 C.3   186  THR186      0.0375
     57  N        -34.0680   22.3010   -7.1430 N.3   189  HIS189     -0.1241
     58  CA       -33.8440   23.5750   -6.4870 C.3   189  HIS189      0.1621
     59  C        -33.2550   24.5040   -7.5250 C.2   189  HIS189      0.2264
     60  O        -32.9320   24.0680   -8.6230 O.2   189  HIS189     -0.2867
     61  CB       -32.8440   23.4270   -5.3490 C.3   189  HIS189      0.0745
     62  CG       -31.4440   23.1510   -5.8110 C.ar  189  HIS189      0.0817
     63  ND1      -31.0680   21.9450   -6.3640 N.ar  189  HIS189     -0.2268
     64  CD2      -30.3420   23.9340   -5.8370 C.ar  189  HIS189      0.1154
     65  CE1      -29.7920   21.9990   -6.7090 C.ar  189  HIS189      0.1986
     66  NE2      -29.3310   23.1980   -6.4000 N.ar  189  HIS189     -0.2212
     67  N        -30.5010   28.0880   -8.1740 N.3   191  ASP191     -0.1239
     68  CA       -29.4050   28.8810   -7.6290 C.3   191  ASP191      0.1674
     69  C        -29.4930   30.2510   -8.2640 C.2   191  ASP191      0.2266
     70  O        -30.1350   30.4100   -9.2990 O.2   191  ASP191     -0.2867
     71  CB       -28.0510   28.2440   -7.9490 C.3   191  ASP191      0.1410
     72  CG       -27.8200   26.9410   -7.1960 C.2   191  ASP191      0.3668
     73  OD1      -27.9070   26.9410   -5.9500 O.co2 191  ASP191     -0.2456
     74  OD2      -27.5410   25.9150   -7.8570 O.co2 191  ASP191     -0.2456
     75  N        -24.3010   28.7170  -13.9330 N.3   195  ASN195     -0.1240
     76  CA       -23.4860   27.5370  -13.6770 C.3   195  ASN195      0.1653
     77  C        -23.1350   26.6930  -14.9090 C.2   195  ASN195      0.2266
     78  O        -23.9600   26.4950  -15.8190 O.2   195  ASN195     -0.2867
     79  CB       -24.1930   26.6770  -12.6070 C.3   195  ASN195      0.1155
     80  CG       -23.5540   25.3100  -12.3990 C.2   195  ASN195      0.2627
     81  OD1      -22.3590   25.1240  -12.5860 O.2   195  ASN195     -0.2716
     82  ND2      -24.3660   24.3450  -11.9820 N.am  195  ASN195     -0.0877
     83  N        -21.8840   23.0630  -15.6070 N.3   197  PHE197     -0.1241
     84  CA       -21.8020   21.7310  -15.0310 C.3   197  PHE197      0.1605
     85  C        -20.8590   20.9120  -15.8980 C.2   197  PHE197      0.2264
     86  O        -21.2440   20.4750  -16.9760 O.2   197  PHE197     -0.2867
     87  CB       -23.2200   21.1450  -15.0390 C.3   197  PHE197      0.0534
     88  CG       -23.3730   19.8350  -14.3160 C.ar  197  PHE197     -0.0203
     89  CD1      -23.1730   18.6270  -14.9710 C.ar  197  PHE197     -0.0042
     90  CD2      -23.8230   19.8130  -13.0050 C.ar  197  PHE197     -0.0042
     91  CE1      -23.4290   17.4100  -14.3300 C.ar  197  PHE197     -0.0003
     92  CE2      -24.0820   18.6120  -12.3520 C.ar  197  PHE197     -0.0003
     93  CZ       -23.8870   17.4030  -13.0170 C.ar  197  PHE197     -0.0000
     94  N        -24.8190   11.5620  -15.1730 N.3   204  LYS204     -0.1245
     95  CA       -25.8060   12.1790  -14.3050 C.3   204  LYS204      0.1561
     96  C        -27.0020   12.6600  -15.1100 C.2   204  LYS204      0.2260
     97  O        -26.8520   13.3120  -16.1500 O.2   204  LYS204     -0.2867
     98  CB       -25.1930   13.3580  -13.5540 C.3   204  LYS204      0.0271
     99  CG       -24.3460   12.9810  -12.3610 C.3   204  LYS204      0.0035
    100  CD       -23.6950   14.2330  -11.8310 C.3   204  LYS204      0.0206
    101  CE       -23.5870   14.2460  -10.3310 C.3   204  LYS204      0.1093
    102  NZ       -22.9130   15.5010   -9.9170 N.3   204  LYS204     -0.1314
    103  N        -26.3930   25.5390  -16.8970 N.3   263  ILE263     -0.1245
    104  CA       -27.6150   25.6120  -16.0810 C.3   263  ILE263      0.1561
    105  C        -27.7830   27.1010  -15.7540 C.2   263  ILE263      0.2260
    106  O        -27.1530   27.6050  -14.8320 O.2   263  ILE263     -0.2867
    107  CB       -27.4910   24.8170  -14.7440 C.3   263  ILE263      0.0252
    108  CG1      -27.1250   23.3560  -15.0200 C.3   263  ILE263      0.0019
    109  CG2      -28.8050   24.8790  -13.9720 C.3   263  ILE263      0.0019
    110  CD1      -27.0590   22.4930  -13.7800 C.3   263  ILE263      0.0001
    111  N        -33.2570   22.8120  -11.0300 N.3   269  HIS269     -0.1241
    112  CA       -32.5410   21.6550  -11.5430 C.3   269  HIS269      0.1621
    113  C        -32.5460   20.4920  -10.5630 C.2   269  HIS269      0.2264
    114  O        -32.4220   20.6620   -9.3560 O.2   269  HIS269     -0.2867
    115  CB       -31.0970   21.9960  -11.9870 C.3   269  HIS269      0.0745
    116  CG       -30.3130   22.8110  -11.0070 C.ar  269  HIS269      0.0817
    117  ND1      -30.5270   24.1600  -10.8160 N.ar  269  HIS269     -0.2268
    118  CD2      -29.2830   22.4760  -10.1930 C.ar  269  HIS269      0.1154
    119  CE1      -29.6630   24.6190   -9.9280 C.ar  269  HIS269      0.1986
    120  NE2      -28.8970   23.6200   -9.5340 N.ar  269  HIS269     -0.2212
    121  N        -30.7430   16.7950  -10.0790 N.3   271  ILE271     -0.1245
    122  CA       -29.5770   16.0280  -10.5460 C.3   271  ILE271      0.1561
    123  C        -29.4940   14.6880   -9.8480 C.2   271  ILE271      0.2260
    124  O        -29.6170   14.6100   -8.6330 O.2   271  ILE271     -0.2867
    125  CB       -28.2350   16.7910  -10.2950 C.3   271  ILE271      0.0252
    126  CG1      -28.0360   17.8830  -11.3480 C.3   271  ILE271      0.0019
    127  CG2      -27.0550   15.8330  -10.3580 C.3   271  ILE271      0.0019
    128  CD1      -28.4870   19.2360  -10.9160 C.3   271  ILE271      0.0001
    129  N        -18.3290   22.0470  -10.9800 N.3   284  ASN284     -0.1240
    130  CA       -19.1740   23.1610  -11.3980 C.3   284  ASN284      0.1653
    131  C        -18.4130   24.4660  -11.3550 C.2   284  ASN284      0.2266
    132  O        -17.5380   24.6600  -10.5150 O.2   284  ASN284     -0.2867
    133  CB       -20.4070   23.3160  -10.5010 C.3   284  ASN284      0.1155
    134  CG       -21.4090   22.1980  -10.6790 C.2   284  ASN284      0.2627
    135  OD1      -21.6020   21.6870  -11.7810 O.2   284  ASN284     -0.2716
    136  ND2      -22.0650   21.8220   -9.5920 N.am  284  ASN284     -0.0877
    137  N        -19.2760   28.3950  -11.0380 N.3   286  TRP286     -0.1241
    138  CA       -20.3350   29.3550  -10.7390 C.3   286  TRP286      0.1605
    139  C        -19.9220   30.8130  -10.9240 C.2   286  TRP286      0.2264
    140  O        -18.9540   31.2670  -10.3300 O.2   286  TRP286     -0.2867
    141  CB       -20.8290   29.1350   -9.3130 C.3   286  TRP286      0.0550
    142  CG       -21.9520   28.1640   -9.2070 C.ar  286  TRP286      0.0003
    143  CD1      -23.2290   28.3210   -9.6840 C.ar  286  TRP286      0.0946
    144  CD2      -21.9270   26.8950   -8.5470 C.ar  286  TRP286      0.0152
    145  NE1      -23.9980   27.2290   -9.3580 N.ar  286  TRP286     -0.2442
    146  CE2      -23.2270   26.3390   -8.6600 C.ar  286  TRP286      0.0810
    147  CE3      -20.9330   26.1760   -7.8700 C.ar  286  TRP286      0.0012
    148  CZ2      -23.5620   25.0950   -8.1190 C.ar  286  TRP286      0.0191
    149  CZ3      -21.2650   24.9300   -7.3270 C.ar  286  TRP286      0.0001
    150  CH2      -22.5740   24.4050   -7.4570 C.ar  286  TRP286      0.0015
@<TRIPOS>BOND
     1    86    85    2
     2   103   104    1
     3    97    96    2
     4   104   105    1
     5   104   107    1
     6    85    84    1
     7    78    77    2
     8   105   106    2
     9    83    84    1
    10    94    95    1
    11    96    95    1
    12    87    84    1
    13    87    88    1
    14   108   107    1
    15   108   110    1
    16    89    91   ar
    17    89    88   ar
    18    77    76    1
    19   107   109    1
    20    91    93   ar
    21    88    90   ar
    22    95    98    1
    23    75    76    1
    24    76    79    1
    25    98    99    1
    26    93    92   ar
    27    90    92   ar
    28    79    80    1
    29    81    80    2
    30    80    82   am
    31    99   100    1
    32   115   112    1
    33   115   116    1
    34   100   101    1
    35   135   134    2
    36   112   111    1
    37   112   113    1
    38   130   131    1
    39   130   129    1
    40   130   133    1
    41   131   132    2
    42   126   128    1
    43   126   125    1
    44   137   138    1
    45   116   117   ar
    46   116   118   ar
    47   139   138    1
    48   139   140    2
    49   117   119   ar
    50   138   141    1
    51   134   133    1
    52   134   136   am
    53   113   114    2
    54   122   125    1
    55   122   121    1
    56   122   123    1
    57   127   125    1
    58   101   102    1
    59   118   120   ar
    60   119   120   ar
    61   123   124    2
    62   143   145   ar
    63   143   142   ar
    64   145   146   ar
    65   141   142    1
    66    70    69    2
    67   142   144   ar
    68   146   144   ar
    69   146   148   ar
    70    60    59    2
    71   144   147   ar
    72    37    36    2
    73    69    68    1
    74    67    68    1
    75   148   150   ar
    76    45    44    2
    77    71    68    1
    78    71    72    1
    79   147   149   ar
    80    74    72   ar
    81    48    47    1
    82    34    35    1
    83    59    58    1
    84   150   149   ar
    85    36    35    1
    86    72    73   ar
    87    57    58    1
    88    42    43    1
    89    24    23    1
    90    53    52    2
    91    46    47    1
    92    46    43    1
    93    44    43    1
    94    35    38    1
    95    47    49    1
    96    65    66   ar
    97    65    63   ar
    98    58    61    1
    99    38    39    1
   100    66    64   ar
   101    63    62   ar
   102    54    56    1
   103    54    55    1
   104    54    51    1
   105    50    51    1
   106    52    51    1
   107    64    62   ar
   108    62    61    1
   109    23    21   ar
   110    23    22   ar
   111    41    39    1
   112    21    19   ar
   113    39    40    1
   114    22    20   ar
   115    19    18   ar
   116    20    18   ar
   117    18    17    1
   118    12    11    1
   119    30    31    1
   120    30    29    1
   121    32    31    2
   122    31    33   am
   123    26    29    1
   124    26    27    1
   125    26    25    1
   126    10    11   ar
   127    10     8   ar
   128    11     9   ar
   129    27    28    2
   130    17    14    1
   131    14    15    1
   132    14    13    1
   133     8     6   ar
   134    15    16    2
   135     9     7   ar
   136     6     7   ar
   137     6     5    1
   138     5     2    1
   139     1     2    1
   140     2     3    1
   141     4     3    2
