@<TRIPOS>MOLECULE
tmp/4bisA00.pdb
 131 124 0 0 0
SMALL
GASTEIGER

@<TRIPOS>ATOM
      1  N         13.7860  -20.1050   -3.9890 N.3   125  TYR125     -0.1241
      2  CA        15.1560  -19.9830   -3.5220 C.3   125  TYR125      0.1605
      3  C         15.4240  -18.5320   -3.1530 C.2   125  TYR125      0.2264
      4  O         15.1540  -17.6170   -3.9410 O.2   125  TYR125     -0.2867
      5  CB        16.1150  -20.4550   -4.6230 C.3   125  TYR125      0.0534
      6  CG        17.5020  -20.8600   -4.1610 C.ar  125  TYR125     -0.0201
      7  CD1       17.7790  -21.1040   -2.8180 C.ar  125  TYR125     -0.0009
      8  CD2       18.5360  -21.0160   -5.0800 C.ar  125  TYR125     -0.0009
      9  CE1       19.0560  -21.4920   -2.4050 C.ar  125  TYR125      0.0417
     10  CE2       19.8110  -21.4030   -4.6790 C.ar  125  TYR125      0.0417
     11  CZ        20.0670  -21.6390   -3.3490 C.ar  125  TYR125      0.1957
     12  OH        21.3290  -22.0340   -2.9590 O.3   125  TYR125     -0.2866
     13  N         20.9950  -14.7170   -4.0900 N.3   128  ASP128     -0.1239
     14  CA        21.5910  -13.4250   -4.4320 C.3   128  ASP128      0.1674
     15  C         21.1930  -12.2990   -3.4980 C.2   128  ASP128      0.2266
     16  O         20.9850  -11.1650   -3.9400 O.2   128  ASP128     -0.2867
     17  CB        21.2330  -13.0200   -5.8640 C.3   128  ASP128      0.1410
     18  CG        21.5120  -14.1100   -6.8600 C.2   128  ASP128      0.3668
     19  OD1       22.3710  -14.9760   -6.5830 O.co2 128  ASP128     -0.2456
     20  OD2       20.8750  -14.0960   -7.9280 O.co2 128  ASP128     -0.2456
     21  N         22.3470  -16.8670    0.6100 N.3   170  TYR170     -0.1241
     22  CA        21.4210  -17.7780   -0.0600 C.3   170  TYR170      0.1605
     23  C         20.5710  -18.5460    0.9360 C.2   170  TYR170      0.2264
     24  O         21.0830  -19.4000    1.6710 O.2   170  TYR170     -0.2867
     25  CB        22.1670  -18.8090   -0.9270 C.3   170  TYR170      0.0534
     26  CG        22.9490  -18.2290   -2.0700 C.ar  170  TYR170     -0.0201
     27  CD1       24.2240  -17.7110   -1.8700 C.ar  170  TYR170     -0.0009
     28  CD2       22.3950  -18.1540   -3.3450 C.ar  170  TYR170     -0.0009
     29  CE1       24.9320  -17.1270   -2.9100 C.ar  170  TYR170      0.0417
     30  CE2       23.0920  -17.5700   -4.3970 C.ar  170  TYR170      0.0417
     31  CZ        24.3600  -17.0560   -4.1740 C.ar  170  TYR170      0.1957
     32  OH        25.0400  -16.4410   -5.2070 O.3   170  TYR170     -0.2866
     33  N         21.7080  -25.6080   -7.6530 N.3   178  PHE178     -0.1241
     34  CA        22.5770  -24.7780   -8.4750 C.3   178  PHE178      0.1605
     35  C         23.1270  -25.6450   -9.5960 C.2   178  PHE178      0.2264
     36  O         23.6320  -26.7470   -9.3670 O.2   178  PHE178     -0.2867
     37  CB        23.7010  -24.1010   -7.6610 C.3   178  PHE178      0.0534
     38  CG        24.4100  -25.0020   -6.7010 C.ar  178  PHE178     -0.0203
     39  CD1       23.7920  -25.4080   -5.5240 C.ar  178  PHE178     -0.0042
     40  CD2       25.7140  -25.4120   -6.9470 C.ar  178  PHE178     -0.0042
     41  CE1       24.4690  -26.2140   -4.5970 C.ar  178  PHE178     -0.0003
     42  CE2       26.4050  -26.2190   -6.0240 C.ar  178  PHE178     -0.0003
     43  CZ        25.7800  -26.6180   -4.8470 C.ar  178  PHE178     -0.0000
     44  N         28.5160  -25.2650  -13.2760 N.3   181  HIS181     -0.1241
     45  CA        29.1580  -24.0200  -13.6830 C.3   181  HIS181      0.1621
     46  C         30.5150  -23.7990  -13.0150 C.2   181  HIS181      0.2264
     47  O         30.8230  -24.3990  -11.9820 O.2   181  HIS181     -0.2867
     48  CB        28.2760  -22.8440  -13.2930 C.3   181  HIS181      0.0745
     49  CG        28.2270  -22.6180  -11.8160 C.ar  181  HIS181      0.0817
     50  ND1       27.5310  -23.4480  -10.9570 N.ar  181  HIS181     -0.2268
     51  CD2       28.8600  -21.7170  -11.0300 C.ar  181  HIS181      0.1154
     52  CE1       27.7440  -23.0650   -9.7080 C.ar  181  HIS181      0.1986
     53  NE2       28.5470  -22.0180   -9.7290 N.ar  181  HIS181     -0.2212
     54  N         33.1080  -20.6210  -11.6420 N.3   183  GLU183     -0.1245
     55  CA        32.8740  -19.2770  -11.1580 C.3   183  GLU183      0.1567
     56  C         33.0780  -18.2520  -12.2720 C.2   183  GLU183      0.2260
     57  O         33.7010  -18.5490  -13.2930 O.2   183  GLU183     -0.2867
     58  CB        33.8130  -18.9670   -9.9950 C.3   183  GLU183      0.0388
     59  CG        33.5620  -19.8280   -8.7690 C.3   183  GLU183      0.1160
     60  CD        32.1230  -19.7890   -8.3200 C.2   183  GLU183      0.3649
     61  OE1       31.6200  -18.6930   -7.9990 O.co2 183  GLU183     -0.2457
     62  OE2       31.4910  -20.8590   -8.2920 O.co2 183  GLU183     -0.2457
     63  N         36.1790  -19.6570   -5.1590 N.3   189  SER189     -0.1217
     64  CA        34.9250  -19.4130   -4.5060 C.3   189  SER189      0.1889
     65  C         34.9610  -19.9470   -3.0840 C.2   189  SER189      0.2288
     66  O         35.5830  -20.9760   -2.8110 O.2   189  SER189     -0.2866
     67  CB        33.8230  -20.0940   -5.3030 C.3   189  SER189      0.2089
     68  OG        32.6030  -20.0770   -4.5990 O.3   189  SER189     -0.2183
     69  N         32.3030  -20.7770    0.2150 N.3   191  ASN191     -0.1240
     70  CA        30.9070  -20.9100    0.6390 C.3   191  ASN191      0.1653
     71  C         30.8450  -21.3970    2.0920 C.2   191  ASN191      0.2266
     72  O         31.4450  -22.4180    2.4450 O.2   191  ASN191     -0.2867
     73  CB        30.1650  -21.8960   -0.2840 C.3   191  ASN191      0.1155
     74  CG        28.6670  -22.0220    0.0450 C.2   191  ASN191      0.2627
     75  OD1       28.2870  -22.5560    1.0960 O.2   191  ASN191     -0.2716
     76  ND2       27.8150  -21.5350   -0.8590 N.am  191  ASN191     -0.0877
     77  N         23.7360  -29.1170    2.4040 N.3   199  LYS199     -0.1245
     78  CA        23.8010  -28.6630    1.0130 C.3   199  LYS199      0.1561
     79  C         24.7890  -29.6150    0.3540 C.2   199  LYS199      0.2260
     80  O         25.9680  -29.6330    0.7100 O.2   199  LYS199     -0.2867
     81  CB        24.3210  -27.2220    0.9220 C.3   199  LYS199      0.0271
     82  CG        24.3610  -26.6730   -0.5140 C.3   199  LYS199      0.0035
     83  CD        25.2060  -25.4020   -0.6500 C.3   199  LYS199      0.0206
     84  CE        24.5500  -24.1880   -0.0170 C.3   199  LYS199      0.1093
     85  NZ        23.4290  -23.6680   -0.8240 N.3   199  LYS199     -0.1314
     86  N         27.0310  -31.2840   -2.8030 N.3   201  TRP201     -0.1241
     87  CA        27.8210  -30.8250   -3.9370 C.3   201  TRP201      0.1605
     88  C         28.3060  -31.9420   -4.8420 C.2   201  TRP201      0.2264
     89  O         28.5240  -33.0730   -4.4090 O.2   201  TRP201     -0.2867
     90  CB        29.0750  -30.0810   -3.4510 C.3   201  TRP201      0.0550
     91  CG        28.8320  -28.8300   -2.6840 C.ar  201  TRP201      0.0003
     92  CD1       28.1580  -28.7050   -1.5040 C.ar  201  TRP201      0.0946
     93  CD2       29.2380  -27.5160   -3.0570 C.ar  201  TRP201      0.0152
     94  NE1       28.1160  -27.3890   -1.1170 N.ar  201  TRP201     -0.2442
     95  CE2       28.7740  -26.6340   -2.0540 C.ar  201  TRP201      0.0810
     96  CE3       29.9520  -26.9930   -4.1460 C.ar  201  TRP201      0.0012
     97  CZ2       28.9990  -25.2470   -2.1070 C.ar  201  TRP201      0.0191
     98  CZ3       30.1740  -25.6190   -4.1990 C.ar  201  TRP201      0.0001
     99  CH2       29.6950  -24.7610   -3.1820 C.ar  201  TRP201      0.0015
    100  N         23.9650  -20.9010  -15.8340 N.3   234  LYS234     -0.1245
    101  CA        23.5590  -21.6340  -14.6390 C.3   234  LYS234      0.1561
    102  C         22.1430  -22.2020  -14.7430 C.2   234  LYS234      0.2260
    103  O         21.3760  -22.1580  -13.7810 O.2   234  LYS234     -0.2867
    104  CB        23.6610  -20.7260  -13.4100 C.3   234  LYS234      0.0271
    105  CG        25.0860  -20.4020  -12.9910 C.3   234  LYS234      0.0035
    106  CD        25.0950  -19.7640  -11.6080 C.3   234  LYS234      0.0206
    107  CE        26.5030  -19.4370  -11.1410 C.3   234  LYS234      0.1093
    108  NZ        27.1520  -18.3760  -11.9530 N.3   234  LYS234     -0.1314
    109  N         35.8350  -23.7420   -3.8880 N.3   263  THR263     -0.1218
    110  CA        35.8820  -24.2330   -5.2640 C.3   263  THR263      0.1862
    111  C         37.0990  -23.5310   -5.8510 C.2   263  THR263      0.2287
    112  O         37.3980  -22.3900   -5.4970 O.2   263  THR263     -0.2866
    113  CB        34.6180  -23.8800   -6.1140 C.3   263  THR263      0.1770
    114  OG1       34.6740  -22.5130   -6.5360 O.3   263  THR263     -0.2211
    115  CG2       33.3360  -24.1170   -5.3120 C.3   263  THR263      0.0375
    116  N         31.1050  -27.3130  -10.7510 N.3   269  HIS269     -0.1241
    117  CA        30.3490  -27.8210   -9.6150 C.3   269  HIS269      0.1621
    118  C         28.8540  -27.5980   -9.7440 C.2   269  HIS269      0.2264
    119  O         28.4040  -26.7680  -10.5300 O.2   269  HIS269     -0.2867
    120  CB        30.8500  -27.2310   -8.2910 C.3   269  HIS269      0.0745
    121  CG        30.9640  -25.7380   -8.2850 C.ar  269  HIS269      0.0817
    122  ND1       31.9370  -25.0630   -8.9900 N.ar  269  HIS269     -0.2268
    123  CD2       30.2620  -24.7950   -7.6150 C.ar  269  HIS269      0.1154
    124  CE1       31.8330  -23.7680   -8.7500 C.ar  269  HIS269      0.1986
    125  NE2       30.8230  -23.5790   -7.9190 N.ar  269  HIS269     -0.2212
    126  N         28.5300  -16.5360    0.4210 N.3   281  SER281     -0.1217
    127  CA        29.6170  -16.7920   -0.5130 C.3   281  SER281      0.1889
    128  C         30.1030  -15.5420   -1.2430 C.2   281  SER281      0.2288
    129  O         29.4300  -14.5110   -1.2710 O.2   281  SER281     -0.2866
    130  CB        29.1830  -17.8360   -1.5520 C.3   281  SER281      0.2089
    131  OG        28.1540  -17.3220   -2.3830 O.3   281  SER281     -0.2183
@<TRIPOS>BOND
     1   100   101    1
     2   102   101    1
     3   102   103    2
     4   101   104    1
     5    45    48    1
     6    45    44    1
     7    45    46    1
     8   104   105    1
     9    57    56    2
    10    48    49    1
    11    46    47    2
    12   105   106    1
    13    56    55    1
    14   108   107    1
    15    49    51   ar
    16    49    50   ar
    17    54    55    1
    18   106   107    1
    19    55    58    1
    20    51    53   ar
    21    50    52   ar
    22   116   117    1
    23   119   118    2
    24    58    59    1
    25   118   117    1
    26    53    52   ar
    27   117   120    1
    28    35    36    2
    29    35    34    1
    30   122   124   ar
    31   122   121   ar
    32    59    60    1
    33   124   125   ar
    34    34    37    1
    35    34    33    1
    36    60    62   ar
    37    60    61   ar
    38   120   121    1
    39   121   123   ar
    40    20    18   ar
    41   125   123   ar
    42    37    38    1
    43    40    38   ar
    44    40    42   ar
    45    18    19   ar
    46    18    17    1
    47    38    39   ar
    48   114   113    1
    49   113   115    1
    50   113   110    1
    51    42    43   ar
    52    17    14    1
    53   111   112    2
    54   111   110    1
    55    39    41   ar
    56    67    68    1
    57    67    64    1
    58   110   109    1
    59    32    31    1
    60    63    64    1
    61     8    10   ar
    62     8     6   ar
    63    43    41   ar
    64    88    89    2
    65    88    87    1
    66    10    11   ar
    67     5     6    1
    68     5     2    1
    69    64    65    1
    70    14    13    1
    71    14    15    1
    72    30    31   ar
    73    30    28   ar
    74    98    96   ar
    75    98    99   ar
    76    31    29   ar
    77     6     7   ar
    78    96    93   ar
    79     1     2    1
    80     4     3    2
    81    16    15    2
    82    87    90    1
    83    87    86    1
    84     2     3    1
    85    90    91    1
    86    11    12    1
    87    11     9   ar
    88    28    26   ar
    89    99    97   ar
    90    65    66    2
    91    93    91   ar
    92    93    95   ar
    93    29    27   ar
    94     7     9   ar
    95    91    92   ar
    96   131   130    1
    97    97    95   ar
    98    26    27   ar
    99    26    25    1
   100    95    94   ar
   101   130   127    1
   102    92    94   ar
   103   129   128    2
   104   128   127    1
   105    25    22    1
   106    76    74   am
   107    85    84    1
   108    83    82    1
   109    83    84    1
   110    82    81    1
   111   127   126    1
   112    73    74    1
   113    73    70    1
   114    22    21    1
   115    22    23    1
   116    74    75    2
   117    69    70    1
   118    79    80    2
   119    79    78    1
   120    70    71    1
   121    81    78    1
   122    23    24    2
   123    78    77    1
   124    71    72    2
