@<TRIPOS>MOLECULE
tmp/4bivB00.pdb
 180 170 0 0 0
SMALL
GASTEIGER

@<TRIPOS>ATOM
      1  N        -46.1710  184.8240   19.2700 N.3   163  ASN163     -0.1240
      2  CA       -46.0090  184.0720   20.5010 C.3   163  ASN163      0.1653
      3  C        -46.4350  184.8960   21.7070 C.2   163  ASN163      0.2266
      4  O        -47.2930  184.4380   22.4520 O.2   163  ASN163     -0.2867
      5  CB       -44.5790  183.5800   20.6550 C.3   163  ASN163      0.1155
      6  CG       -44.4370  182.1130   20.3860 C.2   163  ASN163      0.2627
      7  OD1      -45.0760  181.2680   21.0370 O.2   163  ASN163     -0.2716
      8  ND2      -43.5530  181.7860   19.4610 N.am  163  ASN163     -0.0877
      9  N        -49.3020  183.8010   24.0850 N.3   167  ASN167     -0.1225
     10  CA       -48.9380  183.5850   25.4900 C.3   167  ASN167      0.1785
     11  C        -49.8430  184.4370   26.3500 C.2   167  ASN167      0.2597
     12  O        -50.4300  183.9540   27.3150 O.2   167  ASN167     -0.2718
     13  CB       -47.4600  183.9090   25.7340 C.3   167  ASN167      0.1169
     14  CG       -46.5600  182.7090   25.5940 C.2   167  ASN167      0.2627
     15  OD1      -45.8850  182.3310   26.5450 O.2   167  ASN167     -0.2716
     16  ND2      -46.5240  182.0680   24.4210 N.am  167  ASN167     -0.0877
     17  N        -50.0530  185.6770   25.9210 N.am  168  ALA168     -0.1979
     18  CA       -50.9550  186.5950   26.5880 C.3   168  ALA168      0.1597
     19  C        -52.4220  186.0900   26.4750 C.2   168  ALA168      0.2287
     20  O        -53.1300  186.0500   27.4770 O.2   168  ALA168     -0.2864
     21  CB       -50.8000  187.9690   25.9820 C.3   168  ALA168      0.0319
     22  N        -53.5550  182.8800   25.9570 N.3   170  ARG170     -0.1231
     23  CA       -53.6710  181.6650   26.7620 C.3   170  ARG170      0.1694
     24  C        -53.8720  181.9870   28.2460 C.2   170  ARG170      0.2592
     25  O        -54.9680  181.7950   28.7770 O.2   170  ARG170     -0.2718
     26  CB       -52.4170  180.7660   26.5990 C.3   170  ARG170      0.0321
     27  CG       -52.2940  180.0090   25.2820 C.3   170  ARG170      0.0489
     28  CD       -51.0690  179.1010   25.2890 C.3   170  ARG170      0.2205
     29  NE       -50.0120  179.5670   24.3820 N.pl3 170  ARG170     -0.0865
     30  CZ       -48.7970  179.0310   24.2980 C.cat 170  ARG170      0.5346
     31  NH1      -48.4690  177.9930   25.0610 N.pl3 170  ARG170      0.1354
     32  NH2      -47.9050  179.5170   23.4450 N.pl3 170  ARG170      0.1354
     33  N        -52.8250  182.5340   28.8840 N.am  171  TYR171     -0.1976
     34  CA       -52.7200  182.7800   30.3160 C.3   171  TYR171      0.1639
     35  C        -53.5250  183.9960   30.8360 C.2   171  TYR171      0.2290
     36  O        -53.3870  184.3600   32.0080 O.2   171  TYR171     -0.2864
     37  CB       -51.2340  182.8730   30.6970 C.3   171  TYR171      0.0560
     38  CG       -50.4270  181.7220   30.1290 C.ar  171  TYR171     -0.0198
     39  CD1      -50.6790  180.4100   30.5200 C.ar  171  TYR171     -0.0009
     40  CD2      -49.5000  181.9290   29.1130 C.ar  171  TYR171     -0.0009
     41  CE1      -50.0030  179.3370   29.9380 C.ar  171  TYR171      0.0417
     42  CE2      -48.8210  180.8640   28.5220 C.ar  171  TYR171      0.0417
     43  CZ       -49.0720  179.5680   28.9410 C.ar  171  TYR171      0.1957
     44  OH       -48.4040  178.5080   28.3730 O.3   171  TYR171     -0.2866
     45  N        -52.0650  191.4590   29.6280 N.3   193  ASP193     -0.1239
     46  CA       -53.1080  190.4550   29.8100 C.3   193  ASP193      0.1674
     47  C        -53.8630  190.6620   31.1380 C.2   193  ASP193      0.2266
     48  O        -53.3490  191.2380   32.1020 O.2   193  ASP193     -0.2867
     49  CB       -52.5830  189.0050   29.6750 C.3   193  ASP193      0.1410
     50  CG       -51.5700  188.5520   30.7140 C.2   193  ASP193      0.3668
     51  OD1      -51.9890  188.1940   31.8450 O.co2 193  ASP193     -0.2456
     52  OD2      -50.3780  188.4520   30.3680 O.co2 193  ASP193     -0.2456
     53  N        -53.5510  185.9740   35.4970 N.3   196  PRO196     -0.2102
     54  CA       -52.5880  186.0890   36.6080 C.3   196  PRO196      0.1504
     55  C        -51.1910  186.4180   36.1120 C.2   196  PRO196      0.2576
     56  O        -50.7700  185.9900   35.0280 O.2   196  PRO196     -0.2718
     57  CB       -52.6360  184.7290   37.2960 C.3   196  PRO196      0.0282
     58  CG       -53.2020  183.7950   36.2820 C.3   196  PRO196      0.0208
     59  CD       -53.8970  184.5690   35.1940 C.3   196  PRO196      0.0893
     60  N        -50.5090  187.2390   36.8960 N.am  197  GLY197     -0.1943
     61  CA       -49.1540  187.6540   36.5800 C.3   197  GLY197      0.2014
     62  C        -48.1610  186.5630   36.9040 C.2   197  GLY197      0.2638
     63  O        -48.5360  185.4190   37.1870 O.2   197  GLY197     -0.2714
     64  N        -46.8890  186.9130   36.8510 N.am  198  VAL198     -0.1977
     65  CA       -45.8240  186.0080   37.2030 C.3   198  VAL198      0.1596
     66  C        -45.0170  186.6960   38.2600 C.2   198  VAL198      0.2287
     67  O        -44.6380  187.8610   38.1050 O.2   198  VAL198     -0.2864
     68  CB       -44.9820  185.5250   36.0050 C.3   198  VAL198      0.0276
     69  CG1      -43.6440  184.9590   36.4600 C.3   198  VAL198      0.0022
     70  CG2      -45.7560  184.4850   35.1970 C.3   198  VAL198      0.0022
     71  N        -38.8160  182.6740   33.0810 N.3   206  ILE206     -0.1245
     72  CA       -39.7360  182.3380   31.9790 C.3   206  ILE206      0.1561
     73  C        -39.0450  182.2100   30.6030 C.2   206  ILE206      0.2260
     74  O        -39.3060  181.2530   29.8540 O.2   206  ILE206     -0.2867
     75  CB       -40.8330  183.4150   31.9290 C.3   206  ILE206      0.0252
     76  CG1      -41.8120  183.2390   33.0810 C.3   206  ILE206      0.0019
     77  CG2      -41.5550  183.4030   30.6020 C.3   206  ILE206      0.0019
     78  CD1      -42.7280  184.3360   33.1990 C.3   206  ILE206      0.0001
     79  N        -36.3370  181.2140   29.8430 N.3   208  ARG208     -0.1245
     80  CA       -35.4970  180.0350   29.7830 C.3   208  ARG208      0.1563
     81  C        -36.1460  179.0240   28.8670 C.2   208  ARG208      0.2260
     82  O        -37.3710  178.8350   28.9320 O.2   208  ARG208     -0.2867
     83  CB       -35.2770  179.4330   31.1780 C.3   208  ARG208      0.0307
     84  CG       -34.0750  180.0050   31.8840 C.3   208  ARG208      0.0489
     85  CD       -34.1880  179.9500   33.3920 C.3   208  ARG208      0.2205
     86  NE       -33.0030  180.5580   33.9830 N.pl3 208  ARG208     -0.0865
     87  CZ       -32.4800  180.2130   35.1540 C.cat 208  ARG208      0.5346
     88  NH1      -33.0530  179.2610   35.8880 N.pl3 208  ARG208      0.1354
     89  NH2      -31.3930  180.8180   35.6120 N.pl3 208  ARG208      0.1354
     90  N        -38.5710  175.7860   29.9410 N.3   211  TYR211     -0.1227
     91  CA       -38.9940  176.1880   31.2880 C.3   211  TYR211      0.1736
     92  C        -40.3560  176.8780   31.2900 C.2   211  TYR211      0.2595
     93  O        -40.6000  177.8270   30.5360 O.2   211  TYR211     -0.2718
     94  CB       -37.9610  177.1080   31.9900 C.3   211  TYR211      0.0548
     95  CG       -38.4050  177.5910   33.3620 C.ar  211  TYR211     -0.0200
     96  CD1      -38.2020  176.8100   34.4970 C.ar  211  TYR211     -0.0009
     97  CD2      -39.0810  178.7970   33.5150 C.ar  211  TYR211     -0.0009
     98  CE1      -38.6450  177.2270   35.7520 C.ar  211  TYR211      0.0417
     99  CE2      -39.5470  179.2130   34.7620 C.ar  211  TYR211      0.0417
    100  CZ       -39.3120  178.4320   35.8810 C.ar  211  TYR211      0.1957
    101  OH       -39.7460  178.8420   37.1170 O.3   211  TYR211     -0.2866
    102  N        -41.1870  176.4360   32.2390 N.am  212  ARG212     -0.1966
    103  CA       -42.5240  176.9110   32.5810 C.3   212  ARG212      0.1729
    104  C        -42.5490  177.2350   34.0830 C.2   212  ARG212      0.2616
    105  O        -41.7840  176.6300   34.8380 O.2   212  ARG212     -0.2715
    106  CB       -43.5660  175.8250   32.2430 C.3   212  ARG212      0.0348
    107  CG       -43.7960  175.5880   30.7490 C.3   212  ARG212      0.0492
    108  CD       -44.7770  174.4550   30.4570 C.3   212  ARG212      0.2205
    109  NE       -46.0430  174.5980   31.1840 N.pl3 212  ARG212     -0.0865
    110  CZ       -47.0860  175.3100   30.7670 C.cat 212  ARG212      0.5346
    111  NH1      -47.0340  175.9630   29.6130 N.pl3 212  ARG212      0.1354
    112  NH2      -48.1810  175.3970   31.5100 N.pl3 212  ARG212      0.1354
    113  N        -43.4090  178.1710   34.5300 N.am  213  THR213     -0.1951
    114  CA       -43.5000  178.4800   35.9660 C.3   213  THR213      0.1897
    115  C        -44.2970  177.3900   36.6620 C.2   213  THR213      0.2313
    116  O        -45.3100  176.9390   36.1220 O.2   213  THR213     -0.2863
    117  CB       -44.1170  179.8650   36.2620 C.3   213  THR213      0.1794
    118  OG1      -45.4980  179.8840   35.9000 O.3   213  THR213     -0.2208
    119  CG2      -43.3680  181.0100   35.6120 C.3   213  THR213      0.0378
    120  N        -48.1370  177.7460   36.6370 N.3   216  ALA216     -0.1245
    121  CA       -48.8200  177.3660   35.3960 C.3   216  ALA216      0.1562
    122  C        -48.6240  175.8840   35.0770 C.2   216  ALA216      0.2260
    123  O        -49.2780  175.3680   34.1690 O.2   216  ALA216     -0.2867
    124  CB       -48.3190  178.2130   34.2410 C.3   216  ALA216      0.0290
    125  N        -51.2280  171.9180   26.5270 N.3   222  GLY222     -0.1225
    126  CA       -50.3370  172.2880   25.4280 C.3   222  GLY222      0.1811
    127  C        -49.2940  173.2930   25.8810 C.2   222  GLY222      0.2280
    128  O        -49.2380  174.4210   25.3720 O.2   222  GLY222     -0.2866
    129  N        -45.1730  173.6040   26.6880 N.3   224  THR224     -0.1203
    130  CA       -43.8220  173.1060   26.4550 C.3   224  THR224      0.1994
    131  C        -42.7910  173.9250   27.2760 C.2   224  THR224      0.2618
    132  O        -42.0390  173.3420   28.0600 O.2   224  THR224     -0.2717
    133  CB       -43.4970  173.0680   24.9360 C.3   224  THR224      0.1784
    134  OG1      -43.1120  174.3560   24.4650 O.3   224  THR224     -0.2211
    135  CG2      -44.6290  172.4950   24.0850 C.3   224  THR224      0.0376
    136  N        -42.7740  175.2440   27.0910 N.am  225  GLY225     -0.1942
    137  CA       -41.8470  176.1470   27.7680 C.3   225  GLY225      0.2014
    138  C        -40.8580  176.7980   26.8210 C.2   225  GLY225      0.2639
    139  O        -39.9270  177.4820   27.2600 O.2   225  GLY225     -0.2714
    140  N        -41.0830  176.6140   25.5030 N.am  226  LEU226     -0.1963
    141  CA       -40.2290  177.0960   24.4130 C.3   226  LEU226      0.1731
    142  C        -40.4280  178.5840   24.0300 C.2   226  LEU226      0.2656
    143  O        -39.4330  179.3130   23.9780 O.2   226  LEU226     -0.2711
    144  CB       -40.4440  176.2290   23.1630 C.3   226  LEU226      0.0311
    145  CG       -39.8050  174.8530   23.1350 C.3   226  LEU226      0.0022
    146  CD1      -40.3440  174.0570   21.9850 C.3   226  LEU226      0.0001
    147  CD2      -38.3100  174.9450   22.9700 C.3   226  LEU226      0.0001
    148  N        -41.6690  178.9510   23.6620 N.am  227  GLY227     -0.1716
    149  CA       -42.1540  180.2710   23.2570 C.2   227  GLY227      0.1480
    150  C        -41.3070  181.5070   23.4940 C.2   227  GLY227      0.2820
    151  O        -40.8030  182.1000   22.5370 O.2   227  GLY227     -0.2669
    152  N        -41.1500  181.9060   24.7640 N.am  228  LEU228     -0.1929
    153  CA       -40.4800  183.1430   25.1640 C.3   228  LEU228      0.1731
    154  C        -38.9710  183.0870   24.9850 C.2   228  LEU228      0.2616
    155  O        -38.3710  184.1240   24.6930 O.2   228  LEU228     -0.2715
    156  CB       -40.8720  183.5540   26.6000 C.3   228  LEU228      0.0311
    157  CG       -42.3320  184.0580   26.7550 C.3   228  LEU228      0.0022
    158  CD1      -42.6290  184.4910   28.1350 C.3   228  LEU228      0.0001
    159  CD2      -42.6130  185.2240   25.8640 C.3   228  LEU228      0.0001
    160  N        -38.3720  181.8870   25.0590 N.am  229  ALA229     -0.1977
    161  CA       -36.9450  181.7190   24.8090 C.3   229  ALA229      0.1597
    162  C        -36.6280  181.9390   23.3210 C.2   229  ALA229      0.2287
    163  O        -35.5370  182.4270   23.0100 O.2   229  ALA229     -0.2864
    164  CB       -36.4910  180.3460   25.2460 C.3   229  ALA229      0.0319
    165  N        -49.7530  190.0700   33.1620 N.3   252  LEU252     -0.1245
    166  CA       -48.3740  190.2730   32.7430 C.3   252  LEU252      0.1561
    167  C        -48.2300  191.1380   31.5180 C.2   252  LEU252      0.2260
    168  O        -48.9900  191.0150   30.5500 O.2   252  LEU252     -0.2867
    169  CB       -47.6740  188.9570   32.4610 C.3   252  LEU252      0.0270
    170  CG       -47.1170  188.2130   33.6390 C.3   252  LEU252      0.0019
    171  CD1      -46.4900  186.9630   33.1660 C.3   252  LEU252      0.0001
    172  CD2      -46.0950  189.0560   34.4290 C.3   252  LEU252      0.0001
    173  N        -45.6840  192.2170   28.4790 N.3   254  LEU254     -0.1245
    174  CA       -44.4930  191.8980   27.7180 C.3   254  LEU254      0.1561
    175  C        -44.2250  193.0760   26.8340 C.2   254  LEU254      0.2260
    176  O        -45.1690  193.6270   26.2640 O.2   254  LEU254     -0.2867
    177  CB       -44.6020  190.6070   26.9230 C.3   254  LEU254      0.0270
    178  CG       -44.2480  189.3730   27.7010 C.3   254  LEU254      0.0019
    179  CD1      -44.9730  188.1510   27.1460 C.3   254  LEU254      0.0001
    180  CD2      -42.7430  189.1920   27.7820 C.3   254  LEU254      0.0001
@<TRIPOS>BOND
     1     1     2    1
     2     8     6   am
     3     6     5    1
     4     6     7    2
     5     2     5    1
     6     2     3    1
     7     3     4    2
     8   146   145    1
     9   151   150    2
    10   147   145    1
    11   163   162    2
    12   145   144    1
    13   144   141    1
    14   149   150    1
    15   149   148    2
    16   162   161    1
    17    32    30    1
    18   150   152   am
    19   148   142    1
    20   143   142    2
    21   142   141    1
    22   135   133    1
    23     9    10    1
    24    30    29    2
    25    30    31    1
    26    29    28    1
    27   141   140    1
    28    16    14   am
    29   134   133    1
    30   155   154    2
    31   152   153    1
    32   161   160    1
    33   161   164    1
    34   133   130    1
    35   154   160   am
    36   154   153    1
    37   153   156    1
    38    27    28    1
    39    27    26    1
    40   128   127    2
    41   126   127    1
    42   126   125    1
    43    10    13    1
    44    10    11    1
    45   140   138   am
    46    14    13    1
    47    14    15    2
    48   159   157    1
    49    17    11   am
    50    17    18    1
    51    22    23    1
    52    21    18    1
    53   176   175    2
    54    11    12    2
    55   130   129    1
    56   130   131    1
    57    19    18    1
    58    19    20    2
    59    26    23    1
    60   156   157    1
    61   157   158    1
    62    23    24    1
    63   138   139    2
    64   138   137    1
    65   175   174    1
    66   177   178    1
    67   177   174    1
    68   136   131   am
    69   136   137    1
    70   179   178    1
    71   131   132    2
    72   178   180    1
    73   174   173    1
    74    24    25    2
    75    24    33   am
    76    44    43    1
    77    42    43   ar
    78    42    40   ar
    79    81    82    2
    80    81    80    1
    81    33    34    1
    82    43    41   ar
    83    40    38   ar
    84   111   110    1
    85    45    46    1
    86    49    46    1
    87    49    50    1
    88    80    79    1
    89    80    83    1
    90    46    47    1
    91    74    73    2
    92    41    39   ar
    93    90    91    1
    94    38    39   ar
    95    38    37    1
    96    34    37    1
    97    34    35    1
    98    52    50   ar
    99   108   107    1
   100   108   109    1
   101    93    92    2
   102   168   167    2
   103    77    75    1
   104    73    72    1
   105    50    51   ar
   106   107   106    1
   107   110   109    2
   108   110   112    1
   109    35    36    2
   110    47    48    2
   111    83    84    1
   112    91    92    1
   113    91    94    1
   114    92   102   am
   115   167   166    1
   116    84    85    1
   117    75    72    1
   118    75    76    1
   119    72    71    1
   120    94    95    1
   121   102   103    1
   122   106   103    1
   123   169   166    1
   124   169   170    1
   125   103   104    1
   126   166   165    1
   127    76    78    1
   128   171   170    1
   129    95    97   ar
   130    95    96   ar
   131    85    86    1
   132    97    99   ar
   133   170   172    1
   134    86    87    2
   135   104   113   am
   136   104   105    2
   137   123   122    2
   138   124   121    1
   139    96    98   ar
   140   113   114    1
   141    99   100   ar
   142    56    55    2
   143   122   121    1
   144    87    89    1
   145    87    88    1
   146    59    53    1
   147    59    58    1
   148    70    68    1
   149   121   120    1
   150    53    54    1
   151   119   117    1
   152    98   100   ar
   153   100   101    1
   154   118   117    1
   155   114   117    1
   156   114   115    1
   157    68    69    1
   158    68    65    1
   159    55    54    1
   160    55    60   am
   161   116   115    2
   162    58    57    1
   163    61    60    1
   164    61    62    1
   165    54    57    1
   166    64    62   am
   167    64    65    1
   168    62    63    2
   169    65    66    1
   170    67    66    2
