@<TRIPOS>MOLECULE
tmp/4biwA00.pdb
 180 171 0 0 0
SMALL
GASTEIGER

@<TRIPOS>ATOM
      1  N         45.3500  -45.6400    3.0460 N.3    80  ASP80      -0.1239
      2  CA        46.6730  -46.2120    2.8360 C.3    80  ASP80       0.1674
      3  C         46.6540  -47.7190    3.1270 C.2    80  ASP80       0.2266
      4  O         47.4430  -48.4680    2.5350 O.2    80  ASP80      -0.2867
      5  CB        47.7210  -45.4660    3.6770 C.3    80  ASP80       0.1410
      6  CG        48.0280  -44.0560    3.1610 C.2    80  ASP80       0.3668
      7  OD1       47.8440  -43.8050    1.9340 O.co2  80  ASP80      -0.2456
      8  OD2       48.4810  -43.2130    3.9680 O.co2  80  ASP80      -0.2456
      9  N         60.4490  -49.8210   -0.8520 N.3   146  ASN146     -0.1225
     10  CA        60.0000  -48.9320    0.2140 C.3   146  ASN146      0.1785
     11  C         61.1630  -48.2260    0.8810 C.2   146  ASN146      0.2597
     12  O         61.0790  -47.0300    1.1110 O.2   146  ASN146     -0.2718
     13  CB        59.1900  -49.6960    1.2480 C.3   146  ASN146      0.1169
     14  CG        57.7320  -49.5890    0.9910 C.2   146  ASN146      0.2627
     15  OD1       57.1010  -48.5690    1.3020 O.2   146  ASN146     -0.2716
     16  ND2       57.1890  -50.5910    0.3260 N.am  146  ASN146     -0.0877
     17  N         62.2640  -48.9520    1.1210 N.am  147  ILE147     -0.1980
     18  CA        63.4770  -48.4520    1.7640 C.3   147  ILE147      0.1595
     19  C         64.2040  -47.4300    0.8620 C.2   147  ILE147      0.2287
     20  O         64.6640  -46.3920    1.3670 O.2   147  ILE147     -0.2864
     21  CB        64.3930  -49.6440    2.1570 C.3   147  ILE147      0.0276
     22  CG1       63.7290  -50.5140    3.2420 C.3   147  ILE147      0.0022
     23  CG2       65.7690  -49.1730    2.5800 C.3   147  ILE147      0.0022
     24  CD1       64.6530  -51.3880    4.0940 C.3   147  ILE147      0.0001
     25  N         61.8670  -44.1950    0.3100 N.3   150  ASN150     -0.1225
     26  CA        61.9710  -43.3780    1.5310 C.3   150  ASN150      0.1785
     27  C         63.2480  -42.5300    1.4830 C.2   150  ASN150      0.2597
     28  O         63.2150  -41.3330    1.7610 O.2   150  ASN150     -0.2718
     29  CB        62.0530  -44.2750    2.7670 C.3   150  ASN150      0.1169
     30  CG        60.7850  -44.7040    3.4360 C.2   150  ASN150      0.2627
     31  OD1       59.6590  -44.4550    2.9940 O.2   150  ASN150     -0.2716
     32  ND2       60.9660  -45.4050    4.5350 N.am  150  ASN150     -0.0877
     33  N         64.3780  -43.1790    1.1170 N.am  151  ALA151     -0.1979
     34  CA        65.6860  -42.5540    1.0140 C.3   151  ALA151      0.1597
     35  C         65.6990  -41.4680   -0.0630 C.2   151  ALA151      0.2287
     36  O         66.2340  -40.3980    0.2010 O.2   151  ALA151     -0.2864
     37  CB        66.7590  -43.6000    0.7350 C.3   151  ALA151      0.0319
     38  N         63.3230  -39.6030   -0.9270 N.3   153  ARG153     -0.1231
     39  CA        62.5420  -38.5150   -0.3340 C.3   153  ARG153      0.1694
     40  C         63.3470  -37.7090    0.7060 C.2   153  ARG153      0.2592
     41  O         63.5150  -36.4990    0.5110 O.2   153  ARG153     -0.2718
     42  CB        61.2530  -39.0590    0.3190 C.3   153  ARG153      0.0321
     43  CG        60.0790  -38.0630    0.3850 C.3   153  ARG153      0.0489
     44  CD        58.9490  -38.4840    1.3310 C.3   153  ARG153      0.2205
     45  NE        58.4100  -39.8220    1.0440 N.pl3 153  ARG153     -0.0865
     46  CZ        57.9870  -40.6760    1.9740 C.cat 153  ARG153      0.5346
     47  NH1       58.0210  -40.3400    3.2590 N.pl3 153  ARG153      0.1354
     48  NH2       57.5270  -41.8750    1.6260 N.pl3 153  ARG153      0.1354
     49  N         63.8490  -38.3710    1.7900 N.am  154  TYR154     -0.1976
     50  CA        64.5260  -37.7230    2.9210 C.3   154  TYR154      0.1639
     51  C         65.9930  -37.3780    2.7000 C.2   154  TYR154      0.2290
     52  O         66.5410  -36.6370    3.5160 O.2   154  TYR154     -0.2864
     53  CB        64.3970  -38.5570    4.1970 C.3   154  TYR154      0.0560
     54  CG        62.9680  -38.7410    4.6530 C.ar  154  TYR154     -0.0198
     55  CD1       62.3090  -37.7450    5.3700 C.ar  154  TYR154     -0.0009
     56  CD2       62.2700  -39.9050    4.3630 C.ar  154  TYR154     -0.0009
     57  CE1       60.9810  -37.9000    5.7760 C.ar  154  TYR154      0.0417
     58  CE2       60.9460  -40.0740    4.7650 C.ar  154  TYR154      0.0417
     59  CZ        60.3020  -39.0660    5.4670 C.ar  154  TYR154      0.1957
     60  OH        58.9900  -39.2400    5.8480 O.3   154  TYR154     -0.2866
     61  N         71.5750  -42.6270    3.0820 N.3   176  ASP176     -0.1239
     62  CA        71.1750  -41.3050    2.5780 C.3   176  ASP176      0.1674
     63  C         71.9540  -40.2310    3.3250 C.2   176  ASP176      0.2266
     64  O         72.4250  -40.4790    4.4360 O.2   176  ASP176     -0.2867
     65  CB        69.6490  -41.0590    2.6470 C.3   176  ASP176      0.1410
     66  CG        69.0060  -41.1750    4.0140 C.2   176  ASP176      0.3668
     67  OD1       68.8860  -40.1330    4.7090 O.co2 176  ASP176     -0.2456
     68  OD2       68.5250  -42.2820    4.3520 O.co2 176  ASP176     -0.2456
     69  N         68.5410  -35.8570    6.6920 N.3   179  PRO179     -0.2102
     70  CA        68.5050  -35.9400    8.1600 C.3   179  PRO179      0.1504
     71  C         68.3430  -37.4030    8.5670 C.2   179  PRO179      0.2576
     72  O         67.8310  -38.2520    7.7880 O.2   179  PRO179     -0.2718
     73  CB        67.2760  -35.1100    8.5190 C.3   179  PRO179      0.0282
     74  CG        66.3760  -35.2520    7.3370 C.3   179  PRO179      0.0208
     75  CD        67.2900  -35.2720    6.1570 C.3   179  PRO179      0.0893
     76  N         68.8000  -37.7250    9.7600 N.am  180  GLY180     -0.1943
     77  CA        68.6590  -39.1070   10.1910 C.3   180  GLY180      0.2014
     78  C         67.3240  -39.3400   10.8540 C.2   180  GLY180      0.2638
     79  O         66.2970  -38.8080   10.4320 O.2   180  GLY180     -0.2714
     80  N         67.3750  -40.1410   11.9040 N.am  181  VAL181     -0.1977
     81  CA        66.3150  -40.5140   12.8130 C.3   181  VAL181      0.1596
     82  C         67.0210  -40.6430   14.1600 C.2   181  VAL181      0.2287
     83  O         68.0310  -41.3480   14.2480 O.2   181  VAL181     -0.2864
     84  CB        65.5840  -41.8040   12.3450 C.3   181  VAL181      0.0276
     85  CG1       64.8530  -42.4840   13.4860 C.3   181  VAL181      0.0022
     86  CG2       64.6220  -41.5130   11.2080 C.3   181  VAL181      0.0022
     87  N         60.1430  -46.5460   14.1720 N.3   189  ILE189     -0.1245
     88  CA        59.9540  -46.3110   12.7320 C.3   189  ILE189      0.1561
     89  C         59.3760  -47.5290   11.9760 C.2   189  ILE189      0.2260
     90  O         58.8050  -47.3300   10.9010 O.2   189  ILE189     -0.2867
     91  CB        61.2710  -45.8310   12.0730 C.3   189  ILE189      0.0252
     92  CG1       62.4240  -46.8150   12.3660 C.3   189  ILE189      0.0019
     93  CG2       61.6180  -44.3790   12.4470 C.3   189  ILE189      0.0019
     94  CD1       63.5950  -46.5980   11.6190 C.3   189  ILE189      0.0001
     95  N         53.6230  -45.0940   12.3450 N.3   194  TYR194     -0.1227
     96  CA        54.5930  -44.3310   13.1040 C.3   194  TYR194      0.1736
     97  C         55.4080  -43.4880   12.1490 C.2   194  TYR194      0.2595
     98  O         56.1700  -44.0140   11.3450 O.2   194  TYR194     -0.2718
     99  CB        55.5120  -45.1960   13.9890 C.3   194  TYR194      0.0548
    100  CG        56.3980  -44.3500   14.8860 C.ar  194  TYR194     -0.0200
    101  CD1       57.4570  -43.6100   14.3600 C.ar  194  TYR194     -0.0009
    102  CD2       56.1500  -44.2510   16.2510 C.ar  194  TYR194     -0.0009
    103  CE1       58.2510  -42.7990   15.1680 C.ar  194  TYR194      0.0417
    104  CE2       56.9370  -43.4390   17.0720 C.ar  194  TYR194      0.0417
    105  CZ        57.9950  -42.7180   16.5250 C.ar  194  TYR194      0.1957
    106  OH        58.7900  -41.9180   17.3130 O.3   194  TYR194     -0.2866
    107  N         55.2610  -42.1780   12.2730 N.am  195  ARG195     -0.1966
    108  CA        56.0030  -41.1690   11.5320 C.3   195  ARG195      0.1729
    109  C         56.7080  -40.3040   12.5500 C.2   195  ARG195      0.2616
    110  O         56.1490  -40.0970   13.6230 O.2   195  ARG195     -0.2715
    111  CB        55.0600  -40.3170   10.6580 C.3   195  ARG195      0.0348
    112  CG        54.3250  -41.0600    9.5550 C.3   195  ARG195      0.0492
    113  CD        54.4590  -40.3800    8.2000 C.3   195  ARG195      0.2205
    114  NE        53.7100  -39.1270    8.0890 N.pl3 195  ARG195     -0.0865
    115  CZ        53.7600  -38.3050    7.0430 C.cat 195  ARG195      0.5346
    116  NH1       54.5310  -38.5900    6.0010 N.pl3 195  ARG195      0.1354
    117  NH2       53.0420  -37.1880    7.0330 N.pl3 195  ARG195      0.1354
    118  N         57.9250  -39.8080   12.2660 N.am  196  THR196     -0.1951
    119  CA        58.5730  -38.9170   13.2300 C.3   196  THR196      0.1897
    120  C         57.9270  -37.5500   13.0690 C.2   196  THR196      0.2313
    121  O         57.4590  -37.2210   11.9680 O.2   196  THR196     -0.2863
    122  CB        60.1050  -38.8890   13.1150 C.3   196  THR196      0.1794
    123  OG1       60.5060  -38.4650   11.8110 O.3   196  THR196     -0.2208
    124  CG2       60.7460  -40.2120   13.4840 C.3   196  THR196      0.0378
    125  N         59.0570  -35.7360   10.1110 N.3   199  ALA199     -0.1245
    126  CA        58.4910  -36.2100    8.8410 C.3   199  ALA199      0.1562
    127  C         57.0180  -35.8450    8.7130 C.2   199  ALA199      0.2260
    128  O         56.5240  -35.7240    7.5880 O.2   199  ALA199     -0.2867
    129  CB        58.6480  -37.7080    8.7290 C.3   199  ALA199      0.0290
    130  N         52.9830  -41.0670    2.8450 N.3   206  GLY206     -0.1210
    131  CA        51.8240  -41.7850    3.3820 C.3   206  GLY206      0.1956
    132  C         51.6750  -41.7020    4.8910 C.2   206  GLY206      0.2613
    133  O         52.4060  -40.9610    5.5400 O.2   206  GLY206     -0.2717
    134  N         50.7320  -42.4580    5.4790 N.am  207  THR207     -0.1938
    135  CA        50.4760  -42.3680    6.9300 C.3   207  THR207      0.2028
    136  C         51.5580  -43.0810    7.8010 C.2   207  THR207      0.2643
    137  O         51.5740  -42.8670    9.0240 O.2   207  THR207     -0.2714
    138  CB        49.0490  -42.8420    7.3270 C.3   207  THR207      0.1808
    139  OG1       48.7740  -44.1450    6.8070 O.3   207  THR207     -0.2208
    140  CG2       47.9640  -41.8370    6.9070 C.3   207  THR207      0.0379
    141  N         52.4320  -43.8680    7.1680 N.am  208  GLY208     -0.1939
    142  CA        53.5180  -44.5820    7.8540 C.3   208  GLY208      0.2014
    143  C         53.4100  -46.0760    7.8480 C.2   208  GLY208      0.2639
    144  O         53.5280  -46.7270    8.8920 O.2   208  GLY208     -0.2714
    145  N         53.1930  -46.6600    6.6750 N.am  209  LEU209     -0.1963
    146  CA        53.0890  -48.1010    6.5060 C.3   209  LEU209      0.1728
    147  C         54.3530  -48.7210    5.8660 C.2   209  LEU209      0.2617
    148  O         54.5710  -49.9270    6.0190 O.2   209  LEU209     -0.2715
    149  CB        51.8630  -48.4480    5.6370 C.3   209  LEU209      0.0311
    150  CG        50.5040  -48.3890    6.3020 C.3   209  LEU209      0.0022
    151  CD1       49.4330  -48.6980    5.3050 C.3   209  LEU209      0.0001
    152  CD2       50.4260  -49.3390    7.4790 C.3   209  LEU209      0.0001
    153  N         55.1240  -47.9110    5.1280 N.am  210  GLY210     -0.1940
    154  CA        56.3270  -48.3200    4.4100 C.3   210  GLY210      0.2014
    155  C         57.2290  -49.3190    5.1090 C.2   210  GLY210      0.2638
    156  O         57.4420  -50.4210    4.6010 O.2   210  GLY210     -0.2714
    157  N         57.7280  -48.9520    6.3020 N.am  211  LEU211     -0.1977
    158  CA        58.6610  -49.7790    7.0730 C.3   211  LEU211      0.1596
    159  C         57.9640  -50.8980    7.8340 C.2   211  LEU211      0.2287
    160  O         58.6240  -51.8780    8.2020 O.2   211  LEU211     -0.2864
    161  CB        59.5490  -48.9450    8.0050 C.3   211  LEU211      0.0297
    162  CG        60.5600  -48.0220    7.3060 C.3   211  LEU211      0.0022
    163  CD1       61.3040  -47.1890    8.3150 C.3   211  LEU211      0.0001
    164  CD2       61.5430  -48.7960    6.4500 C.3   211  LEU211      0.0001
    165  N         70.1720  -41.7840    7.3150 N.3   235  LEU235     -0.1245
    166  CA        69.6810  -43.0600    7.8230 C.3   235  LEU235      0.1561
    167  C         70.2570  -44.2370    7.0400 C.2   235  LEU235      0.2260
    168  O         70.4520  -44.1750    5.8180 O.2   235  LEU235     -0.2867
    169  CB        68.1420  -43.1090    7.8210 C.3   235  LEU235      0.0270
    170  CG        67.4920  -44.2450    8.6310 C.3   235  LEU235      0.0019
    171  CD1       67.8000  -44.1360   10.1240 C.3   235  LEU235      0.0001
    172  CD2       66.0160  -44.2870    8.4020 C.3   235  LEU235      0.0001
    173  N         69.5920  -48.3150    6.5010 N.3   237  LEU237     -0.1245
    174  CA        68.6680  -49.4210    6.6530 C.3   237  LEU237      0.1561
    175  C         69.3700  -50.6560    6.1510 C.2   237  LEU237      0.2260
    176  O         69.9650  -50.6320    5.0610 O.2   237  LEU237     -0.2867
    177  CB        67.3250  -49.1720    5.9510 C.3   237  LEU237      0.0270
    178  CG        66.4780  -48.0720    6.5790 C.3   237  LEU237      0.0019
    179  CD1       65.3240  -47.6830    5.6700 C.3   237  LEU237      0.0001
    180  CD2       65.9880  -48.4700    7.9790 C.3   237  LEU237      0.0001
@<TRIPOS>BOND
     1    38    39    1
     2     9    10    1
     3    39    42    1
     4    39    40    1
     5    35    36    2
     6    35    34    1
     7    10    11    1
     8    10    13    1
     9    25    26    1
    10    42    43    1
    11    16    14   am
    12    43    44    1
    13    41    40    2
    14    40    49   am
    15    37    34    1
    16    19    20    2
    17    19    18    1
    18    11    12    2
    19    11    17   am
    20    14    13    1
    21    14    15    2
    22    34    33    1
    23    45    44    1
    24    45    46    2
    25    33    27   am
    26    17    18    1
    27    27    26    1
    28    27    28    2
    29    26    29    1
    30    48    46    1
    31    18    21    1
    32    49    50    1
    33     7     6   ar
    34    46    47    1
    35    21    23    1
    36    21    22    1
    37     4     3    2
    38    62    65    1
    39    62    61    1
    40    62    63    1
    41    65    66    1
    42    51    50    1
    43    51    52    2
    44    29    30    1
    45     2     1    1
    46     2     3    1
    47     2     5    1
    48   130   131    1
    49    50    53    1
    50    31    30    2
    51     6     5    1
    52     6     8   ar
    53    22    24    1
    54    63    64    2
    55   131   132    1
    56    30    32   am
    57    66    68   ar
    58    66    67   ar
    59    53    54    1
    60    56    54   ar
    61    56    58   ar
    62   154   155    1
    63   154   153    1
    64   156   155    2
    65    54    55   ar
    66    58    59   ar
    67   132   134   am
    68   132   133    2
    69   176   175    2
    70   155   157   am
    71   153   147   am
    72   151   150    1
    73    55    57   ar
    74    59    57   ar
    75    59    60    1
    76   134   135    1
    77   149   150    1
    78   149   146    1
    79   179   178    1
    80   168   167    2
    81   147   148    2
    82   147   146    1
    83   177   178    1
    84   177   174    1
    85   116   115    1
    86   175   174    1
    87    75    69    1
    88    75    74    1
    89   150   152    1
    90   157   158    1
    91   164   162    1
    92   173   174    1
    93   146   145    1
    94   178   180    1
    95   145   143   am
    96    69    70    1
    97   139   138    1
    98   140   138    1
    99   135   138    1
   100   135   136    1
   101   117   115    1
   102   167   166    1
   103   115   114    2
   104   158   159    1
   105   158   161    1
   106   141   136   am
   107   141   142    1
   108   162   161    1
   109   162   163    1
   110   165   166    1
   111    74    73    1
   112   128   127    2
   113    72    71    2
   114   136   137    2
   115   169   166    1
   116   169   170    1
   117   159   160    2
   118   143   142    1
   119   143   144    2
   120   114   113    1
   121    70    73    1
   122    70    71    1
   123   113   112    1
   124   172   170    1
   125    71    76   am
   126   170   171    1
   127   127   126    1
   128   129   126    1
   129   126   125    1
   130   112   111    1
   131    76    77    1
   132    77    78    1
   133    79    78    2
   134   111   108    1
   135    78    80   am
   136    90    89    2
   137    86    84    1
   138    98    97    2
   139   108   107    1
   140   108   109    1
   141    94    92    1
   142   123   122    1
   143    80    81    1
   144   121   120    2
   145    89    88    1
   146    91    92    1
   147    91    93    1
   148    91    88    1
   149    97   107   am
   150    97    96    1
   151   118   109   am
   152   118   119    1
   153    95    96    1
   154    84    81    1
   155    84    85    1
   156   109   110    2
   157    88    87    1
   158    81    82    1
   159   120   119    1
   160    96    99    1
   161   122   119    1
   162   122   124    1
   163    99   100    1
   164    82    83    2
   165   101   100   ar
   166   101   103   ar
   167   100   102   ar
   168   103   105   ar
   169   102   104   ar
   170   105   104   ar
   171   105   106    1
