@<TRIPOS>MOLECULE
tmp/4bizC00.pdb
 180 172 0 0 0
SMALL
GASTEIGER

@<TRIPOS>ATOM
      1  N         39.3140  -26.0940   39.6170 N.3   140  ASN140     -0.1225
      2  CA        39.6350  -24.7320   40.0560 C.3   140  ASN140      0.1785
      3  C         39.1610  -24.4680   41.4870 C.2   140  ASN140      0.2597
      4  O         39.9150  -23.9000   42.2740 O.2   140  ASN140     -0.2718
      5  CB        39.0570  -23.6860   39.0940 C.3   140  ASN140      0.1169
      6  CG        39.7500  -23.6010   37.7390 C.2   140  ASN140      0.2627
      7  OD1       40.7350  -24.3190   37.4490 O.2   140  ASN140     -0.2716
      8  ND2       39.2250  -22.7260   36.8670 N.am  140  ASN140     -0.0877
      9  N         37.9340  -24.9030   41.8210 N.am  141  ILE141     -0.1980
     10  CA        37.3540  -24.7970   43.1530 C.3   141  ILE141      0.1595
     11  C         38.2210  -25.5580   44.1960 C.2   141  ILE141      0.2287
     12  O         38.5300  -25.0100   45.2680 O.2   141  ILE141     -0.2864
     13  CB        35.8870  -25.3550   43.1820 C.3   141  ILE141      0.0276
     14  CG1       34.9350  -24.7880   42.1150 C.3   141  ILE141      0.0022
     15  CG2       35.2870  -25.2670   44.5820 C.3   141  ILE141      0.0022
     16  CD1       34.7620  -23.3630   42.0910 C.3   141  ILE141      0.0001
     17  N         41.3310  -26.5640   43.9040 N.3   143  ARG143     -0.1231
     18  CA        42.6640  -25.9680   43.9770 C.3   143  ARG143      0.1694
     19  C         42.7180  -24.7890   44.9540 C.2   143  ARG143      0.2592
     20  O         43.7290  -24.6300   45.6300 O.2   143  ARG143     -0.2718
     21  CB        43.0950  -25.4860   42.6040 C.3   143  ARG143      0.0321
     22  CG        44.4020  -26.0760   42.0960 C.3   143  ARG143      0.0489
     23  CD        45.0830  -25.1760   41.0620 C.3   143  ARG143      0.2205
     24  NE        44.5310  -23.8160   41.0190 N.pl3 143  ARG143     -0.0865
     25  CZ        43.6890  -23.3800   40.0840 C.cat 143  ARG143      0.5346
     26  NH1       43.2930  -24.1890   39.1060 N.pl3 143  ARG143      0.1354
     27  NH2       43.2260  -22.1340   40.1260 N.pl3 143  ARG143      0.1354
     28  N         41.6540  -23.9490   45.0030 N.am  144  ASN144     -0.1960
     29  CA        41.5290  -22.8020   45.9140 C.3   144  ASN144      0.1819
     30  C         41.4150  -23.3120   47.3350 C.2   144  ASN144      0.2621
     31  O         42.0970  -22.8210   48.2380 O.2   144  ASN144     -0.2715
     32  CB        40.3120  -21.9620   45.5680 C.3   144  ASN144      0.1195
     33  CG        40.3690  -21.1010   44.3250 C.2   144  ASN144      0.2630
     34  OD1       41.3890  -20.5350   43.9510 O.2   144  ASN144     -0.2716
     35  ND2       39.2130  -20.8500   43.7540 N.am  144  ASN144     -0.0877
     36  N         40.5940  -24.3630   47.5160 N.am  145  ALA145     -0.1977
     37  CA        40.4150  -25.0390   48.7870 C.3   145  ALA145      0.1597
     38  C         41.7610  -25.5730   49.2660 C.2   145  ALA145      0.2287
     39  O         42.1250  -25.3230   50.4110 O.2   145  ALA145     -0.2864
     40  CB        39.4000  -26.1630   48.6430 C.3   145  ALA145      0.0319
     41  N         44.8170  -24.4160   48.4340 N.3   147  ARG147     -0.1231
     42  CA        45.6570  -23.2620   48.8250 C.3   147  ARG147      0.1694
     43  C         45.2280  -22.6160   50.1360 C.2   147  ARG147      0.2592
     44  O         46.0560  -22.4180   51.0160 O.2   147  ARG147     -0.2718
     45  CB        45.6850  -22.1460   47.7600 C.3   147  ARG147      0.0321
     46  CG        46.4120  -22.4940   46.4740 C.3   147  ARG147      0.0489
     47  CD        46.5800  -21.2700   45.5810 C.3   147  ARG147      0.2205
     48  NE        45.9930  -21.4590   44.2510 N.pl3 147  ARG147     -0.0865
     49  CZ        44.8060  -20.9890   43.8850 C.cat 147  ARG147      0.5346
     50  NH1       44.0660  -20.2950   44.7400 N.pl3 147  ARG147      0.1354
     51  NH2       44.3540  -21.1990   42.6580 N.pl3 147  ARG147      0.1354
     52  N         43.9460  -22.2620   50.2530 N.am  148  TYR148     -0.1976
     53  CA        43.4400  -21.4660   51.3570 C.3   148  TYR148      0.1639
     54  C         43.0570  -22.2340   52.6200 C.2   148  TYR148      0.2290
     55  O         43.0190  -21.6170   53.6850 O.2   148  TYR148     -0.2864
     56  CB        42.2790  -20.6170   50.8700 C.3   148  TYR148      0.0560
     57  CG        42.6910  -19.6210   49.8040 C.ar  148  TYR148     -0.0198
     58  CD1       43.3510  -18.4370   50.1410 C.ar  148  TYR148     -0.0009
     59  CD2       42.4420  -19.8670   48.4610 C.ar  148  TYR148     -0.0009
     60  CE1       43.7340  -17.5180   49.1620 C.ar  148  TYR148      0.0417
     61  CE2       42.8010  -18.9510   47.4780 C.ar  148  TYR148      0.0417
     62  CZ        43.4480  -17.7750   47.8300 C.ar  148  TYR148      0.1957
     63  OH        43.7910  -16.8640   46.8460 O.3   148  TYR148     -0.2866
     64  N         36.2590  -25.8450   53.0400 N.3   170  ASP170     -0.1239
     65  CA        37.6260  -25.7430   53.5640 C.3   170  ASP170      0.1674
     66  C         37.5720  -25.0910   54.9510 C.2   170  ASP170      0.2266
     67  O         36.6060  -24.3840   55.2540 O.2   170  ASP170     -0.2867
     68  CB        38.6030  -25.0060   52.6040 C.3   170  ASP170      0.1410
     69  CG        38.3650  -23.5360   52.3540 C.2   170  ASP170      0.3668
     70  OD1       38.4880  -22.7370   53.3150 O.co2 170  ASP170     -0.2456
     71  OD2       38.1940  -23.1620   51.1810 O.co2 170  ASP170     -0.2456
     72  N         40.5570  -19.3090   55.9950 N.3   173  PRO173     -0.2102
     73  CA        39.9740  -18.0230   56.4430 C.3   173  PRO173      0.1504
     74  C         38.5640  -17.6750   55.9510 C.2   173  PRO173      0.2576
     75  O         37.8370  -17.0080   56.6870 O.2   173  PRO173     -0.2718
     76  CB        40.9830  -16.9780   55.9580 C.3   173  PRO173      0.0282
     77  CG        41.8140  -17.6640   54.9280 C.3   173  PRO173      0.0208
     78  CD        41.7930  -19.1230   55.2060 C.3   173  PRO173      0.0893
     79  N         38.1810  -18.1030   54.7560 N.am  174  GLY174     -0.1943
     80  CA        36.8770  -17.7620   54.2000 C.3   174  GLY174      0.2014
     81  C         36.9520  -16.4400   53.4780 C.2   174  GLY174      0.2638
     82  O         38.0350  -15.8860   53.2920 O.2   174  GLY174     -0.2714
     83  N         35.8040  -15.9500   53.0390 N.am  175  VAL175     -0.1977
     84  CA        35.6530  -14.6810   52.3440 C.3   175  VAL175      0.1596
     85  C         34.4840  -13.9520   53.0420 C.2   175  VAL175      0.2287
     86  O         33.4930  -14.5800   53.3900 O.2   175  VAL175     -0.2864
     87  CB        35.4440  -14.9080   50.8150 C.3   175  VAL175      0.0276
     88  CG1       35.2540  -13.6000   50.0630 C.3   175  VAL175      0.0022
     89  CG2       36.6130  -15.6700   50.2170 C.3   175  VAL175      0.0022
     90  N         33.4080  -12.2520   44.2000 N.3   183  ILE183     -0.1245
     91  CA        34.4070  -13.3250   44.0940 C.3   183  ILE183      0.1561
     92  C         34.4620  -13.9710   42.6700 C.2   183  ILE183      0.2260
     93  O         35.5480  -14.3710   42.2430 O.2   183  ILE183     -0.2867
     94  CB        34.1800  -14.3720   45.2240 C.3   183  ILE183      0.0252
     95  CG1       35.4710  -15.0720   45.6070 C.3   183  ILE183      0.0019
     96  CG2       33.0130  -15.3530   44.9720 C.3   183  ILE183      0.0019
     97  CD1       35.3690  -16.0620   46.7490 C.3   183  ILE183      0.0001
     98  N         38.9450  -10.2150   39.9090 N.3   188  TYR188     -0.1227
     99  CA        38.6960   -9.8920   41.3190 C.3   188  TYR188      0.1736
    100  C         39.5040  -10.8140   42.2270 C.2   188  TYR188      0.2595
    101  O         39.4720  -12.0400   42.0820 O.2   188  TYR188     -0.2718
    102  CB        37.1950   -9.9500   41.7150 C.3   188  TYR188      0.0548
    103  CG        36.9310   -9.4760   43.1380 C.ar  188  TYR188     -0.0200
    104  CD1       36.9950  -10.3620   44.2170 C.ar  188  TYR188     -0.0009
    105  CD2       36.6630   -8.1360   43.4120 C.ar  188  TYR188     -0.0009
    106  CE1       36.8180   -9.9200   45.5320 C.ar  188  TYR188      0.0417
    107  CE2       36.4480   -7.6900   44.7200 C.ar  188  TYR188      0.0417
    108  CZ        36.5220   -8.5860   45.7760 C.ar  188  TYR188      0.1957
    109  OH        36.3120   -8.1540   47.0620 O.3   188  TYR188     -0.2866
    110  N         40.2150  -10.1970   43.1740 N.am  189  ARG189     -0.1966
    111  CA        41.0260  -10.8610   44.1910 C.3   189  ARG189      0.1729
    112  C         40.8090  -10.1460   45.5140 C.2   189  ARG189      0.2616
    113  O         40.8430   -8.9190   45.5400 O.2   189  ARG189     -0.2715
    114  CB        42.5180  -10.8460   43.7930 C.3   189  ARG189      0.0348
    115  CG        42.8350  -11.5050   42.4430 C.3   189  ARG189      0.0492
    116  CD        44.1940  -12.1640   42.4140 C.3   189  ARG189      0.2205
    117  NE        45.2680  -11.1750   42.3930 N.pl3 189  ARG189     -0.0865
    118  CZ        46.4140  -11.2990   43.0510 C.cat 189  ARG189      0.5346
    119  NH1       46.6490  -12.3750   43.7930 N.pl3 189  ARG189      0.1354
    120  NH2       47.3370  -10.3500   42.9710 N.pl3 189  ARG189      0.1354
    121  N         40.5660  -10.8850   46.6080 N.am  190  THR190     -0.1951
    122  CA        40.3970  -10.2810   47.9460 C.3   190  THR190      0.1897
    123  C         41.7600   -9.7720   48.4270 C.2   190  THR190      0.2313
    124  O         42.7910  -10.2620   47.9440 O.2   190  THR190     -0.2863
    125  CB        39.7620  -11.2610   48.9620 C.3   190  THR190      0.1794
    126  OG1       40.6230  -12.3780   49.1810 O.3   190  THR190     -0.2208
    127  CG2       38.3750  -11.7310   48.5570 C.3   190  THR190      0.0378
    128  N         43.3650  -10.3700   51.0950 N.3   192  GLU192     -0.1231
    129  CA        44.0760  -11.5300   51.6530 C.3   192  GLU192      0.1699
    130  C         44.9920  -12.1490   50.5850 C.2   192  GLU192      0.2592
    131  O         46.1850  -12.3230   50.8210 O.2   192  GLU192     -0.2718
    132  CB        43.0820  -12.6100   52.1610 C.3   192  GLU192      0.0402
    133  CG        41.9000  -12.1150   52.9910 C.3   192  GLU192      0.1161
    134  CD        40.7510  -13.1040   53.1190 C.2   192  GLU192      0.3649
    135  OE1       40.0480  -13.3410   52.1070 O.co2 192  GLU192     -0.2457
    136  OE2       40.5400  -13.6250   54.2410 O.co2 192  GLU192     -0.2457
    137  N         44.4230  -12.4400   49.3970 N.am  193  ALA193     -0.1980
    138  CA        45.1210  -13.0300   48.2570 C.3   193  ALA193      0.1597
    139  C         46.1280  -12.0800   47.6360 C.2   193  ALA193      0.2287
    140  O         47.1370  -12.5620   47.1350 O.2   193  ALA193     -0.2864
    141  CB        44.1290  -13.4680   47.2040 C.3   193  ALA193      0.0319
    142  N         49.9230  -13.6520   43.8160 N.3   199  GLY199     -0.1210
    143  CA        49.8370  -14.8280   42.9670 C.3   199  GLY199      0.1956
    144  C         48.4130  -15.0750   42.5310 C.2   199  GLY199      0.2612
    145  O         47.4950  -15.1060   43.3670 O.2   199  GLY199     -0.2717
    146  N         48.2280  -15.2330   41.2220 N.am  200  GLY200     -0.1942
    147  CA        46.9120  -15.5060   40.6770 C.3   200  GLY200      0.2014
    148  C         46.3410  -14.3840   39.8470 C.2   200  GLY200      0.2640
    149  O         46.5310  -13.2030   40.1370 O.2   200  GLY200     -0.2714
    150  N         45.5950  -14.7730   38.8320 N.am  201  THR201     -0.1936
    151  CA        44.9710  -13.8980   37.8540 C.3   201  THR201      0.2028
    152  C         43.6000  -13.3100   38.3150 C.2   201  THR201      0.2642
    153  O         43.2290  -12.2300   37.8510 O.2   201  THR201     -0.2714
    154  CB        44.8010  -14.6840   36.5320 C.3   201  THR201      0.1808
    155  OG1       43.8880  -15.7680   36.7160 O.3   201  THR201     -0.2208
    156  CG2       46.1100  -15.2660   36.0230 C.3   201  THR201      0.0379
    157  N         42.8660  -14.0240   39.1790 N.am  202  GLY202     -0.1954
    158  CA        41.5150  -13.6680   39.6120 C.3   202  GLY202      0.1869
    159  C         40.4490  -14.0970   38.5990 C.2   202  GLY202      0.2309
    160  O         39.2760  -13.7060   38.7080 O.2   202  GLY202     -0.2863
    161  N         39.9900  -17.5400   37.7090 N.3   204  GLY204     -0.1210
    162  CA        39.5490  -18.8820   38.0790 C.3   204  GLY204      0.1956
    163  C         38.0600  -19.0390   38.2890 C.2   204  GLY204      0.2611
    164  O         37.4180  -19.8180   37.5750 O.2   204  GLY204     -0.2717
    165  N         37.4940  -18.2790   39.2390 N.am  205  LEU205     -0.1979
    166  CA        36.0690  -18.3490   39.5840 C.3   205  LEU205      0.1596
    167  C         35.1740  -17.7240   38.5230 C.2   205  LEU205      0.2287
    168  O         33.9980  -18.0980   38.4410 O.2   205  LEU205     -0.2864
    169  CB        35.7850  -17.7430   40.9690 C.3   205  LEU205      0.0297
    170  CG        36.2860  -18.6010   42.1800 C.3   205  LEU205      0.0022
    171  CD1       35.8850  -17.9840   43.5000 C.3   205  LEU205      0.0001
    172  CD2       35.7720  -20.0550   42.0950 C.3   205  LEU205      0.0001
    173  N         35.6550  -21.1480   53.2620 N.3   229  LEU229     -0.1245
    174  CA        34.7460  -20.8770   52.1670 C.3   229  LEU229      0.1561
    175  C         34.0440  -22.1500   51.6970 C.2   229  LEU229      0.2260
    176  O         34.6460  -23.2240   51.6260 O.2   229  LEU229     -0.2867
    177  CB        35.4920  -20.1920   50.9980 C.3   229  LEU229      0.0270
    178  CG        34.6060  -19.6620   49.8500 C.3   229  LEU229      0.0019
    179  CD1       33.8080  -18.4320   50.2830 C.3   229  LEU229      0.0001
    180  CD2       35.4390  -19.3740   48.6220 C.3   229  LEU229      0.0001
@<TRIPOS>BOND
     1   156   154    1
     2   154   155    1
     3   154   151    1
     4     8     6   am
     5     7     6    2
     6   164   163    2
     7   161   162    1
     8     6     5    1
     9   153   152    2
    10   151   152    1
    11   151   150    1
    12   162   163    1
    13   163   165   am
    14   152   157   am
    15   168   167    2
    16   167   166    1
    17   159   160    2
    18   159   158    1
    19   150   148   am
    20     5     2    1
    21    26    25    1
    22   157   158    1
    23   165   166    1
    24   166   169    1
    25     1     2    1
    26   148   149    2
    27   148   147    1
    28    98    99    1
    29     2     3    1
    30    25    27    1
    31    25    24    2
    32   147   146    1
    33   169   170    1
    34    24    23    1
    35    23    22    1
    36   146   144   am
    37    99   102    1
    38    99   100    1
    39     3     9   am
    40     3     4    2
    41   102   103    1
    42     9    10    1
    43   101   100    2
    44    16    14    1
    45   172   170    1
    46    22    21    1
    47    14    13    1
    48   170   171    1
    49   100   110   am
    50    93    92    2
    51   117   116    1
    52   117   118    2
    53   116   115    1
    54   115   114    1
    55   144   143    1
    56   144   145    2
    57    21    18    1
    58    51    49    1
    59    92    91    1
    60   143   142    1
    61   120   118    1
    62   118   119    1
    63   103   105   ar
    64   103   104   ar
    65    10    13    1
    66    10    11    1
    67   110   111    1
    68    13    15    1
    69   105   107   ar
    70    35    33   am
    71   114   111    1
    72    49    48    2
    73    49    50    1
    74    17    18    1
    75    34    33    2
    76    18    19    1
    77    91    90    1
    78    91    94    1
    79   111   112    1
    80    11    12    2
    81   104   106   ar
    82    48    47    1
    83    33    32    1
    84   107   108   ar
    85    19    28   am
    86    19    20    2
    87    96    94    1
    88    28    29    1
    89    94    95    1
    90   112   113    2
    91   112   121   am
    92   106   108   ar
    93    32    29    1
    94    47    46    1
    95    95    97    1
    96   108   109    1
    97    29    30    1
    98    46    45    1
    99   121   122    1
   100    63    62    1
   101   140   139    2
   102   141   138    1
   103    30    36   am
   104    30    31    2
   105    61    62   ar
   106    61    59   ar
   107    36    37    1
   108   139   138    1
   109    45    42    1
   110    62    60   ar
   111   124   123    2
   112   122   123    1
   113   122   125    1
   114   138   137    1
   115    41    42    1
   116    59    57   ar
   117   127   125    1
   118   180   178    1
   119    40    37    1
   120    37    38    1
   121    42    43    1
   122   125   126    1
   123    60    58   ar
   124    38    39    2
   125   137   130   am
   126    57    58   ar
   127    57    56    1
   128   178   179    1
   129   178   177    1
   130    88    87    1
   131    43    52   am
   132    43    44    2
   133    89    87    1
   134    52    53    1
   135   130   131    2
   136   130   129    1
   137    87    84    1
   138    56    53    1
   139   177   174    1
   140   128   129    1
   141    71    69   ar
   142    53    54    1
   143   176   175    2
   144   129   132    1
   145   175   174    1
   146   135   134   ar
   147   132   133    1
   148   174   173    1
   149    84    83    1
   150    84    85    1
   151    69    68    1
   152    69    70   ar
   153    68    65    1
   154    54    55    2
   155   133   134    1
   156    83    81   am
   157    64    65    1
   158    85    86    2
   159   134   136   ar
   160    82    81    2
   161    81    80    1
   162    65    66    1
   163    80    79    1
   164    79    74   am
   165    77    78    1
   166    77    76    1
   167    66    67    2
   168    78    72    1
   169    74    73    1
   170    74    75    2
   171    76    73    1
   172    72    73    1
