@<TRIPOS>MOLECULE
tmp/4bj0A00.pdb
 166 159 0 0 0
SMALL
GASTEIGER

@<TRIPOS>ATOM
      1  N        -14.8290  -23.1220    8.9240 N.3    28  ASP28      -0.1239
      2  CA       -13.7930  -23.4800    7.9640 C.3    28  ASP28       0.1674
      3  C        -12.7970  -22.3540    7.9250 C.2    28  ASP28       0.2266
      4  O        -13.1650  -21.2080    7.6200 O.2    28  ASP28      -0.2867
      5  CB       -14.4300  -23.6070    6.5540 C.3    28  ASP28       0.1410
      6  CG       -13.4490  -23.7150    5.4020 C.2    28  ASP28       0.3668
      7  OD1      -12.3020  -23.7410    5.5240 O.co2  28  ASP28      -0.2456
      8  OD2      -14.0010  -23.7500    4.2790 O.co2  28  ASP28      -0.2456
      9  N         -9.6850  -22.5810    6.1560 N.3    30  ASN30      -0.1240
     10  CA        -8.6940  -22.8540    5.1180 C.3    30  ASN30       0.1653
     11  C         -8.1050  -21.5750    4.5290 C.2    30  ASN30       0.2266
     12  O         -8.7970  -20.5510    4.2940 O.2    30  ASN30      -0.2867
     13  CB        -9.3370  -23.6760    4.0080 C.3    30  ASN30       0.1155
     14  CG        -9.5260  -25.0880    4.3620 C.2    30  ASN30       0.2627
     15  OD1       -8.6940  -25.7040    4.9850 O.2    30  ASN30      -0.2716
     16  ND2      -10.5650  -25.6770    3.8310 N.am   30  ASN30      -0.0877
     17  N         -6.7210  -12.1870   -2.9500 N.3    66  ASN66      -0.1226
     18  CA        -8.0010  -11.6460   -2.5950 C.3    66  ASN66       0.1770
     19  C         -8.1010  -11.6200   -1.1040 C.2    66  ASN66       0.2439
     20  O         -7.5810  -12.5220   -0.4130 O.2    66  ASN66      -0.2733
     21  CB        -9.1550  -12.4800   -3.1760 C.3    66  ASN66       0.1168
     22  CG        -9.2150  -12.2730   -4.6380 C.2    66  ASN66       0.2627
     23  OD1       -9.7070  -11.1910   -5.0850 O.2    66  ASN66      -0.2716
     24  ND2       -8.8330  -13.2520   -5.4050 N.am   66  ASN66      -0.0877
     25  N         -8.8870  -10.6960   -0.5170 N.am   67  PRO67      -0.2718
     26  CA        -9.0030  -10.6800    0.9560 C.3    67  PRO67       0.1535
     27  C         -9.6360  -11.8800    1.5590 C.2    67  PRO67       0.2598
     28  O         -9.4670  -12.1460    2.7340 O.2    67  PRO67      -0.2715
     29  CB        -9.7530   -9.3810    1.2300 C.3    67  PRO67       0.0310
     30  CG        -9.4020   -8.4880    0.0490 C.3    67  PRO67       0.0237
     31  CD        -9.3870   -9.4380   -1.1440 C.3    67  PRO67       0.0939
     32  N        -10.4030  -12.6520    0.7670 N.am   68  PHE68      -0.1974
     33  CA       -11.0010  -13.8690    1.2450 C.3    68  PHE68       0.1639
     34  C        -10.0000  -15.0160    1.4090 C.2    68  PHE68       0.2290
     35  O        -10.3740  -16.0730    1.9480 O.2    68  PHE68      -0.2864
     36  CB       -12.2070  -14.3000    0.3720 C.3    68  PHE68       0.0560
     37  CG       -11.9120  -14.6050   -1.0650 C.ar   68  PHE68      -0.0200
     38  CD1      -11.2780  -15.7880   -1.4440 C.ar   68  PHE68      -0.0042
     39  CD2      -12.3070  -13.7440   -2.0760 C.ar   68  PHE68      -0.0042
     40  CE1      -11.0820  -16.0780   -2.7720 C.ar   68  PHE68      -0.0003
     41  CE2      -12.1020  -14.0840   -3.4100 C.ar   68  PHE68      -0.0003
     42  CZ       -11.4960  -15.2320   -3.7560 C.ar   68  PHE68      -0.0000
     43  N         -9.4460  -16.1970    6.1270 N.3    71  GLN71      -0.1245
     44  CA       -10.9080  -16.1810    6.3020 C.3    71  GLN71       0.1566
     45  C        -11.2940  -17.1520    7.3770 C.2    71  GLN71       0.2260
     46  O        -10.6120  -18.1510    7.6700 O.2    71  GLN71      -0.2867
     47  CB       -11.5770  -16.5000    4.9830 C.3    71  GLN71       0.0367
     48  CG       -11.2180  -17.8910    4.4800 C.3    71  GLN71       0.0905
     49  CD       -12.1390  -18.9660    4.9860 C.2    71  GLN71       0.2608
     50  OE1      -13.2780  -18.6920    5.3430 O.2    71  GLN71      -0.2717
     51  NE2      -11.6760  -20.2160    4.9840 N.am   71  GLN71      -0.0878
     52  N        -15.0820  -19.0090    7.9030 N.3    73  THR73      -0.1218
     53  CA       -16.4320  -19.1300    7.4090 C.3    73  THR73       0.1862
     54  C        -17.2430  -20.0120    8.3450 C.2    73  THR73       0.2287
     55  O        -16.8870  -21.1800    8.5430 O.2    73  THR73      -0.2866
     56  CB       -16.4690  -19.6910    6.0030 C.3    73  THR73       0.1770
     57  OG1      -15.8540  -18.7850    5.1090 O.3    73  THR73      -0.2211
     58  CG2      -17.8840  -19.9520    5.4960 C.3    73  THR73       0.0375
     59  N        -14.1820   -7.6940    6.6550 N.3   101  SER101     -0.1217
     60  CA       -15.5050   -7.7440    6.0560 C.3   101  SER101      0.1889
     61  C        -16.2600   -8.9550    6.6050 C.2   101  SER101      0.2288
     62  O        -15.7360  -10.0740    6.6170 O.2   101  SER101     -0.2866
     63  CB       -15.4750   -7.7890    4.5320 C.3   101  SER101      0.2089
     64  OG       -14.9630   -6.5860    4.0280 O.3   101  SER101     -0.2183
     65  N        -19.4840  -11.2380    6.0770 N.3   103  THR103     -0.1218
     66  CA       -20.3620  -11.5090    4.9350 C.3   103  THR103      0.1862
     67  C        -21.2160  -12.7550    5.2240 C.2   103  THR103      0.2287
     68  O        -20.8970  -13.6030    6.0440 O.2   103  THR103     -0.2866
     69  CB       -19.5900  -11.6990    3.6150 C.3   103  THR103      0.1770
     70  OG1      -19.1190  -13.0340    3.4570 O.3   103  THR103     -0.2211
     71  CG2      -18.4210  -10.7090    3.4730 C.3   103  THR103      0.0375
     72  N        -22.8590  -21.2930   -3.5250 N.3   108  SER108     -0.1202
     73  CA       -22.5270  -20.6790   -4.9020 C.3   108  SER108      0.2020
     74  C        -21.6720  -19.4570   -4.7460 C.2   108  SER108      0.2619
     75  O        -21.3230  -18.9060   -5.7780 O.2   108  SER108     -0.2717
     76  CB       -23.7850  -20.2540   -5.8270 C.3   108  SER108      0.2103
     77  OG       -24.6460  -21.3330   -6.0260 O.3   108  SER108     -0.2182
     78  N        -21.4860  -18.9580   -3.5380 N.am  109  PHE109     -0.1961
     79  CA       -20.7430  -17.7300   -3.2700 C.3   109  PHE109      0.1771
     80  C        -21.5030  -16.4460   -3.5300 C.2   109  PHE109      0.2620
     81  O        -20.9360  -15.3610   -3.3730 O.2   109  PHE109     -0.2715
     82  CB       -19.3590  -17.7120   -3.8680 C.3   109  PHE109      0.0574
     83  CG       -18.5180  -18.9120   -3.5280 C.ar  109  PHE109     -0.0200
     84  CD1      -18.1000  -19.1500   -2.2220 C.ar  109  PHE109     -0.0042
     85  CD2      -18.0990  -19.7920   -4.5010 C.ar  109  PHE109     -0.0042
     86  CE1      -17.3240  -20.2420   -1.9090 C.ar  109  PHE109     -0.0003
     87  CE2      -17.3200  -20.8850   -4.1900 C.ar  109  PHE109     -0.0003
     88  CZ       -16.8980  -21.1280   -2.8930 C.ar  109  PHE109     -0.0000
     89  N        -22.8020  -16.5360   -3.8320 N.am  110  ASP110     -0.1957
     90  CA       -23.6040  -15.3170   -3.9230 C.3   110  ASP110      0.1840
     91  C        -23.8920  -14.7980   -2.5110 C.2   110  ASP110      0.2621
     92  O        -24.2220  -15.5600   -1.6410 O.2   110  ASP110     -0.2715
     93  CB       -24.9860  -15.5730   -4.5660 C.3   110  ASP110      0.1450
     94  CG       -24.9830  -16.2220   -5.8540 C.2   110  ASP110      0.3671
     95  OD1      -24.2810  -15.7890   -6.7280 O.co2 110  ASP110     -0.2456
     96  OD2      -25.7730  -17.2540   -5.9740 O.co2 110  ASP110     -0.2456
     97  N        -23.7160  -13.4950   -2.3000 N.am  111  GLU111     -0.1977
     98  CA       -23.9130  -12.9140   -1.0110 C.3   111  GLU111      0.1602
     99  C        -25.3280  -12.4330   -0.8580 C.2   111  GLU111      0.2287
    100  O        -25.9650  -11.8740   -1.7090 O.2   111  GLU111     -0.2864
    101  CB       -23.0080  -11.7370   -0.7470 C.3   111  GLU111      0.0415
    102  CG       -21.6240  -12.1510   -0.2540 C.3   111  GLU111      0.1163
    103  CD       -20.6150  -11.0340   -0.1150 C.2   111  GLU111      0.3649
    104  OE1      -21.0440   -9.8530    0.0450 O.co2 111  GLU111     -0.2457
    105  OE2      -19.4810  -11.3320   -0.0460 O.co2 111  GLU111     -0.2457
    106  N        -23.5580   -7.9490    3.6450 N.3   114  ARG114     -0.1245
    107  CA       -22.2640   -7.8330    4.3200 C.3   114  ARG114      0.1563
    108  C        -22.2070   -6.5450    5.0750 C.2   114  ARG114      0.2260
    109  O        -22.9200   -5.5710    4.7830 O.2   114  ARG114     -0.2867
    110  CB       -21.0670   -7.9200    3.3770 C.3   114  ARG114      0.0307
    111  CG       -20.9990   -6.8090    2.3340 C.3   114  ARG114      0.0489
    112  CD       -19.5990   -6.6670    1.7540 C.3   114  ARG114      0.2205
    113  NE       -19.1540   -7.8760    1.0790 N.pl3 114  ARG114     -0.0865
    114  CZ       -17.8940   -8.1850    0.8730 C.cat 114  ARG114      0.5346
    115  NH1      -16.9060   -7.3830    1.2530 N.pl3 114  ARG114      0.1354
    116  NH2      -17.5980   -9.3320    0.2840 N.pl3 114  ARG114      0.1354
    117  N        -19.0980   -4.2350    4.9820 N.3   116  HIS116     -0.1241
    118  CA       -17.9140   -4.1500    4.1360 C.3   116  HIS116      0.1621
    119  C        -16.7840   -3.3470    4.8150 C.2   116  HIS116      0.2264
    120  O        -17.0090   -2.2310    5.2820 O.2   116  HIS116     -0.2867
    121  CB       -18.2670   -3.4360    2.8320 C.3   116  HIS116      0.0745
    122  CG       -17.1340   -3.3930    1.8950 C.ar  116  HIS116      0.0817
    123  ND1      -16.6010   -4.5370    1.3920 N.ar  116  HIS116     -0.2268
    124  CD2      -16.4130   -2.3460    1.4220 C.ar  116  HIS116      0.1154
    125  CE1      -15.5750   -4.1720    0.6570 C.ar  116  HIS116      0.1986
    126  NE2      -15.4500   -2.8370    0.6410 N.ar  116  HIS116     -0.2212
    127  N        -23.6990  -19.9970    4.4100 N.3   141  ARG141     -0.1245
    128  CA       -22.3750  -19.7990    4.9090 C.3   141  ARG141      0.1563
    129  C        -22.2110  -18.3770    5.4310 C.2   141  ARG141      0.2260
    130  O        -22.8880  -17.4680    4.9340 O.2   141  ARG141     -0.2867
    131  CB       -21.4010  -19.8800    3.6330 C.3   141  ARG141      0.0307
    132  CG       -21.4340  -21.1110    2.8750 C.3   141  ARG141      0.0489
    133  CD       -20.4740  -22.0790    3.4790 C.3   141  ARG141      0.2205
    134  NE       -20.3520  -23.3190    2.7170 N.pl3 141  ARG141     -0.0865
    135  CZ       -19.6010  -23.4940    1.6160 C.cat 141  ARG141      0.5346
    136  NH1      -18.8600  -22.5300    1.0450 N.pl3 141  ARG141      0.1354
    137  NH2      -19.6060  -24.6290    1.1400 N.pl3 141  ARG141      0.1354
    138  N        -18.9710  -16.1400    5.5760 N.3   143  PRO143     -0.2116
    139  CA       -17.5390  -15.8730    5.4170 C.3   143  PRO143      0.1372
    140  C        -17.0960  -14.5440    6.0390 C.2   143  PRO143      0.2244
    141  O        -17.5930  -13.4760    5.6350 O.2   143  PRO143     -0.2868
    142  CB       -17.3140  -15.8870    3.8920 C.3   143  PRO143      0.0268
    143  CG       -18.5380  -16.5670    3.3080 C.3   143  PRO143      0.0207
    144  CD       -19.6530  -16.1480    4.2650 C.3   143  PRO143      0.0892
    145  N        -13.7700  -12.1540    6.2020 N.3   145  HIS145     -0.1241
    146  CA       -12.5530  -11.9480    5.4230 C.3   145  HIS145      0.1621
    147  C        -11.5600  -11.0630    6.1900 C.2   145  HIS145      0.2264
    148  O        -11.8940   -9.9410    6.5710 O.2   145  HIS145     -0.2867
    149  CB       -12.8710  -11.3140    4.0830 C.3   145  HIS145      0.0745
    150  CG       -13.7810  -12.1360    3.2400 C.ar  145  HIS145      0.0817
    151  ND1      -14.5650  -11.6100    2.2600 N.ar  145  HIS145     -0.2268
    152  CD2      -14.0090  -13.4910    3.2830 C.ar  145  HIS145      0.1154
    153  CE1      -15.2180  -12.6150    1.7060 C.ar  145  HIS145      0.1986
    154  NE2      -14.9200  -13.7650    2.3030 N.ar  145  HIS145     -0.2212
    155  N         -6.7700   -8.5380    4.2470 N.3   148  TYR148     -0.1241
    156  CA        -6.4630   -7.1890    3.7800 C.3   148  TYR148      0.1605
    157  C         -5.0450   -6.8330    4.1660 C.2   148  TYR148      0.2264
    158  O         -4.6340   -7.1080    5.2820 O.2   148  TYR148     -0.2867
    159  CB        -7.4440   -6.1720    4.4090 C.3   148  TYR148      0.0534
    160  CG        -8.8690   -6.3960    3.9720 C.ar  148  TYR148     -0.0201
    161  CD1       -9.3460   -5.8690    2.7770 C.ar  148  TYR148     -0.0009
    162  CD2       -9.7440   -7.1780    4.7250 C.ar  148  TYR148     -0.0009
    163  CE1      -10.6410   -6.0990    2.3190 C.ar  148  TYR148      0.0417
    164  CE2      -11.0250   -7.4320    4.3050 C.ar  148  TYR148      0.0417
    165  CZ       -11.4830   -6.9110    3.0870 C.ar  148  TYR148      0.1957
    166  OH       -12.7470   -7.2280    2.6780 O.3   148  TYR148     -0.2866
@<TRIPOS>BOND
     1    95    94   ar
     2    77    76    1
     3    96    94   ar
     4    94    93    1
     5    76    73    1
     6    75    74    2
     7    24    22   am
     8    23    22    2
     9    73    74    1
    10    73    72    1
    11    74    78   am
    12    22    21    1
    13    93    90    1
    14    85    87   ar
    15    85    83   ar
    16    87    88   ar
    17    90    89    1
    18    90    91    1
    19    82    83    1
    20    82    79    1
    21    89    80   am
    22    42    41   ar
    23    42    40   ar
    24    78    79    1
    25    80    81    2
    26    80    79    1
    27    83    84   ar
    28    41    39   ar
    29    21    18    1
    30    17    18    1
    31    88    86   ar
    32    40    38   ar
    33    18    19    1
    34    91    97   am
    35    91    92    2
    36    97    98    1
    37    84    86   ar
    38    39    37   ar
    39   100    99    2
    40    38    37   ar
    41    31    25    1
    42    31    30    1
    43    19    25   am
    44    19    20    2
    45    37    36    1
    46    98    99    1
    47    98   101    1
    48   101   102    1
    49    25    26    1
    50   102   103    1
    51   103   105   ar
    52   103   104   ar
    53    30    29    1
    54   116   114    1
    55    36    33    1
    56   126   125   ar
    57   126   124   ar
    58   125   123   ar
    59    32    33    1
    60    32    27   am
    61   114   113    2
    62   114   115    1
    63    26    29    1
    64    26    27    1
    65   136   135    1
    66   113   112    1
    67   137   135    1
    68    33    34    1
    69   123   122   ar
    70    34    35    2
    71   124   122   ar
    72    27    28    2
    73   135   134    2
    74   153   151   ar
    75   153   154   ar
    76   112   111    1
    77   122   121    1
    78   151   150   ar
    79   154   152   ar
    80   163   161   ar
    81   163   165   ar
    82   111   110    1
    83   166   165    1
    84   134   133    1
    85   161   160   ar
    86   121   118    1
    87   132   133    1
    88   132   131    1
    89   165   164   ar
    90   150   152   ar
    91   150   149    1
    92   143   142    1
    93   143   144    1
    94   110   107    1
    95    70    69    1
    96    71    69    1
    97    69    66    1
    98   131   128    1
    99   106   107    1
   100   156   157    1
   101   156   155    1
   102   156   159    1
   103    16    14   am
   104   142   139    1
   105   160   159    1
   106   160   162   ar
   107    13    14    1
   108    13    10    1
   109    64    63    1
   110   149   146    1
   111   118   119    1
   112   118   117    1
   113   157   158    2
   114   144   138    1
   115     8     6   ar
   116    12    11    2
   117   164   162   ar
   118   107   108    1
   119    14    15    2
   120   127   128    1
   121    48    47    1
   122    48    49    1
   123    11    10    1
   124    63    60    1
   125   109   108    2
   126   119   120    2
   127   128   129    1
   128   130   129    2
   129    66    67    1
   130    66    65    1
   131    47    44    1
   132    51    49   am
   133    49    50    2
   134    57    56    1
   135    10     9    1
   136    67    68    2
   137     6     7   ar
   138     6     5    1
   139   139   138    1
   140   139   140    1
   141   146   147    1
   142   146   145    1
   143    58    56    1
   144   141   140    2
   145    56    53    1
   146    60    61    1
   147    60    59    1
   148    43    44    1
   149   147   148    2
   150    44    45    1
   151     5     2    1
   152    61    62    2
   153    45    46    2
   154    53    52    1
   155    53    54    1
   156     4     3    2
   157     3     2    1
   158     2     1    1
   159    54    55    2
