@<TRIPOS>MOLECULE
tmp/4bj5C00.pdb
 190 185 0 0 0
SMALL
GASTEIGER

@<TRIPOS>ATOM
      1  N        -51.5250   -3.2280   22.4680 N.3    50  ILE50      -0.1231
      2  CA       -52.6240   -3.6010   23.3570 C.3    50  ILE50       0.1692
      3  C        -53.5390   -4.6480   22.6750 C.2    50  ILE50       0.2593
      4  O        -53.9370   -5.6330   23.3100 O.2    50  ILE50      -0.2718
      5  CB       -53.3710   -2.2800   23.7660 C.3    50  ILE50       0.0266
      6  CG1      -52.6340   -1.5390   24.9010 C.3    50  ILE50       0.0019
      7  CG2      -54.8560   -2.4250   24.0850 C.3    50  ILE50       0.0020
      8  CD1      -52.3190   -2.3410   26.1900 C.3    50  ILE50       0.0001
      9  N        -53.7860   -4.4750   21.3660 N.am   51  SER51      -0.1938
     10  CA       -54.6370   -5.3470   20.5600 C.3    51  SER51       0.2055
     11  C        -53.9280   -6.6530   20.0910 C.2    51  SER51       0.2644
     12  O        -54.4070   -7.3250   19.1720 O.2    51  SER51      -0.2714
     13  CB       -55.1870   -4.5710   19.3700 C.3    51  SER51       0.2130
     14  OG       -55.9420   -3.4530   19.8170 O.3    51  SER51      -0.2179
     15  N        -52.8490   -7.0350   20.7710 N.am   52  GLY52      -0.1939
     16  CA       -52.1480   -8.2860   20.5030 C.3    52  GLY52       0.2014
     17  C        -52.9230   -9.4790   21.0420 C.2    52  GLY52       0.2639
     18  O        -53.8390   -9.3120   21.8620 O.2    52  GLY52      -0.2714
     19  N        -52.5610  -10.6980   20.5910 N.am   53  ASP53      -0.1957
     20  CA       -53.2300  -11.9350   21.0200 C.3    53  ASP53       0.1840
     21  C        -52.5450  -12.5490   22.2700 C.2    53  ASP53       0.2622
     22  O        -52.0420  -13.6840   22.2390 O.2    53  ASP53      -0.2715
     23  CB       -53.3240  -12.9510   19.8590 C.3    53  ASP53       0.1450
     24  CG       -54.6210  -12.8730   19.0660 C.2    53  ASP53       0.3671
     25  OD1      -55.0210  -11.7460   18.6810 O.co2  53  ASP53      -0.2456
     26  OD2      -55.2240  -13.9370   18.8100 O.co2  53  ASP53      -0.2456
     27  N        -52.5610  -11.7810   23.3800 N.am   54  TYR54      -0.1960
     28  CA       -51.9970  -12.2030   24.6590 C.3    54  TYR54       0.1771
     29  C        -52.9740  -13.1020   25.4050 C.2    54  TYR54       0.2619
     30  O        -54.1880  -12.8980   25.3250 O.2    54  TYR54      -0.2715
     31  CB       -51.6520  -10.9900   25.5550 C.3    54  TYR54       0.0574
     32  CG       -50.6530  -10.0010   24.9870 C.ar   54  TYR54      -0.0198
     33  CD1      -49.2810  -10.2260   25.0910 C.ar   54  TYR54      -0.0009
     34  CD2      -51.0740   -8.7890   24.4460 C.ar   54  TYR54      -0.0009
     35  CE1      -48.3540   -9.3020   24.6030 C.ar   54  TYR54       0.0417
     36  CE2      -50.1580   -7.8590   23.9510 C.ar   54  TYR54       0.0417
     37  CZ       -48.7980   -8.1170   24.0380 C.ar   54  TYR54       0.1957
     38  OH       -47.8980   -7.2050   23.5490 O.3    54  TYR54      -0.2866
     39  N        -52.4390  -14.0880   26.1360 N.am   55  GLU55      -0.1964
     40  CA       -53.1920  -14.9680   27.0240 C.3    55  GLU55       0.1718
     41  C        -53.1310  -14.3200   28.4140 C.2    55  GLU55       0.2458
     42  O        -52.1610  -13.6050   28.6640 O.2    55  GLU55      -0.2730
     43  CB       -52.6130  -16.3880   27.0090 C.3    55  GLU55       0.0428
     44  CG       -53.5560  -17.4300   26.4230 C.3    55  GLU55       0.1163
     45  CD       -53.8980  -17.3240   24.9460 C.2    55  GLU55       0.3649
     46  OE1      -53.0080  -16.9650   24.1390 O.co2  55  GLU55      -0.2457
     47  OE2      -55.0620  -17.6220   24.5930 O.co2  55  GLU55      -0.2457
     48  N        -54.1230  -14.4940   29.3210 N.am   56  PRO56      -0.2716
     49  CA       -54.0850  -13.7730   30.6170 C.3    56  PRO56       0.1536
     50  C        -52.7930  -13.8820   31.4650 C.2    56  PRO56       0.2599
     51  O        -52.5510  -13.0060   32.3010 O.2    56  PRO56      -0.2715
     52  CB       -55.2670  -14.3700   31.3730 C.3    56  PRO56       0.0310
     53  CG       -56.2280  -14.7270   30.3000 C.3    56  PRO56       0.0237
     54  CD       -55.3830  -15.2520   29.1780 C.3    56  PRO56       0.0939
     55  N        -51.9620  -14.9160   31.2490 N.am   57  SER57      -0.1936
     56  CA       -50.7050  -15.1160   31.9860 C.3    57  SER57       0.2055
     57  C        -49.6020  -14.1120   31.5760 C.2    57  SER57       0.2643
     58  O        -48.9070  -13.5730   32.4450 O.2    57  SER57      -0.2714
     59  CB       -50.1940  -16.5380   31.7670 C.3    57  SER57       0.2130
     60  OG       -49.9000  -16.7810   30.3990 O.3    57  SER57      -0.2179
     61  N        -49.4590  -13.8940   30.2390 N.am   58  GLN58      -0.1963
     62  CA       -48.4800  -13.0770   29.4990 C.3    58  GLN58       0.1733
     63  C        -48.4770  -11.5640   29.8500 C.2    58  GLN58       0.2616
     64  O        -48.1660  -10.7380   28.9820 O.2    58  GLN58      -0.2715
     65  CB       -48.7070  -13.2330   27.9740 C.3    58  GLN58       0.0408
     66  CG       -48.4580  -14.6300   27.4080 C.3    58  GLN58       0.0908
     67  CD       -48.7210  -14.7020   25.9200 C.2    58  GLN58       0.2608
     68  OE1      -49.8640  -14.7510   25.4610 O.2    58  GLN58      -0.2717
     69  NE2      -47.6650  -14.7580   25.1290 N.am   58  GLN58      -0.0878
     70  N        -48.7820  -11.2000   31.1120 N.am   59  ALA59      -0.1963
     71  CA       -48.7100   -9.8170   31.5810 C.3    59  ALA59       0.1728
     72  C        -47.2480   -9.3220   31.5160 C.2    59  ALA59       0.2616
     73  O        -47.0060   -8.1570   31.2020 O.2    59  ALA59      -0.2715
     74  CB       -49.2470   -9.7210   32.9960 C.3    59  ALA59       0.0334
     75  N        -46.2770  -10.2390   31.7440 N.am   60  GLU60      -0.1977
     76  CA       -44.8360   -9.9710   31.6760 C.3    60  GLU60       0.1602
     77  C        -44.4080   -9.6630   30.2320 C.2    60  GLU60       0.2287
     78  O        -43.5490   -8.8050   30.0330 O.2    60  GLU60      -0.2864
     79  CB       -44.0370  -11.1620   32.2410 C.3    60  GLU60       0.0415
     80  CG       -42.6310  -10.8070   32.6950 C.3    60  GLU60       0.1163
     81  CD       -41.9290  -11.8720   33.5190 C.2    60  GLU60       0.3649
     82  OE1      -42.3440  -12.0920   34.6810 O.co2  60  GLU60      -0.2457
     83  OE2      -40.9510  -12.4720   33.0130 O.co2  60  GLU60      -0.2457
     84  N        -46.4990   -8.4490   27.6870 N.3    62  LEU62      -0.1231
     85  CA       -47.1070   -7.1750   27.3240 C.3    62  LEU62       0.1693
     86  C        -46.2830   -5.9980   27.8720 C.2    62  LEU62       0.2591
     87  O        -45.9870   -5.0790   27.1090 O.2    62  LEU62      -0.2718
     88  CB       -48.5610   -7.1070   27.8140 C.3    62  LEU62       0.0284
     89  CG       -49.1950   -5.7200   27.8510 C.3    62  LEU62       0.0019
     90  CD1      -49.6270   -5.2690   26.4740 C.3    62  LEU62       0.0001
     91  CD2      -50.3290   -5.6870   28.8160 C.3    62  LEU62       0.0001
     92  N        -45.8690   -6.0580   29.1590 N.am   63  VAL63      -0.1980
     93  CA       -45.0800   -5.0130   29.8090 C.3    63  VAL63       0.1595
     94  C        -43.7660   -4.7960   29.0440 C.2    63  VAL63       0.2287
     95  O        -43.3540   -3.6380   28.8710 O.2    63  VAL63      -0.2864
     96  CB       -44.8750   -5.3200   31.3100 C.3    63  VAL63       0.0276
     97  CG1      -43.5770   -4.7360   31.8470 C.3    63  VAL63       0.0022
     98  CG2      -46.0530   -4.8000   32.1160 C.3    63  VAL63       0.0022
     99  N        -46.4920   -1.7720   34.6080 N.3    78  THR78      -0.1218
    100  CA       -46.9660   -2.6900   35.6510 C.3    78  THR78       0.1862
    101  C        -47.9120   -1.9720   36.6050 C.2    78  THR78       0.2287
    102  O        -48.9900   -2.5000   36.8930 O.2    78  THR78      -0.2866
    103  CB       -45.8140   -3.3490   36.4140 C.3    78  THR78       0.1770
    104  OG1      -44.7760   -3.6760   35.4970 O.3    78  THR78      -0.2211
    105  CG2      -46.2550   -4.6110   37.1340 C.3    78  THR78       0.0375
    106  N        -51.3190   -1.3550   34.7870 N.3    81  LEU81      -0.1231
    107  CA       -52.0760   -2.6170   34.7260 C.3    81  LEU81       0.1693
    108  C        -52.7420   -2.9800   36.0490 C.2    81  LEU81       0.2592
    109  O        -53.8890   -3.4320   36.0490 O.2    81  LEU81      -0.2718
    110  CB       -51.1770   -3.7810   34.2990 C.3    81  LEU81       0.0284
    111  CG       -50.9820   -3.9960   32.8080 C.3    81  LEU81       0.0019
    112  CD1      -49.8310   -4.9400   32.5590 C.3    81  LEU81       0.0001
    113  CD2      -52.2400   -4.5450   32.1610 C.3    81  LEU81       0.0001
    114  N        -52.0240   -2.7710   37.1690 N.am   82  THR82      -0.1953
    115  CA       -52.5110   -3.0710   38.5130 C.3    82  THR82       0.1897
    116  C        -53.7200   -2.2050   38.8470 C.2    82  THR82       0.2313
    117  O        -54.7370   -2.7460   39.2710 O.2    82  THR82      -0.2863
    118  CB       -51.3930   -2.9100   39.5370 C.3    82  THR82       0.1794
    119  OG1      -50.3350   -3.7900   39.1720 O.3    82  THR82      -0.2208
    120  CG2      -51.8450   -3.2400   40.9500 C.3    82  THR82       0.0378
    121  N        -56.9070   -3.1930   36.9040 N.3    85  SER85      -0.1202
    122  CA       -57.3720   -4.5390   37.2800 C.3    85  SER85       0.2020
    123  C        -57.1200   -5.5630   36.1450 C.2    85  SER85       0.2619
    124  O        -57.7030   -6.6540   36.1400 O.2    85  SER85      -0.2717
    125  CB       -58.8380   -4.5310   37.7110 C.3    85  SER85       0.2103
    126  OG       -59.0040   -3.8760   38.9570 O.3    85  SER85      -0.2182
    127  N        -56.2040   -5.2140   35.2420 N.am   86  GLY86      -0.1942
    128  CA       -55.8290   -6.0400   34.1040 C.3    86  GLY86       0.2014
    129  C        -56.5800   -5.7320   32.8240 C.2    86  GLY86       0.2639
    130  O        -56.1760   -6.2090   31.7620 O.2    86  GLY86      -0.2714
    131  N        -57.6720   -4.9320   32.9030 N.am   87  ASP87      -0.1957
    132  CA       -58.5170   -4.5760   31.7530 C.3    87  ASP87       0.1840
    133  C        -57.7570   -3.7300   30.7190 C.2    87  ASP87       0.2622
    134  O        -57.6100   -2.5170   30.8770 O.2    87  ASP87      -0.2715
    135  CB       -59.8010   -3.8590   32.2060 C.3    87  ASP87       0.1450
    136  CG       -60.8770   -3.7080   31.1450 C.2    87  ASP87       0.3671
    137  OD1      -60.7940   -4.4120   30.0980 O.co2  87  ASP87      -0.2456
    138  OD2      -61.8290   -2.9270   31.3780 O.co2  87  ASP87      -0.2456
    139  N        -57.2910   -4.3890   29.6460 N.am   88  LEU88      -0.1963
    140  CA       -56.5260   -3.7540   28.5750 C.3    88  LEU88       0.1728
    141  C        -57.3260   -2.7050   27.8240 C.2    88  LEU88       0.2616
    142  O        -56.7280   -1.7740   27.2880 O.2    88  LEU88      -0.2715
    143  CB       -56.0000   -4.7910   27.5890 C.3    88  LEU88       0.0311
    144  CG       -54.8670   -5.6660   28.0710 C.3    88  LEU88       0.0022
    145  CD1      -54.2980   -6.4620   26.9250 C.3    88  LEU88       0.0001
    146  CD2      -53.7790   -4.8440   28.7100 C.3    88  LEU88       0.0001
    147  N        -58.6660   -2.8430   27.7960 N.am   89  MET89      -0.1977
    148  CA       -59.5890   -1.8960   27.1640 C.3    89  MET89       0.1605
    149  C        -59.4330   -0.4680   27.7200 C.2    89  MET89       0.2287
    150  O        -59.5200    0.5000   26.9550 O.2    89  MET89      -0.2864
    151  CB       -61.0520   -2.3370   27.3780 C.3    89  MET89       0.0413
    152  CG       -61.5310   -3.4280   26.4600 C.3    89  MET89       0.0598
    153  SD       -61.8260   -2.8320   24.7740 S.3    89  MET89      -0.1393
    154  CE       -63.3880   -1.9530   24.9710 C.3    89  MET89       0.0692
    155  N        -64.8630   -7.1780   40.3710 N.3   143  MET143     -0.1245
    156  CA       -63.5830   -7.5250   39.7650 C.3   143  MET143      0.1570
    157  C        -62.4370   -7.1720   40.7290 C.2   143  MET143      0.2261
    158  O        -61.5540   -8.0020   40.9290 O.2   143  MET143     -0.2867
    159  CB       -63.4070   -6.8360   38.4000 C.3   143  MET143      0.0387
    160  CG       -62.3490   -7.4870   37.5150 C.3   143  MET143      0.0595
    161  SD       -62.4510   -9.3060   37.4540 S.3   143  MET143     -0.1393
    162  CE       -60.8080   -9.6970   36.8190 C.3   143  MET143      0.0692
    163  N        -59.9380   -9.6530   42.6300 N.3   147  PHE147     -0.1241
    164  CA       -58.5420   -9.2860   42.4180 C.3   147  PHE147      0.1605
    165  C        -57.7380   -9.2170   43.7190 C.2   147  PHE147      0.2264
    166  O        -56.5590   -9.5680   43.7000 O.2   147  PHE147     -0.2867
    167  CB       -58.5130   -7.9080   41.7400 C.3   147  PHE147      0.0534
    168  CG       -57.2950   -7.5360   40.9320 C.ar  147  PHE147     -0.0203
    169  CD1      -57.1530   -7.9700   39.6170 C.ar  147  PHE147     -0.0042
    170  CD2      -56.3430   -6.6580   41.4420 C.ar  147  PHE147     -0.0042
    171  CE1      -56.0380   -7.5940   38.8520 C.ar  147  PHE147     -0.0003
    172  CE2      -55.2340   -6.2730   40.6740 C.ar  147  PHE147     -0.0003
    173  CZ       -55.0900   -6.7430   39.3830 C.ar  147  PHE147     -0.0000
    174  N        -57.6080  -12.5940   46.1840 N.3   150  LYS150     -0.1231
    175  CA       -56.6520  -13.4290   45.4570 C.3   150  LYS150      0.1693
    176  C        -55.2060  -12.8680   45.5740 C.2   150  LYS150      0.2592
    177  O        -54.2520  -13.6200   45.3460 O.2   150  LYS150     -0.2718
    178  CB       -57.0600  -13.5420   43.9770 C.3   150  LYS150      0.0285
    179  CG       -56.0110  -14.2760   43.1720 C.3   150  LYS150      0.0035
    180  CD       -56.4920  -14.6670   41.7680 C.3   150  LYS150      0.0206
    181  CE       -57.3900  -13.6420   41.0730 C.3   150  LYS150      0.1093
    182  NZ       -58.0590  -14.2460   39.9350 N.3   150  LYS150     -0.1314
    183  N        -55.0520  -11.5590   45.9270 N.am  151  ASP151     -0.1974
    184  CA       -53.7660  -10.8490   46.0870 C.3   151  ASP151      0.1709
    185  C        -52.9440  -11.4400   47.2430 C.2   151  ASP151      0.2293
    186  O        -51.7130  -11.3900   47.2280 O.2   151  ASP151     -0.2864
    187  CB       -54.0120   -9.3420   46.3390 C.3   151  ASP151      0.1436
    188  CG       -53.2590   -8.3610   45.4500 C.2   151  ASP151      0.3671
    189  OD1      -53.1640   -8.6130   44.2280 O.co2 151  ASP151     -0.2456
    190  OD2      -52.8580   -7.2920   45.9570 O.co2 151  ASP151     -0.2456
@<TRIPOS>BOND
     1    25    24   ar
     2    26    24   ar
     3    24    23    1
     4    12    11    2
     5    13    14    1
     6    13    10    1
     7    23    20    1
     8    11    10    1
     9    11    15   am
    10    16    15    1
    11    16    17    1
    12    10     9    1
    13    19    20    1
    14    19    17   am
    15    20    21    1
    16    17    18    2
    17     9     3   am
    18    22    21    2
    19    21    27   am
    20     1     2    1
    21     3     4    2
    22     3     2    1
    23     2     5    1
    24    27    28    1
    25    38    37    1
    26     5     7    1
    27     5     6    1
    28    36    37   ar
    29    36    34   ar
    30    37    35   ar
    31    46    45   ar
    32    34    32   ar
    33    47    45   ar
    34    35    33   ar
    35    28    29    1
    36    28    31    1
    37   153   154    1
    38   153   152    1
    39     6     8    1
    40    45    44    1
    41    32    33   ar
    42    32    31    1
    43    69    67   am
    44    30    29    2
    45    29    39   am
    46    68    67    2
    47    67    66    1
    48    39    40    1
    49    44    43    1
    50   152   151    1
    51    90    89    1
    52   145   144    1
    53   150   149    2
    54    43    40    1
    55    40    41    1
    56    87    86    2
    57   148   151    1
    58   148   149    1
    59   148   147    1
    60   142   141    2
    61    85    84    1
    62    85    88    1
    63    85    86    1
    64    66    65    1
    65   143   144    1
    66   143   140    1
    67   147   141   am
    68    88    89    1
    69   141   140    1
    70    89    91    1
    71    86    92   am
    72    65    62    1
    73   144   146    1
    74    41    42    2
    75    41    48   am
    76   140   139    1
    77    95    94    2
    78    64    63    2
    79    94    93    1
    80    92    93    1
    81    54    48    1
    82    54    53    1
    83    48    49    1
    84    62    63    1
    85    62    61    1
    86   139   133   am
    87    93    96    1
    88    63    70   am
    89    78    77    2
    90   137   136   ar
    91    77    76    1
    92    61    57   am
    93    53    52    1
    94    60    59    1
    95    49    52    1
    96    49    50    1
    97   133   134    2
    98   133   132    1
    99    70    71    1
   100   136   138   ar
   101   136   135    1
   102    73    72    2
   103    55    50   am
   104    55    56    1
   105    96    97    1
   106    96    98    1
   107    50    51    2
   108    72    71    1
   109    72    75   am
   110    57    56    1
   111    57    58    2
   112    71    74    1
   113    76    75    1
   114    76    79    1
   115   132   135    1
   116   132   131    1
   117   130   129    2
   118    59    56    1
   119   113   111    1
   120    79    80    1
   121   112   111    1
   122    80    81    1
   123   111   110    1
   124   129   131   am
   125   129   128    1
   126    83    81   ar
   127    81    82   ar
   128   128   127    1
   129   110   107    1
   130    99   100    1
   131   107   106    1
   132   107   108    1
   133   127   123   am
   134   104   103    1
   135   100   103    1
   136   100   101    1
   137   108   109    2
   138   108   114   am
   139   124   123    2
   140   123   122    1
   141   103   105    1
   142   101   102    2
   143   162   161    1
   144   121   122    1
   145   114   115    1
   146   122   125    1
   147   161   160    1
   148   160   159    1
   149   125   126    1
   150   159   156    1
   151   115   116    1
   152   115   118    1
   153   116   117    2
   154   171   173   ar
   155   171   169   ar
   156   119   118    1
   157   173   172   ar
   158   118   120    1
   159   169   168   ar
   160   156   155    1
   161   156   157    1
   162   182   181    1
   163   172   170   ar
   164   157   158    2
   165   168   170   ar
   166   168   167    1
   167   181   180    1
   168   167   164    1
   169   180   179    1
   170   164   163    1
   171   164   165    1
   172   179   178    1
   173   166   165    2
   174   178   175    1
   175   189   188   ar
   176   177   176    2
   177   188   190   ar
   178   188   187    1
   179   175   176    1
   180   175   174    1
   181   176   183   am
   182   183   184    1
   183   184   187    1
   184   184   185    1
   185   186   185    2
