@<TRIPOS>MOLECULE
tmp/4bj8O00.pdb
 149 141 0 0 0
SMALL
GASTEIGER

@<TRIPOS>ATOM
      1  N        231.2950   59.4190   48.6990 N.3    14  ASN14      -0.1240
      2  CA       230.7550   58.1810   48.1890 C.3    14  ASN14       0.1653
      3  C        231.1860   57.0230   49.0110 C.2    14  ASN14       0.2266
      4  O        231.9670   57.1800   49.8990 O.2    14  ASN14      -0.2867
      5  CB       231.0730   57.9960   46.6950 C.3    14  ASN14       0.1155
      6  CG       232.5490   57.7300   46.3890 C.2    14  ASN14       0.2627
      7  OD1      233.3320   57.3220   47.2320 O.2    14  ASN14      -0.2716
      8  ND2      232.9090   57.9130   45.1320 N.am   14  ASN14      -0.0877
      9  N        233.1940   54.7030   48.6420 N.3    16  LEU16      -0.1245
     10  CA       234.6450   54.4670   48.6450 C.3    16  LEU16       0.1561
     11  C        235.4220   55.4800   49.5180 C.2    16  LEU16       0.2260
     12  O        236.6190   55.2840   49.8180 O.2    16  LEU16      -0.2867
     13  CB       235.1840   54.5840   47.1990 C.3    16  LEU16       0.0270
     14  CG       234.7250   53.6010   46.1050 C.3    16  LEU16       0.0019
     15  CD1      235.3070   53.9740   44.7580 C.3    16  LEU16       0.0001
     16  CD2      235.1250   52.1720   46.4270 C.3    16  LEU16       0.0001
     17  N        235.6030   58.8550   48.6810 N.3    18  SER18      -0.1217
     18  CA       236.1170   59.9290   47.8730 C.3    18  SER18       0.1889
     19  C        235.2670   61.1250   48.1880 C.2    18  SER18       0.2288
     20  O        234.1530   60.9710   48.7010 O.2    18  SER18      -0.2866
     21  CB       236.0280   59.5860   46.3690 C.3    18  SER18       0.2089
     22  OG       236.7570   58.4250   46.0850 O.3    18  SER18      -0.2183
     23  N        237.3360   66.9640   42.4700 N.3    33  TYR33      -0.1241
     24  CA       237.1430   65.5800   42.9140 C.3    33  TYR33       0.1605
     25  C        238.3700   65.0860   43.6740 C.2    33  TYR33       0.2264
     26  O        239.4940   65.1970   43.1710 O.2    33  TYR33      -0.2867
     27  CB       236.9100   64.6730   41.7120 C.3    33  TYR33       0.0534
     28  CG       236.1920   63.3690   42.0230 C.ar   33  TYR33      -0.0201
     29  CD1      236.8620   62.3100   42.6200 C.ar   33  TYR33      -0.0009
     30  CD2      234.8300   63.2190   41.7600 C.ar   33  TYR33      -0.0009
     31  CE1      236.2060   61.1320   42.9230 C.ar   33  TYR33       0.0417
     32  CE2      234.1520   62.0390   42.0700 C.ar   33  TYR33       0.0417
     33  CZ       234.8480   60.9970   42.6390 C.ar   33  TYR33       0.1957
     34  OH       234.2120   59.8290   42.9490 O.3    33  TYR33      -0.2866
     35  N        239.6110   61.4590   44.9830 N.3    35  THR35      -0.1218
     36  CA       239.3990   59.9910   45.0820 C.3    35  THR35       0.1862
     37  C        240.1980   59.3330   46.2310 C.2    35  THR35       0.2287
     38  O        241.3780   59.6180   46.4100 O.2    35  THR35      -0.2866
     39  CB       239.7110   59.2580   43.7500 C.3    35  THR35       0.1770
     40  OG1      239.5850   57.8490   43.9530 O.3    35  THR35      -0.2211
     41  CG2      241.1550   59.5630   43.2470 C.3    35  THR35       0.0375
     42  N        240.9060   56.2540   46.2300 N.3    37  VAL37      -0.1231
     43  CA       241.5300   55.0910   45.6140 C.3    37  VAL37       0.1692
     44  C        242.0770   55.4840   44.2550 C.2    37  VAL37       0.2592
     45  O        241.5940   56.4410   43.6540 O.2    37  VAL37      -0.2718
     46  CB       240.4830   53.9480   45.4390 C.3    37  VAL37       0.0266
     47  CG1      239.9860   53.4710   46.7750 C.3    37  VAL37       0.0020
     48  CG2      239.2790   54.4030   44.6300 C.3    37  VAL37       0.0020
     49  N        243.0660   54.7380   43.7650 N.am   38  GLU38      -0.1966
     50  CA       243.6070   54.9950   42.4310 C.3    38  GLU38       0.1733
     51  C        244.2000   53.7240   41.8490 C.2    38  GLU38       0.2617
     52  O        244.6310   52.8670   42.6060 O.2    38  GLU38      -0.2715
     53  CB       244.6300   56.1460   42.4520 C.3    38  GLU38       0.0429
     54  CG       245.9490   55.8540   43.1700 C.3    38  GLU38       0.1163
     55  CD       246.8360   57.0870   43.3230 C.2    38  GLU38       0.3649
     56  OE1      246.6790   58.1080   42.5710 O.co2  38  GLU38      -0.2457
     57  OE2      247.7200   57.0030   44.2040 O.co2  38  GLU38      -0.2457
     58  N        244.1920   53.6000   40.5130 N.am   39  SER39      -0.1950
     59  CA       244.4810   52.2990   39.8680 C.3    39  SER39       0.1924
     60  C        245.9660   51.9540   39.8650 C.2    39  SER39       0.2314
     61  O        246.3290   50.7810   39.9030 O.2    39  SER39      -0.2863
     62  CB       243.8260   52.1280   38.4740 C.3    39  SER39       0.2116
     63  OG       244.0170   53.2130   37.5970 O.3    39  SER39      -0.2180
     64  N        248.5780   57.7940   39.9510 N.3    43  ALA43      -0.1231
     65  CA       247.6260   58.0040   38.8570 C.3    43  ALA43       0.1694
     66  C        246.6880   59.2170   39.0930 C.2    43  ALA43       0.2591
     67  O        246.4170   59.9580   38.1630 O.2    43  ALA43      -0.2718
     68  CB       246.8180   56.7290   38.5860 C.3    43  ALA43       0.0304
     69  N        246.2090   59.4180   40.3200 N.am   44  ALA44      -0.1980
     70  CA       245.2840   60.5280   40.6270 C.3    44  ALA44       0.1597
     71  C        246.0130   61.7880   41.1000 C.2    44  ALA44       0.2287
     72  O        245.3880   62.8440   41.2860 O.2    44  ALA44      -0.2864
     73  CB       244.2550   60.1010   41.6660 C.3    44  ALA44       0.0319
     74  N        242.5730   63.1310   34.9430 N.3    70  TRP70      -0.1241
     75  CA       243.4750   62.8580   36.0650 C.3    70  TRP70       0.1605
     76  C        244.8780   63.2160   35.6570 C.2    70  TRP70       0.2264
     77  O        245.1490   63.4180   34.4760 O.2    70  TRP70      -0.2867
     78  CB       243.4370   61.3760   36.5240 C.3    70  TRP70       0.0550
     79  CG       242.1020   60.9810   36.9760 C.ar   70  TRP70       0.0003
     80  CD1      241.1690   60.2960   36.2710 C.ar   70  TRP70       0.0946
     81  CD2      241.5020   61.3220   38.2140 C.ar   70  TRP70       0.0152
     82  NE1      240.0290   60.1610   37.0080 N.ar   70  TRP70      -0.2442
     83  CE2      240.2060   60.7930   38.2070 C.ar   70  TRP70       0.0810
     84  CE3      241.9480   62.0080   39.3520 C.ar   70  TRP70       0.0012
     85  CZ2      239.3390   60.9230   39.2920 C.ar   70  TRP70       0.0191
     86  CZ3      241.0800   62.1470   40.4290 C.ar   70  TRP70       0.0001
     87  CH2      239.7860   61.6130   40.3820 C.ar   70  TRP70       0.0015
     88  N        244.6730   59.4600   32.5360 N.3    74  SER74      -0.1217
     89  CA       243.3920   58.7620   32.5800 C.3    74  SER74       0.1889
     90  C        242.3060   59.7910   32.7890 C.2    74  SER74       0.2288
     91  O        242.5660   60.8420   33.3840 O.2    74  SER74      -0.2866
     92  CB       243.3450   57.6830   33.6630 C.3    74  SER74       0.2089
     93  OG       243.5930   58.1600   34.9660 O.3    74  SER74      -0.2183
     94  N        237.8570   60.0770   33.7710 N.3    76  SER76      -0.1217
     95  CA       236.6680   59.4110   34.2530 C.3    76  SER76       0.1889
     96  C        235.4360   60.2260   33.9110 C.2    76  SER76       0.2288
     97  O        235.5310   61.3990   33.6690 O.2    76  SER76      -0.2866
     98  CB       236.7420   59.2310   35.7550 C.3    76  SER76       0.2089
     99  OG       237.7940   58.3340   36.1400 O.3    76  SER76      -0.2183
    100  N        231.0180   60.5130   35.0550 N.3    78  TRP78      -0.1241
    101  CA       229.8460   60.0600   35.8010 C.3    78  TRP78       0.1605
    102  C        228.5810   60.6340   35.1630 C.2    78  TRP78       0.2264
    103  O        228.5600   61.8310   34.8040 O.2    78  TRP78      -0.2867
    104  CB       229.8550   60.5520   37.2550 C.3    78  TRP78       0.0550
    105  CG       230.9460   60.0370   38.1320 C.ar   78  TRP78       0.0003
    106  CD1      230.8250   59.1520   39.1280 C.ar   78  TRP78       0.0946
    107  CD2      232.3270   60.3980   38.0810 C.ar   78  TRP78       0.0152
    108  NE1      232.0360   58.8920   39.6850 N.ar   78  TRP78      -0.2442
    109  CE2      232.9770   59.6710   39.0770 C.ar   78  TRP78       0.0810
    110  CE3      233.0840   61.2650   37.2700 C.ar   78  TRP78       0.0012
    111  CZ2      234.3450   59.7780   39.3040 C.ar   78  TRP78       0.0191
    112  CZ3      234.4280   61.3890   37.5240 C.ar   78  TRP78       0.0001
    113  CH2      235.0480   60.6340   38.5200 C.ar   78  TRP78       0.0015
    114  N        229.7940   55.3550   36.5900 N.3    96  TRP96      -0.1241
    115  CA       230.9710   55.9680   35.9980 C.3    96  TRP96       0.1605
    116  C        231.7340   55.1080   35.0430 C.2    96  TRP96       0.2264
    117  O        231.6790   53.8900   35.1290 O.2    96  TRP96      -0.2867
    118  CB       231.9300   56.3910   37.0660 C.3    96  TRP96       0.0550
    119  CG       232.2640   55.3280   38.0490 C.ar   96  TRP96       0.0003
    120  CD1      231.6970   55.1470   39.2750 C.ar   96  TRP96       0.0946
    121  CD2      233.2750   54.3450   37.9260 C.ar   96  TRP96       0.0152
    122  NE1      232.2940   54.1230   39.9160 N.ar   96  TRP96      -0.2442
    123  CE2      233.2780   53.6140   39.0970 C.ar   96  TRP96       0.0810
    124  CE3      234.1980   54.0290   36.9430 C.ar   96  TRP96       0.0012
    125  CZ2      234.1440   52.5640   39.2930 C.ar   96  TRP96       0.0191
    126  CZ3      235.0580   52.9770   37.1460 C.ar   96  TRP96       0.0001
    127  CH2      235.0300   52.2710   38.2930 C.ar   96  TRP96       0.0015
    128  N        235.9010   54.8860   33.7050 N.3    98  LEU98      -0.1245
    129  CA       237.3020   55.2710   33.8520 C.3    98  LEU98       0.1561
    130  C        238.0890   54.7050   32.6830 C.2    98  LEU98       0.2260
    131  O        238.1500   53.4700   32.4910 O.2    98  LEU98      -0.2867
    132  CB       237.8870   54.6910   35.1310 C.3    98  LEU98       0.0270
    133  CG       239.4090   54.8040   35.3460 C.3    98  LEU98       0.0019
    134  CD1      239.9470   56.2390   35.3420 C.3    98  LEU98       0.0001
    135  CD2      239.8080   54.1290   36.6400 C.3    98  LEU98       0.0001
    136  N        241.7250   54.3690   30.7910 N.3   100  SER100     -0.1217
    137  CA       243.1790   54.3940   30.9050 C.3   100  SER100      0.1889
    138  C        243.8600   54.6000   29.5440 C.2   100  SER100      0.2288
    139  O        243.3480   54.2220   28.4690 O.2   100  SER100     -0.2866
    140  CB       243.6920   53.1250   31.5460 C.3   100  SER100      0.2089
    141  OG       243.1850   52.9870   32.8580 O.3   100  SER100     -0.2183
    142  N        228.9630   54.7220   41.7290 N.3   117  ASP117     -0.1239
    143  CA       229.2100   55.5090   42.9320 C.3   117  ASP117      0.1674
    144  C        227.9060   56.1120   43.4460 C.2   117  ASP117      0.2266
    145  O        227.1680   56.7680   42.6970 O.2   117  ASP117     -0.2867
    146  CB       230.2130   56.6480   42.6700 C.3   117  ASP117      0.1410
    147  CG       231.6360   56.1490   42.4860 C.2   117  ASP117      0.3668
    148  OD1      231.9380   55.0270   42.9370 O.co2 117  ASP117     -0.2456
    149  OD2      232.4810   56.8760   41.9020 O.co2 117  ASP117     -0.2456
@<TRIPOS>BOND
     1   139   138    2
     2   138   137    1
     3   136   137    1
     4   137   140    1
     5   140   141    1
     6   131   130    2
     7    88    89    1
     8    89    90    1
     9    89    92    1
    10   130   129    1
    11    90    91    2
    12    92    93    1
    13    97    96    2
    14   128   129    1
    15    94    95    1
    16   129   132    1
    17    96    95    1
    18    95    98    1
    19    77    76    2
    20   103   102    2
    21    74    75    1
    22   116   117    2
    23   116   115    1
    24   100   101    1
    25   132   133    1
    26   102   101    1
    27   134   133    1
    28   133   135    1
    29    76    75    1
    30    98    99    1
    31   101   104    1
    32   115   114    1
    33   115   118    1
    34    75    78    1
    35    80    79   ar
    36    80    82   ar
    37    78    79    1
    38   124   126   ar
    39   124   121   ar
    40    79    81   ar
    41    82    83   ar
    42   118   119    1
    43   126   127   ar
    44   104   105    1
    45   110   112   ar
    46   110   107   ar
    47   112   113   ar
    48    63    62    1
    49   121   119   ar
    50   121   123   ar
    51   119   120   ar
    52   107   105   ar
    53   107   109   ar
    54   105   106   ar
    55    67    66    2
    56    83    81   ar
    57    83    85   ar
    58    81    84   ar
    59   127   125   ar
    60    62    59    1
    61   113   111   ar
    62    68    65    1
    63    65    66    1
    64    65    64    1
    65   109   111   ar
    66   109   108   ar
    67    66    69   am
    68   123   125   ar
    69   123   122   ar
    70   106   108   ar
    71   120   122   ar
    72    85    87   ar
    73    84    86   ar
    74    60    59    1
    75    60    61    2
    76    59    58    1
    77    69    70    1
    78    87    86   ar
    79    58    51   am
    80    70    71    1
    81    70    73    1
    82    71    72    2
    83    27    28    1
    84    27    24    1
    85   142   143    1
    86    30    28   ar
    87    30    32   ar
    88    51    50    1
    89    51    52    2
    90   149   147   ar
    91    28    29   ar
    92    32    33   ar
    93    50    53    1
    94    50    49    1
    95    53    54    1
    96    23    24    1
    97   147   146    1
    98   147   148   ar
    99    56    55   ar
   100    29    31   ar
   101    33    31   ar
   102    33    34    1
   103   146   143    1
   104   145   144    2
   105    24    25    1
   106   143   144    1
   107    54    55    1
   108    26    25    2
   109    41    39    1
   110    55    57   ar
   111    45    44    2
   112    39    40    1
   113    39    36    1
   114    49    44   am
   115    44    43    1
   116    48    46    1
   117    15    14    1
   118    35    36    1
   119    36    37    1
   120     8     6   am
   121    46    43    1
   122    46    47    1
   123    43    42    1
   124    22    21    1
   125    14    16    1
   126    14    13    1
   127    37    38    2
   128    21    18    1
   129     6     5    1
   130     6     7    2
   131     5     2    1
   132    13    10    1
   133    18    19    1
   134    18    17    1
   135    19    20    2
   136     2     1    1
   137     2     3    1
   138     9    10    1
   139    10    11    1
   140     3     4    2
   141    11    12    2
