@<TRIPOS>MOLECULE
tmp/4bjaA00.pdb
 203 196 0 0 0
SMALL
GASTEIGER

@<TRIPOS>ATOM
      1  N          3.6320   15.4370  -19.7080 N.3    51  LEU51      -0.1245
      2  CA         3.7850   16.2580  -18.4970 C.3    51  LEU51       0.1561
      3  C          3.6010   17.7440  -18.7390 C.2    51  LEU51       0.2260
      4  O          3.4530   18.5170  -17.8040 O.2    51  LEU51      -0.2867
      5  CB         5.1330   15.9850  -17.7850 C.3    51  LEU51       0.0270
      6  CG         5.2200   14.5510  -17.2320 C.3    51  LEU51       0.0019
      7  CD1        6.6010   14.3430  -16.5790 C.3    51  LEU51       0.0001
      8  CD2        4.0830   14.2190  -16.2240 C.3    51  LEU51       0.0001
      9  N          0.2370   18.8350  -17.3760 N.3    54  VAL54      -0.1231
     10  CA         0.2010   18.7480  -15.9250 C.3    54  VAL54       0.1692
     11  C          0.7310   20.0380  -15.3550 C.2    54  VAL54       0.2592
     12  O          0.1850   20.5900  -14.3720 O.2    54  VAL54      -0.2718
     13  CB         1.0940   17.5690  -15.3930 C.3    54  VAL54       0.0266
     14  CG1        1.1560   17.5950  -13.8870 C.3    54  VAL54       0.0020
     15  CG2        0.5430   16.2670  -15.8390 C.3    54  VAL54       0.0020
     16  N          1.8240   20.5050  -15.9480 N.am   55  PHE55      -0.1976
     17  CA         2.5360   21.6700  -15.4470 C.3    55  PHE55       0.1639
     18  C          2.0910   22.9780  -16.0820 C.2    55  PHE55       0.2290
     19  O          2.7230   24.0270  -15.8970 O.2    55  PHE55      -0.2864
     20  CB         4.0390   21.4440  -15.5720 C.3    55  PHE55       0.0560
     21  CG         4.5500   20.4180  -14.6140 C.ar   55  PHE55      -0.0200
     22  CD1        4.3490   20.5830  -13.2320 C.ar   55  PHE55      -0.0042
     23  CD2        5.2050   19.2920  -15.0850 C.ar   55  PHE55      -0.0042
     24  CE1        4.8210   19.6010  -12.3180 C.ar   55  PHE55      -0.0003
     25  CE2        5.6580   18.3070  -14.2170 C.ar   55  PHE55      -0.0003
     26  CZ         5.4610   18.4690  -12.8120 C.ar   55  PHE55      -0.0000
     27  N          3.0210   26.6460  -12.3620 N.3    70  LYS70      -0.1245
     28  CA         3.1100   25.2370  -11.8840 C.3    70  LYS70       0.1561
     29  C          4.4630   24.6600  -12.2470 C.2    70  LYS70       0.2260
     30  O          5.0500   23.8870  -11.4790 O.2    70  LYS70      -0.2867
     31  CB         2.0010   24.3650  -12.4600 C.3    70  LYS70       0.0271
     32  CG         0.5760   24.7270  -12.0490 C.3    70  LYS70       0.0035
     33  CD        -0.4480   23.6100  -12.3480 C.3    70  LYS70       0.0206
     34  CE        -0.1560   22.2640  -11.5950 C.3    70  LYS70       0.1093
     35  NZ        -1.0620   21.1030  -12.0670 N.3    70  LYS70      -0.1314
     36  N          7.2390   26.5140  -10.4310 N.3    73  GLY73      -0.1210
     37  CA         7.0110   26.1570   -8.9930 C.3    73  GLY73       0.1956
     38  C          7.6070   24.7910   -8.7130 C.2    73  GLY73       0.2611
     39  O          8.2200   24.5510   -7.6510 O.2    73  GLY73      -0.2717
     40  N          7.4240   23.8880   -9.6620 N.am   74  HIS74      -0.1975
     41  CA         7.9050   22.5450   -9.4460 C.3    74  HIS74       0.1656
     42  C          9.4170   22.4890   -9.4450 C.2    74  HIS74       0.2291
     43  O         10.0120   21.6810   -8.7090 O.2    74  HIS74      -0.2864
     44  CB         7.3460   21.5880  -10.4830 C.3    74  HIS74       0.0771
     45  CG         7.4160   20.1750  -10.0240 C.ar   74  HIS74       0.0820
     46  ND1        8.3910   19.3020  -10.4540 N.ar   74  HIS74      -0.2267
     47  CD2        6.6970   19.5130   -9.0840 C.ar   74  HIS74       0.1154
     48  CE1        8.2320   18.1350   -9.8370 C.ar   74  HIS74       0.1986
     49  NE2        7.2160   18.2380   -9.0010 N.ar   74  HIS74      -0.2212
     50  N         10.5110   23.6160   -6.0990 N.3    77  ARG77      -0.1231
     51  CA        10.1880   22.6050   -5.0560 C.3    77  ARG77       0.1694
     52  C         11.1570   21.4390   -5.1270 C.2    77  ARG77       0.2592
     53  O         11.6230   20.9300   -4.0850 O.2    77  ARG77      -0.2718
     54  CB         8.7440   22.0930   -5.1810 C.3    77  ARG77       0.0321
     55  CG         7.6790   23.1640   -4.7880 C.3    77  ARG77       0.0489
     56  CD         6.3260   22.8370   -5.4120 C.3    77  ARG77       0.2205
     57  NE         5.1670   23.5660   -4.8440 N.pl3  77  ARG77      -0.0865
     58  CZ         4.8350   24.8200   -5.1500 C.cat  77  ARG77       0.5346
     59  NH1        5.5910   25.5310   -5.9870 N.pl3  77  ARG77       0.1354
     60  NH2        3.7600   25.3790   -4.6010 N.pl3  77  ARG77       0.1354
     61  N         11.4690   21.0070   -6.3540 N.am   78  PHE78      -0.1976
     62  CA        12.3670   19.8660   -6.5670 C.3    78  PHE78       0.1639
     63  C         13.7770   20.2640   -6.1730 C.2    78  PHE78       0.2290
     64  O         14.4530   19.5380   -5.4570 O.2    78  PHE78      -0.2864
     65  CB        12.3070   19.4450   -8.0530 C.3    78  PHE78       0.0560
     66  CG        13.0960   18.2270   -8.3530 C.ar   78  PHE78      -0.0200
     67  CD1       14.4650   18.3100   -8.5230 C.ar   78  PHE78      -0.0042
     68  CD2       12.4550   17.0080   -8.5030 C.ar   78  PHE78      -0.0042
     69  CE1       15.2220   17.1580   -8.7840 C.ar   78  PHE78      -0.0003
     70  CE2       13.2000   15.8260   -8.7650 C.ar   78  PHE78      -0.0003
     71  CZ        14.5940   15.9340   -8.9190 C.ar   78  PHE78      -0.0000
     72  N         13.8580   20.3530   -2.3730 N.3    81  PHE81      -0.1241
     73  CA        13.8250   18.9630   -1.8770 C.3    81  PHE81       0.1605
     74  C         15.2080   18.3440   -1.9530 C.2    81  PHE81       0.2264
     75  O         15.6300   17.6970   -0.9860 O.2    81  PHE81      -0.2867
     76  CB        12.8160   18.1890   -2.7320 C.3    81  PHE81       0.0534
     77  CG        12.8590   16.6930   -2.5860 C.ar   81  PHE81      -0.0203
     78  CD1       13.6910   15.9090   -3.3930 C.ar   81  PHE81      -0.0042
     79  CD2       11.9720   16.0600   -1.7120 C.ar   81  PHE81      -0.0042
     80  CE1       13.6750   14.5230   -3.2890 C.ar   81  PHE81      -0.0003
     81  CE2       11.9270   14.6720   -1.6310 C.ar   81  PHE81      -0.0003
     82  CZ        12.7970   13.9000   -2.4010 C.ar   81  PHE81      -0.0000
     83  N         11.2100   12.7950    4.7370 N.3   101  LEU101     -0.1245
     84  CA        11.0020   13.7810    3.6410 C.3   101  LEU101      0.1561
     85  C         10.6290   13.0510    2.3580 C.2   101  LEU101      0.2260
     86  O          9.6480   13.4120    1.6740 O.2   101  LEU101     -0.2867
     87  CB        12.2480   14.6530    3.4510 C.3   101  LEU101      0.0270
     88  CG        12.1880   15.6010    2.2130 C.3   101  LEU101      0.0019
     89  CD1       11.0360   16.6030    2.3050 C.3   101  LEU101      0.0001
     90  CD2       13.4950   16.3470    2.0370 C.3   101  LEU101      0.0001
     91  N          7.1250   11.3620    2.6680 N.3   104  LYS104     -0.1231
     92  CA         6.0660   12.3640    2.7870 C.3   104  LYS104      0.1693
     93  C          5.7910   12.9590    1.4130 C.2   104  LYS104      0.2592
     94  O          4.6270   13.2680    1.0630 O.2   104  LYS104     -0.2718
     95  CB         6.4720   13.5090    3.7490 C.3   104  LYS104      0.0285
     96  CG         5.3830   14.5700    3.8300 C.3   104  LYS104      0.0035
     97  CD         5.6340   15.6000    4.9100 C.3   104  LYS104      0.0206
     98  CE         4.4350   16.6040    4.9770 C.3   104  LYS104      0.1093
     99  NZ         4.5800   17.5610    6.0810 N.3   104  LYS104     -0.1314
    100  N          6.8710   13.1470    0.6640 N.am  105  THR105     -0.1953
    101  CA         6.7540   13.7450   -0.6900 C.3   105  THR105      0.1897
    102  C          6.0500   12.7510   -1.5980 C.2   105  THR105      0.2313
    103  O          5.1550   13.1220   -2.3720 O.2   105  THR105     -0.2863
    104  CB         8.1440   14.1570   -1.1930 C.3   105  THR105      0.1794
    105  OG1        8.7120   15.0880   -0.2610 O.3   105  THR105     -0.2208
    106  CG2        8.1160   14.8430   -2.5790 C.3   105  THR105      0.0378
    107  N          2.3810   12.7640   -0.8180 N.3   108  SER108     -0.1202
    108  CA         1.7190   14.0040   -1.1460 C.3   108  SER108      0.2020
    109  C          1.3380   14.0540   -2.6130 C.2   108  SER108      0.2618
    110  O          0.4030   14.7680   -3.0110 O.2   108  SER108     -0.2717
    111  CB         2.6230   15.1800   -0.8220 C.3   108  SER108      0.2103
    112  OG         2.1610   16.3310   -1.5020 O.3   108  SER108     -0.2182
    113  N          2.0610   13.3040   -3.4180 N.am  109  HIS109     -0.1975
    114  CA         1.7630   13.2990   -4.8710 C.3   109  HIS109      0.1656
    115  C          0.4820   12.5970   -5.2300 C.2   109  HIS109      0.2291
    116  O          0.0220   12.7110   -6.3740 O.2   109  HIS109     -0.2864
    117  CB         2.9910   12.7610   -5.6680 C.3   109  HIS109      0.0771
    118  CG         4.0520   13.8060   -5.8900 C.ar  109  HIS109      0.0820
    119  ND1        4.9190   14.2130   -4.9020 N.ar  109  HIS109     -0.2267
    120  CD2        4.3630   14.5460   -6.9850 C.ar  109  HIS109      0.1154
    121  CE1        5.7250   15.1520   -5.3750 C.ar  109  HIS109      0.1986
    122  NE2        5.3870   15.3850   -6.6340 N.ar  109  HIS109     -0.2212
    123  N         -2.1790   14.6910   -6.7960 N.3   112  GLN112     -0.1245
    124  CA        -2.0700   15.0530   -8.2080 C.3   112  GLN112      0.1566
    125  C         -2.8820   14.0780   -9.0120 C.2   112  GLN112      0.2260
    126  O         -2.5480   12.9070   -9.1050 O.2   112  GLN112     -0.2867
    127  CB        -0.6080   15.0590   -8.6870 C.3   112  GLN112      0.0367
    128  CG         0.3340   15.9980   -7.9210 C.3   112  GLN112      0.0905
    129  CD        -0.2200   17.4120   -7.7130 C.2   112  GLN112      0.2608
    130  OE1       -1.0110   17.9050   -8.5130 O.2   112  GLN112     -0.2717
    131  NE2        0.2290   18.0750   -6.6450 N.am  112  GLN112     -0.0878
    132  N         -3.3740   13.5260  -12.1180 N.3   114  PHE114     -0.1227
    133  CA        -2.7000   12.8860  -13.2330 C.3   114  PHE114      0.1736
    134  C         -1.9600   11.6700  -12.6970 C.2   114  PHE114      0.2595
    135  O         -2.0040   10.6020  -13.2780 O.2   114  PHE114     -0.2718
    136  CB        -1.7060   13.8230  -13.9220 C.3   114  PHE114      0.0547
    137  CG        -0.8660   13.1400  -14.9520 C.ar  114  PHE114     -0.0202
    138  CD1       -1.3090   13.0190  -16.2760 C.ar  114  PHE114     -0.0042
    139  CD2        0.3890   12.6150  -14.6240 C.ar  114  PHE114     -0.0042
    140  CE1       -0.5000   12.3670  -17.2430 C.ar  114  PHE114     -0.0003
    141  CE2        1.1790   11.9770  -15.5640 C.ar  114  PHE114     -0.0003
    142  CZ         0.7230   11.8370  -16.9020 C.ar  114  PHE114     -0.0000
    143  N         -1.2760   11.8360  -11.5730 N.am  115  LEU115     -0.1980
    144  CA        -0.5240   10.7040  -11.0450 C.3   115  LEU115      0.1596
    145  C         -1.4370    9.6610  -10.4100 C.2   115  LEU115      0.2287
    146  O         -1.2040    8.4720  -10.5630 O.2   115  LEU115     -0.2864
    147  CB         0.5270   11.1810  -10.0330 C.3   115  LEU115      0.0297
    148  CG         1.7040   11.9600  -10.6230 C.3   115  LEU115      0.0022
    149  CD1        2.5490   12.5160   -9.4850 C.3   115  LEU115      0.0001
    150  CD2        2.5750   11.0420  -11.5130 C.3   115  LEU115      0.0001
    151  N          6.1920    7.5380  -13.1830 N.3   126  TYR126     -0.1227
    152  CA         6.6030    8.9090  -13.4950 C.3   126  TYR126      0.1736
    153  C          7.7160    9.4060  -12.5760 C.2   126  TYR126      0.2595
    154  O          8.4790   10.2610  -12.9730 O.2   126  TYR126     -0.2718
    155  CB         5.3830    9.8810  -13.4970 C.3   126  TYR126      0.0548
    156  CG         4.4390    9.5750  -14.6360 C.ar  126  TYR126     -0.0200
    157  CD1        4.6540   10.1180  -15.9000 C.ar  126  TYR126     -0.0009
    158  CD2        3.3670    8.7080  -14.4460 C.ar  126  TYR126     -0.0009
    159  CE1        3.7830    9.8250  -16.9440 C.ar  126  TYR126      0.0417
    160  CE2        2.5090    8.3970  -15.4930 C.ar  126  TYR126      0.0417
    161  CZ         2.7360    8.9510  -16.7180 C.ar  126  TYR126      0.1957
    162  OH         1.8680    8.6390  -17.7460 O.3   126  TYR126     -0.2866
    163  N          7.8370    8.8740  -11.3510 N.am  127  PHE127     -0.1976
    164  CA         8.9620    9.2610  -10.5310 C.3   127  PHE127      0.1639
    165  C         10.2380    8.7240  -11.1330 C.2   127  PHE127      0.2290
    166  O         11.2720    9.4160  -11.1610 O.2   127  PHE127     -0.2864
    167  CB         8.7940    8.6930   -9.1120 C.3   127  PHE127      0.0560
    168  CG         7.5240    9.1370   -8.4460 C.ar  127  PHE127     -0.0200
    169  CD1        7.2010   10.5070   -8.3960 C.ar  127  PHE127     -0.0042
    170  CD2        6.6120    8.1890   -7.9640 C.ar  127  PHE127     -0.0042
    171  CE1        5.9970   10.9090   -7.7790 C.ar  127  PHE127     -0.0003
    172  CE2        5.4260    8.5880   -7.3720 C.ar  127  PHE127     -0.0003
    173  CZ         5.1200    9.9470   -7.2850 C.ar  127  PHE127     -0.0000
    174  N         11.1600   10.7920  -14.3560 N.3   130  VAL130     -0.1231
    175  CA        11.7770   12.0850  -14.0580 C.3   130  VAL130      0.1692
    176  C         13.1880   11.8840  -13.5460 C.2   130  VAL130      0.2591
    177  O         14.1640   12.5440  -14.0020 O.2   130  VAL130     -0.2718
    178  CB        10.9180   12.8480  -13.0060 C.3   130  VAL130      0.0266
    179  CG1       11.6590   14.0540  -12.4610 C.3   130  VAL130      0.0020
    180  CG2        9.5680   13.3180  -13.6670 C.3   130  VAL130      0.0020
    181  N         13.3270   11.0220  -12.5280 N.am  131  ILE131     -0.1980
    182  CA        14.6510   10.8720  -11.9040 C.3   131  ILE131      0.1595
    183  C         15.6420   10.2430  -12.8670 C.2   131  ILE131      0.2287
    184  O         16.8010   10.5930  -12.8410 O.2   131  ILE131     -0.2864
    185  CB        14.5890   10.1320  -10.5680 C.3   131  ILE131      0.0276
    186  CG1       13.8310   11.0310   -9.6150 C.3   131  ILE131      0.0022
    187  CG2       16.0290    9.8000  -10.0800 C.3   131  ILE131      0.0022
    188  CD1       14.6170   12.2060   -9.1460 C.3   131  ILE131      0.0001
    189  N         15.7120    7.3090   -3.9580 N.3   166  VAL166     -0.1245
    190  CA        14.6330    8.2790   -3.9690 C.3   166  VAL166      0.1561
    191  C         13.4520    7.7560   -4.8040 C.2   166  VAL166      0.2260
    192  O         12.2930    7.7900   -4.3750 O.2   166  VAL166     -0.2867
    193  CB        15.1210    9.6440   -4.4920 C.3   166  VAL166      0.0252
    194  CG1       13.9240   10.5730   -4.7010 C.3   166  VAL166      0.0019
    195  CG2       16.1690   10.2430   -3.4580 C.3   166  VAL166      0.0019
    196  N          9.7990    7.0440   -3.0480 N.3   170  MET170     -0.1245
    197  CA         8.6360    7.8100   -3.4910 C.3   170  MET170      0.1570
    198  C          7.6170    6.9000   -4.1290 C.2   170  MET170      0.2261
    199  O          6.4260    7.0700   -3.8920 O.2   170  MET170     -0.2867
    200  CB         9.0250    8.9310   -4.4310 C.3   170  MET170      0.0387
    201  CG         9.7740   10.0210   -3.7200 C.3   170  MET170      0.0595
    202  SD        10.2520   11.2540   -4.9140 S.3   170  MET170     -0.1393
    203  CE         8.6860   12.0550   -5.1760 C.3   170  MET170      0.0692
@<TRIPOS>BOND
     1     1     2    1
     2     3     2    1
     3     3     4    2
     4     2     5    1
     5     5     6    1
     6   162   161    1
     7     9    10    1
     8   140   142   ar
     9   140   138   ar
    10     6     7    1
    11     6     8    1
    12   159   161   ar
    13   159   157   ar
    14   142   141   ar
    15   161   160   ar
    16   138   137   ar
    17    18    19    2
    18    18    17    1
    19    16    17    1
    20    16    11   am
    21    10    13    1
    22    10    11    1
    23   157   156   ar
    24    15    13    1
    25    20    17    1
    26    20    21    1
    27   141   139   ar
    28   160   158   ar
    29    13    14    1
    30    11    12    2
    31    23    21   ar
    32    23    25   ar
    33   137   139   ar
    34   137   136    1
    35   156   158   ar
    36   156   155    1
    37    21    22   ar
    38   174   175    1
    39    25    26   ar
    40   175   176    1
    41   175   178    1
    42   177   176    2
    43   136   133    1
    44   180   178    1
    45   176   181   am
    46   155   152    1
    47   152   151    1
    48   152   153    1
    49   135   134    2
    50   133   134    1
    51   133   132    1
    52    22    24   ar
    53   178   179    1
    54   154   153    2
    55   183   184    2
    56   183   182    1
    57    26    24   ar
    58   134   143   am
    59   153   163   am
    60   181   182    1
    61    31    32    1
    62    31    28    1
    63    27    28    1
    64    33    32    1
    65    33    34    1
    66    29    28    1
    67    29    30    2
    68    35    34    1
    69   182   185    1
    70   143   144    1
    71   150   148    1
    72   163   164    1
    73   166   165    2
    74   165   164    1
    75   144   145    1
    76   144   147    1
    77   148   147    1
    78   148   149    1
    79   185   187    1
    80   185   186    1
    81   146   145    2
    82   164   167    1
    83    44    45    1
    84    44    41    1
    85    46    45   ar
    86    46    48   ar
    87    36    37    1
    88    45    47   ar
    89    48    49   ar
    90    40    41    1
    91    40    38   am
    92   186   188    1
    93    41    42    1
    94    42    43    2
    95   167   168    1
    96   126   125    2
    97    47    49   ar
    98   125   124    1
    99    37    38    1
   100    71    69   ar
   101    71    70   ar
   102    69    67   ar
   103    70    68   ar
   104    38    39    2
   105   127   124    1
   106   127   128    1
   107    67    66   ar
   108   130   129    2
   109    68    66   ar
   110   168   169   ar
   111   168   170   ar
   112   169   171   ar
   113    66    65    1
   114   124   123    1
   115    65    62    1
   116   170   172   ar
   117   128   129    1
   118   171   173   ar
   119   129   131   am
   120   172   173   ar
   121   120   122   ar
   122   120   118   ar
   123   122   121   ar
   124    62    61    1
   125    62    63    1
   126   116   115    2
   127    61    52   am
   128    63    64    2
   129    50    51    1
   130    59    58    1
   131   118   117    1
   132   118   119   ar
   133   117   114    1
   134    56    57    1
   135    56    55    1
   136   121   119   ar
   137   115   114    1
   138    54    51    1
   139    54    55    1
   140   203   202    1
   141    58    57    2
   142    58    60    1
   143    52    51    1
   144    52    53    2
   145   202   201    1
   146   114   113    1
   147   191   192    2
   148   191   190    1
   149   194   193    1
   150   193   190    1
   151   193   195    1
   152   200   201    1
   153   200   197    1
   154   198   199    2
   155   198   197    1
   156   190   189    1
   157   197   196    1
   158   113   109   am
   159    78    80   ar
   160    78    77   ar
   161    80    82   ar
   162   110   109    2
   163    76    77    1
   164    76    73    1
   165   109   108    1
   166    77    79   ar
   167   106   104    1
   168    82    81   ar
   169    72    73    1
   170   103   102    2
   171    74    73    1
   172    74    75    2
   173    79    81   ar
   174   102   101    1
   175   112   111    1
   176   104   101    1
   177   104   105    1
   178   108   111    1
   179   108   107    1
   180   101   100    1
   181   100    93   am
   182    94    93    2
   183    93    92    1
   184    86    85    2
   185    90    88    1
   186    88    89    1
   187    88    87    1
   188    85    84    1
   189    91    92    1
   190    92    95    1
   191    87    84    1
   192    84    83    1
   193    95    96    1
   194    96    97    1
   195    97    98    1
   196    98    99    1
