@<TRIPOS>MOLECULE
tmp/4bjbA00.pdb
 127 125 0 0 0
SMALL
GASTEIGER

@<TRIPOS>ATOM
      1  N         10.3200   -1.2450    9.0570 N.3    79  PHE79      -0.1227
      2  CA        11.1310   -1.7920   10.1430 C.3    79  PHE79       0.1736
      3  C         10.8010   -1.1290   11.4800 C.2    79  PHE79       0.2595
      4  O         10.4200    0.0400   11.5310 O.2    79  PHE79      -0.2718
      5  CB        12.6230   -1.6400    9.8270 C.3    79  PHE79       0.0547
      6  CG        13.0810   -2.4910    8.6790 C.ar   79  PHE79      -0.0202
      7  CD1       13.2410   -3.8660    8.8400 C.ar   79  PHE79      -0.0042
      8  CD2       13.3260   -1.9350    7.4350 C.ar   79  PHE79      -0.0042
      9  CE1       13.6480   -4.6600    7.7850 C.ar   79  PHE79      -0.0003
     10  CE2       13.7300   -2.7300    6.3730 C.ar   79  PHE79      -0.0003
     11  CZ        13.8980   -4.0910    6.5500 C.ar   79  PHE79      -0.0000
     12  N         10.9270   -1.9000   12.5560 N.am   80  HIS80      -0.1961
     13  CA        10.7920   -1.3720   13.9070 C.3    80  HIS80       0.1787
     14  C         11.8190   -2.0130   14.8260 C.2    80  HIS80       0.2621
     15  O         11.8760   -3.2410   14.9430 O.2    80  HIS80      -0.2715
     16  CB         9.3890   -1.6080   14.4640 C.3    80  HIS80       0.0785
     17  CG         9.1950   -1.0420   15.8350 C.ar   80  HIS80       0.0821
     18  ND1        8.9520    0.2960   16.0590 N.ar   80  HIS80      -0.2267
     19  CD2        9.2460   -1.6250   17.0560 C.ar   80  HIS80       0.1154
     20  CE1        8.8450    0.5100   17.3570 C.ar   80  HIS80       0.1986
     21  NE2        9.0190   -0.6400   17.9850 N.ar   80  HIS80      -0.2212
     22  N         12.6250   -1.1680   15.4650 N.am   81  GLY81      -0.1940
     23  CA        13.6550   -1.6080   16.3970 C.3    81  GLY81       0.2014
     24  C         13.2950   -1.1850   17.8070 C.2    81  GLY81       0.2640
     25  O         12.9610   -0.0210   18.0480 O.2    81  GLY81      -0.2714
     26  N         13.3700   -2.1350   18.7380 N.am   82  SER82      -0.1936
     27  CA        12.9860   -1.9000   20.1230 C.3    82  SER82       0.2040
     28  C         13.6000   -2.9610   21.0430 C.2    82  SER82       0.2485
     29  O         13.7960   -4.0990   20.6200 O.2    82  SER82      -0.2729
     30  CB        11.4620   -1.9390   20.2390 C.3    82  SER82       0.2129
     31  OG        11.0370   -2.1330   21.5730 O.3    82  SER82      -0.2179
     32  N         13.9010   -2.5910   22.3040 N.am   83  PRO83      -0.2726
     33  CA        14.2710   -3.5960   23.3110 C.3    83  PRO83       0.1402
     34  C         13.1240   -4.5430   23.7030 C.2    83  PRO83       0.2269
     35  O         13.3800   -5.5970   24.2770 O.2    83  PRO83      -0.2865
     36  CB        14.6870   -2.7490   24.5290 C.3    83  PRO83       0.0296
     37  CG        14.9530   -1.3810   23.9990 C.3    83  PRO83       0.0237
     38  CD        14.0300   -1.2180   22.8280 C.3    83  PRO83       0.0939
     39  N         10.0940   12.8260   17.7880 N.3    96  MET96      -0.1245
     40  CA        10.2500   13.6390   16.5860 C.3    96  MET96       0.1570
     41  C          8.9070   14.0250   15.9640 C.2    96  MET96       0.2261
     42  O          8.7810   15.1050   15.3840 O.2    96  MET96      -0.2867
     43  CB        11.1170   12.9050   15.5550 C.3    96  MET96       0.0387
     44  CG        12.5890   13.2800   15.6120 C.3    96  MET96       0.0595
     45  SD        12.9180   14.8880   14.8610 S.3    96  MET96      -0.1393
     46  CE        12.9090   14.4640   13.1200 C.3    96  MET96       0.0692
     47  N          5.7150   13.0950   17.8020 N.3    98  GLY98      -0.1210
     48  CA         4.7020   12.7970   18.8280 C.3    98  GLY98       0.1956
     49  C          5.0270   11.6190   19.7360 C.2    98  GLY98       0.2611
     50  O          6.1490   11.1120   19.7390 O.2    98  GLY98      -0.2717
     51  N          4.0320   11.1900   20.5130 N.am   99  ALA99      -0.1979
     52  CA         4.1850   10.0770   21.4510 C.3    99  ALA99       0.1597
     53  C          3.5410    8.8150   20.8850 C.2    99  ALA99       0.2287
     54  O          2.7380    8.1590   21.5500 O.2    99  ALA99      -0.2864
     55  CB         3.5700   10.4350   22.7980 C.3    99  ALA99       0.0319
     56  N          6.9940    4.3640   16.2640 N.3   102  TYR102     -0.1227
     57  CA         7.8130    4.7920   15.1310 C.3   102  TYR102      0.1736
     58  C          8.2940    3.6360   14.2520 C.2   102  TYR102      0.2595
     59  O          8.6270    2.5620   14.7520 O.2   102  TYR102     -0.2718
     60  CB         9.0170    5.5820   15.6300 C.3   102  TYR102      0.0548
     61  CG         8.6590    6.9360   16.1880 C.ar  102  TYR102     -0.0200
     62  CD1        7.8940    7.0520   17.3420 C.ar  102  TYR102     -0.0009
     63  CD2        9.0670    8.1020   15.5540 C.ar  102  TYR102     -0.0009
     64  CE1        7.5520    8.2910   17.8550 C.ar  102  TYR102      0.0417
     65  CE2        8.7370    9.3470   16.0620 C.ar  102  TYR102      0.0417
     66  CZ         7.9750    9.4340   17.2100 C.ar  102  TYR102      0.1957
     67  OH         7.6310   10.6610   17.7160 O.3   102  TYR102     -0.2866
     68  N          8.3320    3.8840   12.9390 N.am  103  PHE103     -0.1962
     69  CA         8.7650    2.9030   11.9380 C.3   103  PHE103      0.1771
     70  C          9.6930    3.5480   10.9030 C.2   103  PHE103      0.2619
     71  O          9.6240    4.7600   10.6800 O.2   103  PHE103     -0.2715
     72  CB         7.5500    2.2950   11.2370 C.3   103  PHE103      0.0574
     73  CG         6.6560    1.5120   12.1520 C.ar  103  PHE103     -0.0200
     74  CD1        5.6760    2.1480   12.8950 C.ar  103  PHE103     -0.0042
     75  CD2        6.8020    0.1400   12.2770 C.ar  103  PHE103     -0.0042
     76  CE1        4.8590    1.4290   13.7510 C.ar  103  PHE103     -0.0003
     77  CE2        5.9830   -0.5880   13.1300 C.ar  103  PHE103     -0.0003
     78  CZ         5.0150    0.0600   13.8690 C.ar  103  PHE103     -0.0000
     79  N         10.5500    2.7390   10.2720 N.am  104  ALA104     -0.1977
     80  CA        11.5440    3.2540    9.3150 C.3   104  ALA104      0.1597
     81  C         11.6330    2.4190    8.0420 C.2   104  ALA104      0.2287
     82  O         11.4290    1.2070    8.0650 O.2   104  ALA104     -0.2864
     83  CB        12.9130    3.3230    9.9660 C.3   104  ALA104      0.0319
     84  N         18.2620    2.6070   10.4680 N.3   109  LYS109     -0.1231
     85  CA        17.6380    3.5660   11.3900 C.3   109  LYS109      0.1693
     86  C         16.9890    2.8320   12.5770 C.2   109  LYS109      0.2592
     87  O         17.2000    3.2050   13.7300 O.2   109  LYS109     -0.2718
     88  CB        16.6280    4.4700   10.6510 C.3   109  LYS109      0.0285
     89  CG        15.7150    5.3260   11.5280 C.3   109  LYS109      0.0035
     90  CD        16.4580    6.1960   12.5360 C.3   109  LYS109      0.0206
     91  CE        17.2970    7.2720   11.8790 C.3   109  LYS109      0.1093
     92  NZ        17.7050    8.3200   12.8630 N.3   109  LYS109     -0.1314
     93  N         16.2220    1.7810   12.2980 N.am  110  SER110     -0.1952
     94  CA        15.6070    0.9860   13.3610 C.3   110  SER110      0.1924
     95  C         16.6560    0.2790   14.2240 C.2   110  SER110      0.2314
     96  O         16.4510    0.0740   15.4150 O.2   110  SER110     -0.2863
     97  CB        14.6450   -0.0460   12.7770 C.3   110  SER110      0.2116
     98  OG        13.5700    0.5790   12.1140 O.3   110  SER110     -0.2180
     99  N         17.7350    1.6920   17.5990 N.3   113  TYR113     -0.1241
    100  CA        16.8400    1.5930   18.7530 C.3   113  TYR113      0.1605
    101  C         16.7530    0.1940   19.3640 C.2   113  TYR113      0.2264
    102  O         15.9990   -0.0150   20.3140 O.2   113  TYR113     -0.2867
    103  CB        15.4450    2.0720   18.3590 C.3   113  TYR113      0.0534
    104  CG        15.4170    3.5500   18.0520 C.ar  113  TYR113     -0.0201
    105  CD1       15.1940    4.4840   19.0630 C.ar  113  TYR113     -0.0009
    106  CD2       15.6430    4.0190   16.7610 C.ar  113  TYR113     -0.0009
    107  CE1       15.1820    5.8430   18.7920 C.ar  113  TYR113      0.0417
    108  CE2       15.6310    5.3770   16.4830 C.ar  113  TYR113      0.0417
    109  CZ        15.4000    6.2820   17.5020 C.ar  113  TYR113      0.1957
    110  OH        15.3800    7.6300   17.2370 O.3   113  TYR113     -0.2866
    111  N         16.9080    4.0110   23.4560 N.3   117  ILE117     -0.1245
    112  CA        16.9310    5.3370   22.8260 C.3   117  ILE117      0.1561
    113  C         18.3680    5.7800   22.5700 C.2   117  ILE117      0.2260
    114  O         19.1910    5.7950   23.4820 O.2   117  ILE117     -0.2867
    115  CB        16.2140    6.4170   23.6760 C.3   117  ILE117      0.0252
    116  CG1       14.7590    6.0250   23.9750 C.3   117  ILE117      0.0019
    117  CG2       16.2570    7.7730   22.9710 C.3   117  ILE117      0.0019
    118  CD1       13.8930    5.8190   22.7490 C.3   117  ILE117      0.0001
    119  N         10.5780    8.1040    7.6070 N.3   177  GLU177     -0.1245
    120  CA        10.2090    7.5010    8.8790 C.3   177  GLU177      0.1567
    121  C          8.7320    7.8230    9.0850 C.2   177  GLU177      0.2260
    122  O          8.2360    8.8130    8.5430 O.2   177  GLU177     -0.2867
    123  CB        11.0760    8.0690   10.0110 C.3   177  GLU177      0.0388
    124  CG        12.5760    7.8200    9.8150 C.3   177  GLU177      0.1160
    125  CD        13.4680    8.7220   10.6570 C.2   177  GLU177      0.3649
    126  OE1       13.0100    9.2220   11.7010 O.co2 177  GLU177     -0.2457
    127  OE2       14.6410    8.9340   10.2760 O.co2 177  GLU177     -0.2457
@<TRIPOS>BOND
     1    10    11   ar
     2    10     8   ar
     3    11     9   ar
     4     8     6   ar
     5   119   120    1
     6     9     7   ar
     7    81    82    2
     8    81    80    1
     9   122   121    2
    10     6     7   ar
    11     6     5    1
    12   120   121    1
    13   120   123    1
    14     1     2    1
    15    80    83    1
    16    80    79    1
    17   124   123    1
    18   124   125    1
    19     5     2    1
    20     2     3    1
    21    79    70   am
    22   127   125   ar
    23    84    85    1
    24    88    85    1
    25    88    89    1
    26   125   126   ar
    27    71    70    2
    28    70    69    1
    29    72    69    1
    30    72    73    1
    31    85    86    1
    32     3     4    2
    33     3    12   am
    34    89    90    1
    35    91    90    1
    36    91    92    1
    37    69    68    1
    38    98    97    1
    39    73    75   ar
    40    73    74   ar
    41    75    77   ar
    42    93    86   am
    43    93    94    1
    44    12    13    1
    45    86    87    2
    46    97    94    1
    47    74    76   ar
    48    68    58   am
    49    46    45    1
    50    77    78   ar
    51    94    95    1
    52    76    78   ar
    53    13    16    1
    54    13    14    1
    55    95    96    2
    56    58    59    2
    57    58    57    1
    58    16    17    1
    59    14    15    2
    60    14    22   am
    61    45    44    1
    62    57    60    1
    63    57    56    1
    64    42    41    2
    65    22    23    1
    66    63    65   ar
    67    63    61   ar
    68    43    44    1
    69    43    40    1
    70    60    61    1
    71    17    18   ar
    72    17    19   ar
    73    41    40    1
    74    18    20   ar
    75    65    66   ar
    76    61    62   ar
    77    23    24    1
    78   108   106   ar
    79   108   109   ar
    80    40    39    1
    81   106   104   ar
    82    19    21   ar
    83    66    67    1
    84    66    64   ar
    85   110   109    1
    86    62    64   ar
    87    20    21   ar
    88   109   107   ar
    89    99   100    1
    90    47    48    1
    91    24    25    2
    92    24    26   am
    93   104   103    1
    94   104   105   ar
    95   103   100    1
    96    26    27    1
    97   100   101    1
    98   107   105   ar
    99    48    49    1
   100   101   102    2
   101    49    50    2
   102    49    51   am
   103    27    30    1
   104    27    28    1
   105    30    31    1
   106    51    52    1
   107    29    28    2
   108    53    52    1
   109    53    54    2
   110    28    32   am
   111    52    55    1
   112    32    38    1
   113    32    33    1
   114   113   112    1
   115   113   114    2
   116   118   116    1
   117   112   111    1
   118   112   115    1
   119    38    37    1
   120   117   115    1
   121    33    34    1
   122    33    36    1
   123   115   116    1
   124    34    35    2
   125    37    36    1
