@<TRIPOS>MOLECULE
tmp/4bjcA00.pdb
 101 98 0 0 0
SMALL
GASTEIGER

@<TRIPOS>ATOM
      1  N         10.8710   -1.5660   12.7240 N.3    80  HIS80      -0.1226
      2  CA        10.6900   -1.0330   14.0710 C.3    80  HIS80       0.1752
      3  C         11.6780   -1.7010   15.0240 C.2    80  HIS80       0.2597
      4  O         11.6590   -2.9230   15.1850 O.2    80  HIS80      -0.2718
      5  CB         9.2670   -1.2680   14.5730 C.3    80  HIS80       0.0759
      6  CG         8.9950   -0.6550   15.9130 C.ar   80  HIS80       0.0818
      7  ND1        8.6740    0.6770   16.0720 N.ar   80  HIS80      -0.2268
      8  CD2        9.0240   -1.1850   17.1600 C.ar   80  HIS80       0.1154
      9  CE1        8.5050    0.9390   17.3560 C.ar   80  HIS80       0.1986
     10  NE2        8.7140   -0.1740   18.0380 N.ar   80  HIS80      -0.2212
     11  N         12.5410   -0.8930   15.6350 N.am   81  GLY81      -0.1942
     12  CA        13.5010   -1.3650   16.6230 C.3    81  GLY81       0.2014
     13  C         13.0920   -0.8970   18.0030 C.2    81  GLY81       0.2639
     14  O         12.6980    0.2580   18.1810 O.2    81  GLY81      -0.2714
     15  N         13.1900   -1.7970   18.9780 N.am   82  SER82      -0.1949
     16  CA        12.7230   -1.5410   20.3330 C.3    82  SER82       0.1924
     17  C         13.3490   -2.5300   21.3150 C.2    82  SER82       0.2314
     18  O         13.5300   -3.6970   20.9780 O.2    82  SER82      -0.2863
     19  CB        11.2040   -1.6930   20.3860 C.3    82  SER82       0.2116
     20  OG        10.7110   -1.5750   21.7090 O.3    82  SER82      -0.2180
     21  N          4.7940   10.6450   21.5010 N.3    98  ALA98      -0.1231
     22  CA         3.5320   10.0370   21.9200 C.3    98  ALA98       0.1694
     23  C          3.0380    8.9830   20.9260 C.2    98  ALA98       0.2592
     24  O          2.2170    8.1320   21.2750 O.2    98  ALA98      -0.2718
     25  CB         2.4720   11.1090   22.1150 C.3    98  ALA98       0.0304
     26  N          3.5300    9.0500   19.6920 N.am   99  GLY99      -0.1957
     27  CA         3.1680    8.0870   18.6560 C.3    99  GLY99       0.1869
     28  C          4.0960    6.8880   18.5960 C.2    99  GLY99       0.2309
     29  O          5.0310    6.7640   19.3910 O.2    99  GLY99      -0.2863
     30  N          6.6980    4.8990   16.1280 N.3   101  TYR101     -0.1227
     31  CA         7.5450    5.2720   14.9920 C.3   101  TYR101      0.1736
     32  C          8.0510    4.0710   14.1870 C.2   101  TYR101      0.2595
     33  O          8.3720    3.0210   14.7510 O.2   101  TYR101     -0.2718
     34  CB         8.7440    6.0810   15.4830 C.3   101  TYR101      0.0548
     35  CG         8.4000    7.4720   15.9650 C.ar  101  TYR101     -0.0200
     36  CD1        7.7300    7.6670   17.1680 C.ar  101  TYR101     -0.0009
     37  CD2        8.7450    8.5920   15.2170 C.ar  101  TYR101     -0.0009
     38  CE1        7.4120    8.9370   17.6110 C.ar  101  TYR101      0.0417
     39  CE2        8.4310    9.8670   15.6510 C.ar  101  TYR101      0.0417
     40  CZ         7.7650   10.0330   16.8480 C.ar  101  TYR101      0.1957
     41  OH         7.4510   11.2960   17.2830 O.3   101  TYR101     -0.2866
     42  N          8.1360    4.2500   12.8670 N.am  102  PHE102     -0.1962
     43  CA         8.6160    3.2150   11.9440 C.3   102  PHE102      0.1771
     44  C          9.5560    3.8150   10.9020 C.2   102  PHE102      0.2619
     45  O          9.4320    4.9900   10.5580 O.2   102  PHE102     -0.2715
     46  CB         7.4410    2.5320   11.2450 C.3   102  PHE102      0.0574
     47  CG         6.5250    1.8050   12.1810 C.ar  102  PHE102     -0.0200
     48  CD1        5.4770    2.4680   12.8000 C.ar  102  PHE102     -0.0042
     49  CD2        6.7210    0.4610   12.4570 C.ar  102  PHE102     -0.0042
     50  CE1        4.6380    1.7980   13.6720 C.ar  102  PHE102     -0.0003
     51  CE2        5.8870   -0.2130   13.3290 C.ar  102  PHE102     -0.0003
     52  CZ         4.8430    0.4550   13.9360 C.ar  102  PHE102     -0.0000
     53  N         10.4880    3.0010   10.4030 N.am  103  ALA103     -0.1977
     54  CA        11.5140    3.4660    9.4730 C.3   103  ALA103      0.1597
     55  C         11.5040    2.6770    8.1660 C.2   103  ALA103      0.2287
     56  O         11.2310    1.4760    8.1590 O.2   103  ALA103     -0.2864
     57  CB        12.8830    3.3580   10.1200 C.3   103  ALA103      0.0319
     58  N         18.1450    2.7570   10.5650 N.3   108  LYS108     -0.1231
     59  CA        17.5340    3.7400   11.4670 C.3   108  LYS108      0.1693
     60  C         16.8830    3.0200   12.6440 C.2   108  LYS108      0.2592
     61  O         17.1010    3.3850   13.7950 O.2   108  LYS108     -0.2718
     62  CB        16.5240    4.6340   10.7270 C.3   108  LYS108      0.0285
     63  CG        15.5740    5.4340   11.6120 C.3   108  LYS108      0.0035
     64  CD        16.2660    6.2820   12.6720 C.3   108  LYS108      0.0206
     65  CE        17.0920    7.4020   12.0840 C.3   108  LYS108      0.1093
     66  NZ        17.4430    8.3930   13.1400 N.3   108  LYS108     -0.1314
     67  N         16.1000    1.9870   12.3610 N.am  109  SER109     -0.1952
     68  CA        15.5030    1.1800   13.4230 C.3   109  SER109      0.1924
     69  C         16.5720    0.4940   14.2820 C.2   109  SER109      0.2314
     70  O         16.4130    0.3580   15.4990 O.2   109  SER109     -0.2863
     71  CB        14.5470    0.1460   12.8370 C.3   109  SER109      0.2116
     72  OG        13.4230    0.7820   12.2610 O.3   109  SER109     -0.2180
     73  N         17.6750    2.0260   17.5840 N.3   112  TYR112     -0.1241
     74  CA        16.7920    1.9860   18.7540 C.3   112  TYR112      0.1605
     75  C         16.6300    0.6220   19.4270 C.2   112  TYR112      0.2264
     76  O         15.8670    0.5080   20.3870 O.2   112  TYR112     -0.2867
     77  CB        15.4050    2.5120   18.3690 C.3   112  TYR112      0.0534
     78  CG        15.4220    3.9680   17.9810 C.ar  112  TYR112     -0.0201
     79  CD1       15.3580    4.9660   18.9520 C.ar  112  TYR112     -0.0009
     80  CD2       15.5190    4.3520   16.6520 C.ar  112  TYR112     -0.0009
     81  CE1       15.3820    6.3040   18.6040 C.ar  112  TYR112      0.0417
     82  CE2       15.5460    5.6870   16.2950 C.ar  112  TYR112      0.0417
     83  CZ        15.4750    6.6570   17.2740 C.ar  112  TYR112      0.1957
     84  OH        15.5000    7.9810   16.9230 O.3   112  TYR112     -0.2866
     85  N         17.0240    4.5490   23.3610 N.3   116  ILE116     -0.1245
     86  CA        17.0860    5.8330   22.6610 C.3   116  ILE116      0.1561
     87  C         18.5410    6.2470   22.4600 C.2   116  ILE116      0.2260
     88  O         19.3320    6.2170   23.3990 O.2   116  ILE116     -0.2867
     89  CB        16.3380    6.9480   23.4270 C.3   116  ILE116      0.0252
     90  CG1       14.8560    6.5880   23.5890 C.3   116  ILE116      0.0019
     91  CG2       16.4870    8.2870   22.7020 C.3   116  ILE116      0.0019
     92  CD1       14.0820    7.5510   24.4650 C.3   116  ILE116      0.0001
     93  N         10.4300    8.3490    7.4660 N.3   174  GLU174     -0.1245
     94  CA        10.0670    7.7750    8.7560 C.3   174  GLU174      0.1567
     95  C          8.5930    8.0950    8.9940 C.2   174  GLU174      0.2260
     96  O          8.1070    9.1320    8.5510 O.2   174  GLU174     -0.2867
     97  CB        10.9520    8.3550    9.8640 C.3   174  GLU174      0.0388
     98  CG        12.4450    8.1300    9.6280 C.3   174  GLU174      0.1160
     99  CD        13.3370    8.9440   10.5480 C.2   174  GLU174      0.3649
    100  OE1       12.8500    9.4530   11.5740 O.co2 174  GLU174     -0.2457
    101  OE2       14.5360    9.0770   10.2400 O.co2 174  GLU174     -0.2457
@<TRIPOS>BOND
     1    93    94    1
     2    56    55    2
     3    55    54    1
     4    96    95    2
     5    94    95    1
     6    94    97    1
     7    54    57    1
     8    54    53    1
     9    98    97    1
    10    98    99    1
    11   101    99   ar
    12    53    44   am
    13    99   100   ar
    14    45    44    2
    15    58    59    1
    16    62    59    1
    17    62    63    1
    18    44    43    1
    19    46    43    1
    20    46    47    1
    21    59    60    1
    22    63    64    1
    23    43    42    1
    24    65    64    1
    25    65    66    1
    26    47    49   ar
    27    47    48   ar
    28    72    71    1
    29    67    60   am
    30    67    68    1
    31    49    51   ar
    32    60    61    2
    33     1     2    1
    34    48    50   ar
    35    71    68    1
    36    42    32   am
    37    51    52   ar
    38    68    69    1
    39    50    52   ar
    40     2     5    1
    41     2     3    1
    42    32    33    2
    43    32    31    1
    44    69    70    2
    45     5     6    1
    46    31    34    1
    47    31    30    1
    48     3     4    2
    49     3    11   am
    50    37    39   ar
    51    37    35   ar
    52    34    35    1
    53    11    12    1
    54    39    40   ar
    55     6     7   ar
    56     6     8   ar
    57    35    36   ar
    58     7     9   ar
    59    82    80   ar
    60    82    83   ar
    61    12    13    1
    62    80    78   ar
    63    40    41    1
    64    40    38   ar
    65    84    83    1
    66     8    10   ar
    67    36    38   ar
    68    83    81   ar
    69     9    10   ar
    70    73    74    1
    71    78    77    1
    72    78    79   ar
    73    13    14    2
    74    13    15   am
    75    77    74    1
    76    28    27    1
    77    28    29    2
    78    81    79   ar
    79    27    26    1
    80    74    75    1
    81    15    16    1
    82    75    76    2
    83    26    23   am
    84    16    19    1
    85    16    17    1
    86    19    20    1
    87    23    24    2
    88    23    22    1
    89    18    17    2
    90    21    22    1
    91    22    25    1
    92    87    86    1
    93    87    88    2
    94    86    85    1
    95    86    89    1
    96    91    89    1
    97    89    90    1
    98    90    92    1
