@<TRIPOS>MOLECULE
tmp/4bjhA00.pdb
 103 96 0 0 0
SMALL
GASTEIGER

@<TRIPOS>ATOM
      1  N         -5.6090  -51.2580  -28.7530 N.3    63  HIS63      -0.1241
      2  CA        -6.3830  -52.4880  -28.7070 C.3    63  HIS63       0.1621
      3  C         -7.7880  -52.2230  -28.1910 C.2    63  HIS63       0.2264
      4  O         -7.9620  -51.8800  -27.0290 O.2    63  HIS63      -0.2867
      5  CB        -5.6570  -53.5650  -27.8910 C.3    63  HIS63       0.0745
      6  CG        -4.4080  -54.0330  -28.5500 C.ar   63  HIS63       0.0817
      7  ND1       -4.3910  -55.0740  -29.4540 N.ar   63  HIS63      -0.2268
      8  CD2       -3.1540  -53.5210  -28.5390 C.ar   63  HIS63       0.1154
      9  CE1       -3.1610  -55.2220  -29.9220 C.ar   63  HIS63       0.1986
     10  NE2       -2.3980  -54.2780  -29.4050 N.ar   63  HIS63      -0.2212
     11  N        -10.2320  -54.5740  -28.4110 N.3    65  ARG65      -0.1245
     12  CA       -10.7480  -55.8600  -27.9110 C.3    65  ARG65       0.1563
     13  C        -12.1160  -56.2100  -28.4660 C.2    65  ARG65       0.2260
     14  O        -12.8410  -57.0300  -27.9010 O.2    65  ARG65      -0.2867
     15  CB       -10.7850  -55.8890  -26.3760 C.3    65  ARG65       0.0307
     16  CG        -9.4900  -55.4310  -25.7180 C.3    65  ARG65       0.0489
     17  CD        -8.3510  -56.3730  -26.1170 C.3    65  ARG65       0.2205
     18  NE        -7.2060  -56.2130  -25.2320 N.pl3  65  ARG65      -0.0865
     19  CZ        -5.9320  -56.4410  -25.5630 C.cat  65  ARG65       0.5346
     20  NH1       -5.5860  -56.8550  -26.7990 N.pl3  65  ARG65       0.1354
     21  NH2       -4.9940  -56.2570  -24.6290 N.pl3  65  ARG65       0.1354
     22  N         -5.7160  -58.0130  -33.6980 N.3    95  ASN95      -0.1240
     23  CA        -5.7340  -59.2150  -32.8530 C.3    95  ASN95       0.1653
     24  C         -7.0340  -59.3930  -32.0410 C.2    95  ASN95       0.2266
     25  O         -7.0340  -59.7940  -30.8630 O.2    95  ASN95      -0.2867
     26  CB        -4.4880  -59.3300  -31.9500 C.3    95  ASN95       0.1155
     27  CG        -4.4140  -58.2620  -30.8660 C.2    95  ASN95       0.2627
     28  OD1       -5.0540  -57.2010  -30.9390 O.2    95  ASN95      -0.2716
     29  ND2       -3.5990  -58.5320  -29.8540 N.am   95  ASN95      -0.0877
     30  N          0.4540  -57.8880  -35.0460 N.3   153  ASP153     -0.1225
     31  CA         0.3790  -57.5510  -33.6170 C.3   153  ASP153      0.1805
     32  C         -0.7140  -58.3720  -32.8670 C.2   153  ASP153      0.2598
     33  O         -1.8570  -58.4000  -33.2990 O.2   153  ASP153     -0.2718
     34  CB         0.1210  -56.0450  -33.4400 C.3   153  ASP153      0.1424
     35  CG         0.2300  -55.5900  -31.9560 C.2   153  ASP153      0.3668
     36  OD1        1.2860  -55.8090  -31.2970 O.co2 153  ASP153     -0.2456
     37  OD2       -0.7310  -54.9910  -31.4490 O.co2 153  ASP153     -0.2456
     38  N         -0.3780  -59.0210  -31.7520 N.am  154  GLY154     -0.1957
     39  CA         0.9280  -58.8690  -31.1090 C.3   154  GLY154      0.1869
     40  C          1.8460  -60.0430  -31.3560 C.2   154  GLY154      0.2309
     41  O          2.6660  -60.3630  -30.4880 O.2   154  GLY154     -0.2863
     42  N          5.2400  -55.9020  -35.2610 N.3   180  ALA180     -0.1245
     43  CA         5.4160  -56.3300  -33.8710 C.3   180  ALA180      0.1562
     44  C          6.6900  -57.1830  -33.8700 C.2   180  ALA180      0.2260
     45  O          6.6880  -58.3910  -34.2530 O.2   180  ALA180     -0.2867
     46  CB         4.2080  -57.1570  -33.4400 C.3   180  ALA180      0.0290
     47  N          4.3930  -56.6870  -20.1190 N.3   277  VAL277     -0.1231
     48  CA         4.0640  -56.1100  -21.4110 C.3   277  VAL277      0.1692
     49  C          5.0520  -56.6460  -22.4690 C.2   277  VAL277      0.2592
     50  O          6.1860  -57.0080  -22.1080 O.2   277  VAL277     -0.2718
     51  CB         4.0950  -54.5490  -21.3470 C.3   277  VAL277      0.0266
     52  CG1        5.4640  -54.0170  -20.8520 C.3   277  VAL277      0.0020
     53  CG2        3.7160  -53.9330  -22.6820 C.3   277  VAL277      0.0020
     54  N          4.6070  -56.7480  -23.7320 N.am  278  ASN278     -0.1974
     55  CA         5.4750  -57.1200  -24.8740 C.3   278  ASN278      0.1688
     56  C          5.5400  -55.9090  -25.8350 C.2   278  ASN278      0.2292
     57  O          4.4930  -55.3560  -26.2010 O.2   278  ASN278     -0.2864
     58  CB         4.9670  -58.3810  -25.6380 C.3   278  ASN278      0.1181
     59  CG         4.9340  -59.6590  -24.7600 C.2   278  ASN278      0.2629
     60  OD1        5.6070  -59.7280  -23.7130 O.2   278  ASN278     -0.2716
     61  ND2        4.1580  -60.6940  -25.2030 N.am  278  ASN278     -0.0877
     62  N         -0.1130  -48.3080  -27.5190 N.3   305  ASP305     -0.1239
     63  CA        -0.3210  -49.7400  -27.3900 C.3   305  ASP305      0.1674
     64  C         -1.2460  -49.9720  -26.1720 C.2   305  ASP305      0.2266
     65  O         -1.0270  -50.8650  -25.3550 O.2   305  ASP305     -0.2867
     66  CB         0.9840  -50.5410  -27.2870 C.3   305  ASP305      0.1410
     67  CG         0.7550  -52.0310  -27.5030 C.2   305  ASP305      0.3668
     68  OD1       -0.3800  -52.4010  -27.8400 O.co2 305  ASP305     -0.2456
     69  OD2        1.6800  -52.8620  -27.3260 O.co2 305  ASP305     -0.2456
     70  N         -3.4740  -51.5540  -24.1120 N.3   307  ALA307     -0.1245
     71  CA        -3.7190  -52.9920  -24.1780 C.3   307  ALA307      0.1562
     72  C         -4.3840  -53.4500  -22.9060 C.2   307  ALA307      0.2260
     73  O         -3.7110  -53.9060  -21.9660 O.2   307  ALA307     -0.2867
     74  CB        -2.4240  -53.7830  -24.4530 C.3   307  ALA307      0.0290
     75  N         -6.3860  -55.5220  -20.1460 N.3   309  HIS309     -0.1241
     76  CA        -6.6700  -56.8920  -19.6810 C.3   309  HIS309      0.1621
     77  C         -7.3120  -56.7730  -18.3130 C.2   309  HIS309      0.2264
     78  O         -7.0240  -55.8310  -17.5610 O.2   309  HIS309     -0.2867
     79  CB        -5.3920  -57.7130  -19.5690 C.3   309  HIS309      0.0745
     80  CG        -4.7590  -58.0160  -20.8850 C.ar  309  HIS309      0.0817
     81  ND1       -5.3660  -58.8060  -21.8470 N.ar  309  HIS309     -0.2268
     82  CD2       -3.5880  -57.5950  -21.4250 C.ar  309  HIS309      0.1154
     83  CE1       -4.5790  -58.8830  -22.9070 C.ar  309  HIS309      0.1986
     84  NE2       -3.4940  -58.1610  -22.6780 N.ar  309  HIS309     -0.2212
     85  N         -1.6870  -61.9670  -18.8260 N.3   321  MET321     -0.1231
     86  CA        -1.6960  -61.4080  -20.1680 C.3   321  MET321      0.1687
     87  C         -0.7780  -60.1670  -20.2450 C.2   321  MET321      0.2434
     88  O         -0.7930  -59.3180  -19.3510 O.2   321  MET321     -0.2733
     89  CB        -3.1290  -61.0600  -20.5630 C.3   321  MET321      0.0400
     90  CG        -4.0730  -62.3060  -20.7070 C.3   321  MET321      0.0596
     91  SD        -3.3830  -63.5300  -21.8590 S.3   321  MET321     -0.1393
     92  CE        -3.8160  -62.7330  -23.4060 C.3   321  MET321      0.0692
     93  N          0.0310  -60.0590  -21.3140 N.am  322  PRO322     -0.2718
     94  CA         0.8780  -58.8630  -21.4080 C.3   322  PRO322      0.1535
     95  C          0.0750  -57.6350  -21.8740 C.2   322  PRO322      0.2599
     96  O         -0.7980  -57.7590  -22.7320 O.2   322  PRO322     -0.2715
     97  CB         1.9200  -59.2580  -22.4590 C.3   322  PRO322      0.0310
     98  CG         1.1170  -60.2750  -23.3990 C.3   322  PRO322      0.0237
     99  CD         0.1540  -60.9710  -22.4830 C.3   322  PRO322      0.0939
    100  N          0.3810  -56.4680  -21.3180 N.am  323  GLY323     -0.1955
    101  CA        -0.1530  -55.2020  -21.8240 C.3   323  GLY323      0.1869
    102  C         -0.4870  -54.2070  -20.7190 C.2   323  GLY323      0.2309
    103  O         -0.7480  -54.5900  -19.5500 O.2   323  GLY323     -0.2863
@<TRIPOS>BOND
     1    42    43    1
     2    30    31    1
     3    45    44    2
     4    43    44    1
     5    43    46    1
     6    22    23    1
     7    31    34    1
     8    31    32    1
     9    34    35    1
    10    33    32    2
    11    32    38   am
    12    23    24    1
    13    23    26    1
    14    24    25    2
    15    35    37   ar
    16    35    36   ar
    17    26    27    1
    18    38    39    1
    19    40    39    1
    20    40    41    2
    21    28    27    2
    22    27    29   am
    23     9     7   ar
    24     9    10   ar
    25     7     6   ar
    26    10     8   ar
    27     1     2    1
    28     2     3    1
    29     2     5    1
    30     6     8   ar
    31     6     5    1
    32    13    12    1
    33    13    14    2
    34    11    12    1
    35     3     4    2
    36    12    15    1
    37    68    67   ar
    38    62    63    1
    39    67    69   ar
    40    67    66    1
    41    63    66    1
    42    63    64    1
    43    20    19    1
    44    15    16    1
    45    57    56    2
    46    64    65    2
    47    17    16    1
    48    17    18    1
    49    56    55    1
    50    58    55    1
    51    58    59    1
    52    19    18    2
    53    19    21    1
    54    61    59   am
    55    55    54    1
    56    59    60    2
    57    74    71    1
    58    71    70    1
    59    71    72    1
    60    54    49   am
    61    92    91    1
    62    98    99    1
    63    98    97    1
    64    83    84   ar
    65    83    81   ar
    66    72    73    2
    67    96    95    2
    68    53    51    1
    69    84    82   ar
    70    99    93    1
    71    49    50    2
    72    49    48    1
    73    97    94    1
    74    95    94    1
    75    95   100   am
    76    91    90    1
    77    81    80   ar
    78   101   100    1
    79   101   102    1
    80    82    80   ar
    81    48    51    1
    82    48    47    1
    83    94    93    1
    84    51    52    1
    85    93    87   am
    86    80    79    1
    87   102   103    2
    88    90    89    1
    89    89    86    1
    90    87    86    1
    91    87    88    2
    92    86    85    1
    93    75    76    1
    94    76    79    1
    95    76    77    1
    96    77    78    2
