@<TRIPOS>MOLECULE
tmp/4bjhB00.pdb
 135 130 0 0 0
SMALL
GASTEIGER

@<TRIPOS>ATOM
      1  N          7.6280  -83.7060   -8.3030 N.3    44  PRO44      -0.2102
      2  CA         8.2680  -84.7970   -7.5940 C.3    44  PRO44       0.1504
      3  C          9.1680  -84.2650   -6.4990 C.2    44  PRO44       0.2576
      4  O          9.7250  -83.1360   -6.5830 O.2    44  PRO44      -0.2718
      5  CB         9.1280  -85.4580   -8.6960 C.3    44  PRO44       0.0282
      6  CG         8.4150  -85.1270   -9.9810 C.3    44  PRO44       0.0208
      7  CD         7.8760  -83.7510   -9.7640 C.3    44  PRO44       0.0893
      8  N          9.3550  -85.1070   -5.4980 N.am   45  SER45      -0.1938
      9  CA        10.2320  -84.8170   -4.4190 C.3    45  SER45       0.2055
     10  C         10.4470  -86.1270   -3.6680 C.2    45  SER45       0.2644
     11  O          9.4980  -86.9010   -3.5050 O.2    45  SER45      -0.2714
     12  CB         9.5650  -83.8140   -3.4750 C.3    45  SER45       0.2130
     13  OG        10.4240  -83.5770   -2.3720 O.3    45  SER45      -0.2179
     14  N         11.6800  -86.3550   -3.2050 N.am   46  THR46      -0.1936
     15  CA        11.9180  -87.3700   -2.1890 C.3    46  THR46       0.2028
     16  C         12.3220  -86.6630   -0.8910 C.2    46  THR46       0.2642
     17  O         11.5830  -86.6680    0.1030 O.2    46  THR46      -0.2714
     18  CB        12.9730  -88.4320   -2.6580 C.3    46  THR46       0.1808
     19  OG1       12.4660  -89.1380   -3.8120 O.3    46  THR46      -0.2208
     20  CG2       13.2870  -89.4290   -1.5820 C.3    46  THR46       0.0379
     21  N         13.4840  -86.0360   -0.8840 N.am   47  ARG47      -0.1963
     22  CA        14.0420  -85.5960    0.3780 C.3    47  ARG47       0.1729
     23  C         13.3540  -84.3750    0.9840 C.2    47  ARG47       0.2616
     24  O         13.1600  -84.3260    2.2100 O.2    47  ARG47      -0.2715
     25  CB        15.5650  -85.3910    0.2850 C.3    47  ARG47       0.0348
     26  CG        16.0290  -84.2520   -0.6480 C.3    47  ARG47       0.0492
     27  CD        17.5480  -84.2820   -0.8250 C.3    47  ARG47       0.2205
     28  NE        17.8860  -85.3790   -1.7430 N.pl3  47  ARG47      -0.0865
     29  CZ        19.1130  -85.7090   -2.1220 C.cat  47  ARG47       0.5346
     30  NH1       20.1620  -85.0260   -1.6690 N.pl3  47  ARG47       0.1354
     31  NH2       19.2920  -86.7340   -2.9670 N.pl3  47  ARG47       0.1354
     32  N         12.9970  -83.4020    0.1490 N.am   48  THR48      -0.1951
     33  CA        12.3610  -82.1820    0.6310 C.3    48  THR48       0.1897
     34  C         11.0230  -82.5280    1.2750 C.2    48  THR48       0.2313
     35  O         10.7760  -82.1430    2.4330 O.2    48  THR48      -0.2863
     36  CB        12.1760  -81.1610   -0.5110 C.3    48  THR48       0.1794
     37  OG1       13.4700  -80.8160   -1.0350 O.3    48  THR48      -0.2208
     38  CG2       11.4780  -79.8730   -0.0260 C.3    48  THR48       0.0378
     39  N          4.9810  -77.3170   -3.0990 N.3    97  ARG97      -0.1245
     40  CA         5.9400  -77.3180   -4.1850 C.3    97  ARG97       0.1563
     41  C          5.1240  -77.2840   -5.4610 C.2    97  ARG97       0.2260
     42  O          4.2580  -78.1270   -5.6580 O.2    97  ARG97      -0.2867
     43  CB         6.8310  -78.5720   -4.1570 C.3    97  ARG97       0.0307
     44  CG         7.7510  -78.6730   -5.4170 C.3    97  ARG97       0.0489
     45  CD         8.7720  -79.8230   -5.3290 C.3    97  ARG97       0.2205
     46  NE         9.8600  -79.4420   -4.4390 N.pl3  97  ARG97      -0.0865
     47  CZ        10.9900  -80.1230   -4.3360 C.cat  97  ARG97       0.5346
     48  NH1       11.1500  -81.2430   -5.0330 N.pl3  97  ARG97       0.1354
     49  NH2       11.9490  -79.6880   -3.5430 N.pl3  97  ARG97       0.1354
     50  N         13.4210  -71.8340   -3.2520 N.3   126  HIS126     -0.1241
     51  CA        13.4220  -73.0650   -2.4750 C.3   126  HIS126      0.1621
     52  C         14.1450  -72.7040   -1.1560 C.2   126  HIS126      0.2264
     53  O         15.2700  -73.1190   -0.9120 O.2   126  HIS126     -0.2867
     54  CB        14.1400  -74.1700   -3.2690 C.3   126  HIS126      0.0745
     55  CG        14.0220  -75.5110   -2.6410 C.ar  126  HIS126      0.0817
     56  ND1       13.4480  -75.7160   -1.3990 N.ar  126  HIS126     -0.2268
     57  CD2       14.4250  -76.7310   -3.0800 C.ar  126  HIS126      0.1154
     58  CE1       13.4620  -77.0080   -1.1190 C.ar  126  HIS126      0.1986
     59  NE2       14.0380  -77.6440   -2.1270 N.ar  126  HIS126     -0.2212
     60  N         16.0160  -75.0800    1.1770 N.3   129  GLN129     -0.1245
     61  CA        17.2570  -75.6290    0.6570 C.3   129  GLN129      0.1566
     62  C         18.4070  -74.6050    0.7790 C.2   129  GLN129      0.2260
     63  O         19.5240  -74.9670    1.0700 O.2   129  GLN129     -0.2867
     64  CB        17.1010  -76.1100   -0.7830 C.3   129  GLN129      0.0367
     65  CG        18.3270  -76.8830   -1.2990 C.3   129  GLN129      0.0905
     66  CD        18.4540  -78.2350   -0.6250 C.2   129  GLN129      0.2608
     67  OE1       17.4630  -78.9280   -0.4950 O.2   129  GLN129     -0.2717
     68  NE2       19.6590  -78.6010   -0.1600 N.am  129  GLN129     -0.0878
     69  N         16.2200  -72.8400   -8.5610 N.3   159  ARG159     -0.1231
     70  CA        15.6520  -72.2080   -7.3670 C.3   159  ARG159      0.1694
     71  C         16.5910  -72.4440   -6.1690 C.2   159  ARG159      0.2591
     72  O         16.5540  -71.6920   -5.1960 O.2   159  ARG159     -0.2718
     73  CB        14.2340  -72.7480   -7.0790 C.3   159  ARG159      0.0321
     74  CG        14.1300  -74.2700   -6.8650 C.3   159  ARG159      0.0489
     75  CD        12.6770  -74.7530   -6.9210 C.3   159  ARG159      0.2205
     76  NE        12.5510  -76.2020   -6.8380 N.pl3 159  ARG159     -0.0865
     77  CZ        11.4720  -76.8800   -7.2190 C.cat 159  ARG159      0.5346
     78  NH1       10.4300  -76.2320   -7.7210 N.pl3 159  ARG159      0.1354
     79  NH2       11.4580  -78.1950   -7.1290 N.pl3 159  ARG159      0.1354
     80  N         17.4200  -73.4950   -6.2290 N.am  160  VAL160     -0.1980
     81  CA        18.4150  -73.7350   -5.1750 C.3   160  VAL160      0.1595
     82  C         19.4750  -72.6070   -5.1300 C.2   160  VAL160      0.2287
     83  O         19.7520  -72.0560   -4.0730 O.2   160  VAL160     -0.2864
     84  CB        19.0630  -75.1280   -5.2990 C.3   160  VAL160      0.0276
     85  CG1       20.1790  -75.3060   -4.2420 C.3   160  VAL160      0.0022
     86  CG2       17.9820  -76.2190   -5.1640 C.3   160  VAL160      0.0022
     87  N         21.8520  -79.8980  -10.5630 N.3   213  ARG213     -0.1245
     88  CA        21.3430  -80.8030  -11.5880 C.3   213  ARG213      0.1563
     89  C         20.7850  -79.9550  -12.7390 C.2   213  ARG213      0.2260
     90  O         20.1670  -78.8830  -12.5450 O.2   213  ARG213     -0.2867
     91  CB        20.2750  -81.6470  -10.9050 C.3   213  ARG213      0.0307
     92  CG        19.4750  -82.7630  -11.6420 C.3   213  ARG213      0.0489
     93  CD        18.2150  -82.9860  -10.6890 C.3   213  ARG213      0.2205
     94  NE        17.1990  -83.0290  -11.6480 N.pl3 213  ARG213     -0.0865
     95  CZ        16.1530  -82.2770  -11.8320 C.cat 213  ARG213      0.5346
     96  NH1       15.6970  -81.3720  -10.9980 N.pl3 213  ARG213      0.1354
     97  NH2       15.5320  -82.5880  -12.9320 N.pl3 213  ARG213      0.1354
     98  N         18.1370  -78.8860  -14.9830 N.3   215  GLN215     -0.1245
     99  CA        16.6830  -78.8860  -14.8080 C.3   215  GLN215      0.1566
    100  C         15.9470  -79.2300  -16.1250 C.2   215  GLN215      0.2260
    101  O         15.2260  -78.4010  -16.6850 O.2   215  GLN215     -0.2867
    102  CB        16.2460  -77.5600  -14.2380 C.3   215  GLN215      0.0367
    103  CG        17.0160  -77.1970  -12.9310 C.3   215  GLN215      0.0905
    104  CD        16.6110  -78.0990  -11.7840 C.2   215  GLN215      0.2608
    105  OE1       15.4350  -78.0950  -11.3980 O.2   215  GLN215     -0.2717
    106  NE2       17.5640  -78.8760  -11.2360 N.am  215  GLN215     -0.0878
    107  N         12.4490  -78.4520  -16.7170 N.3   218  ARG218     -0.1245
    108  CA        12.0840  -77.0370  -16.7610 C.3   218  ARG218      0.1563
    109  C         12.5500  -76.3360  -18.0340 C.2   218  ARG218      0.2260
    110  O         12.1580  -75.1930  -18.2820 O.2   218  ARG218     -0.2867
    111  CB        12.6530  -76.2870  -15.5540 C.3   218  ARG218      0.0307
    112  CG        12.3500  -76.9540  -14.2080 C.3   218  ARG218      0.0489
    113  CD        12.8550  -76.0940  -12.9830 C.3   218  ARG218      0.2205
    114  NE        12.6490  -76.8910  -11.7740 N.pl3 218  ARG218     -0.0865
    115  CZ        11.4530  -77.2160  -11.2930 C.cat 218  ARG218      0.5346
    116  NH1       10.3170  -76.7210  -11.8570 N.pl3 218  ARG218      0.1354
    117  NH2       11.3890  -78.0050  -10.2210 N.pl3 218  ARG218      0.1354
    118  N         22.3960  -80.3520   -3.9870 N.3   250  PRO250     -0.2102
    119  CA        21.1090  -80.3580   -3.2520 C.3   250  PRO250      0.1504
    120  C         20.3210  -81.6470   -3.4900 C.2   250  PRO250      0.2576
    121  O         19.4190  -81.9950   -2.6900 O.2   250  PRO250     -0.2718
    122  CB        20.3320  -79.1750   -3.8650 C.3   250  PRO250      0.0282
    123  CG        20.9200  -79.0440   -5.3240 C.3   250  PRO250      0.0208
    124  CD        22.4050  -79.3860   -5.1160 C.3   250  PRO250      0.0893
    125  N         20.6750  -82.3580   -4.5770 N.am  251  GLY251     -0.1943
    126  CA        20.0520  -83.6340   -4.8940 C.3   251  GLY251      0.1998
    127  C         18.8260  -83.4690   -5.7680 C.2   251  GLY251      0.2480
    128  O         18.2510  -82.3770   -5.8520 O.2   251  GLY251     -0.2729
    129  N         18.4420  -84.5400   -6.4740 N.am  252  PRO252     -0.2726
    130  CA        19.2370  -85.7660   -6.5820 C.3   252  PRO252      0.1402
    131  C         20.4030  -85.6020   -7.5170 C.2   252  PRO252      0.2269
    132  O         20.3160  -84.8210   -8.4810 O.2   252  PRO252     -0.2865
    133  CB        18.2590  -86.7450   -7.1990 C.3   252  PRO252      0.0296
    134  CG        17.4030  -85.8800   -8.0710 C.3   252  PRO252      0.0237
    135  CD        17.1940  -84.6190   -7.2500 C.3   252  PRO252      0.0939
@<TRIPOS>BOND
     1   110   109    2
     2   109   108    1
     3   108   107    1
     4   108   111    1
     5   101   100    2
     6   100    99    1
     7   111   112    1
     8    98    99    1
     9    99   102    1
    10   102   103    1
    11   112   113    1
    12   113   114    1
    13    97    95    1
    14   103   104    1
    15    89    90    2
    16    89    88    1
    17   116   115    1
    18    95    94    2
    19    95    96    1
    20   104   105    2
    21   104   106   am
    22   114   115    2
    23    94    93    1
    24    92    91    1
    25    92    93    1
    26    88    91    1
    27    88    87    1
    28   115   117    1
    29     6     7    1
    30     6     5    1
    31     7     1    1
    32     5     2    1
    33    69    70    1
    34   132   131    2
    35     1     2    1
    36   134   135    1
    37   134   133    1
    38    78    77    1
    39     2     3    1
    40   131   130    1
    41    70    73    1
    42    70    71    1
    43   135   129    1
    44    77    79    1
    45    77    76    2
    46   133   130    1
    47    73    74    1
    48    75    74    1
    49    75    76    1
    50     4     3    2
    51   130   129    1
    52     3     8   am
    53   129   127   am
    54    80    71   am
    55    80    81    1
    56    71    72    2
    57   128   127    2
    58   127   126    1
    59    42    41    2
    60     8     9    1
    61    41    40    1
    62    44    45    1
    63    44    43    1
    64    45    46    1
    65   123   124    1
    66   123   122    1
    67    84    81    1
    68    84    86    1
    69    84    85    1
    70    81    82    1
    71    82    83    2
    72   124   118    1
    73    48    47    1
    74   126   125    1
    75   125   120   am
    76    46    47    2
    77     9    10    1
    78     9    12    1
    79    47    49    1
    80    40    43    1
    81    40    39    1
    82   118   119    1
    83   122   119    1
    84    19    18    1
    85    10    11    2
    86    10    14   am
    87   120   119    1
    88   120   121    2
    89    12    13    1
    90    54    55    1
    91    54    51    1
    92    50    51    1
    93    14    15    1
    94    57    55   ar
    95    57    59   ar
    96    31    29    1
    97    18    15    1
    98    18    20    1
    99    55    56   ar
   100    51    52    1
   101    15    16    1
   102    59    58   ar
   103    29    28    2
   104    29    30    1
   105    28    27    1
   106    56    58   ar
   107    65    64    1
   108    65    66    1
   109    52    53    2
   110    37    36    1
   111    16    21   am
   112    16    17    2
   113    21    22    1
   114    27    26    1
   115    64    61    1
   116    26    25    1
   117    66    67    2
   118    66    68   am
   119    36    38    1
   120    36    33    1
   121    32    33    1
   122    32    23   am
   123    25    22    1
   124    22    23    1
   125    33    34    1
   126    61    62    1
   127    61    60    1
   128    62    63    2
   129    23    24    2
   130    34    35    2
