@<TRIPOS>MOLECULE
tmp/4bjkB01.pdb
 129 124 0 0 0
SMALL
GASTEIGER

@<TRIPOS>ATOM
      1  N         60.0090   93.4720   19.2970 N.3    75  TYR75      -0.1241
      2  CA        59.1610   92.4990   18.6040 C.3    75  TYR75       0.1605
      3  C         59.8150   91.1190   18.6560 C.2    75  TYR75       0.2264
      4  O         59.6560   90.2960   17.7640 O.2    75  TYR75      -0.2867
      5  CB        58.8320   92.9590   17.1640 C.3    75  TYR75       0.0534
      6  CG        58.0230   94.2570   17.0750 C.ar   75  TYR75      -0.0201
      7  CD1       57.3340   94.7570   18.1830 C.ar   75  TYR75      -0.0009
      8  CD2       57.9160   94.9700   15.8740 C.ar   75  TYR75      -0.0009
      9  CE1       56.5970   95.9300   18.1180 C.ar   75  TYR75       0.0417
     10  CE2       57.1670   96.1480   15.7970 C.ar   75  TYR75       0.0417
     11  CZ        56.5060   96.6160   16.9320 C.ar   75  TYR75       0.1957
     12  OH        55.7540   97.7710   16.9220 O.3    75  TYR75      -0.2866
     13  N         59.0890   88.8340   20.8640 N.3    77  PHE77      -0.1227
     14  CA        58.1370   87.8050   21.2220 C.3    77  PHE77       0.1736
     15  C         57.5200   87.1330   19.9980 C.2    77  PHE77       0.2595
     16  O         57.0270   86.0320   20.0910 O.2    77  PHE77      -0.2718
     17  CB        57.0740   88.3750   22.1420 C.3    77  PHE77       0.0547
     18  CG        56.2270   89.4260   21.5120 C.ar   77  PHE77      -0.0202
     19  CD1       56.7720   90.6150   21.1440 C.ar   77  PHE77      -0.0042
     20  CD2       54.8770   89.2150   21.2910 C.ar   77  PHE77      -0.0042
     21  CE1       55.9930   91.6040   20.5700 C.ar   77  PHE77      -0.0003
     22  CE2       54.0920   90.1860   20.7170 C.ar   77  PHE77      -0.0003
     23  CZ        54.6520   91.3880   20.3460 C.ar   77  PHE77      -0.0000
     24  N         57.5840   87.7980   18.8540 N.am   78  MET78      -0.1979
     25  CA        57.0540   87.2720   17.6000 C.3    78  MET78       0.1605
     26  C         57.7930   86.0470   17.0870 C.2    78  MET78       0.2287
     27  O         57.3040   85.3430   16.2130 O.2    78  MET78      -0.2864
     28  CB        57.1260   88.3490   16.5070 C.3    78  MET78       0.0413
     29  CG        56.0800   89.4460   16.6120 C.3    78  MET78       0.0598
     30  SD        54.5950   88.7660   17.3730 S.3    78  MET78      -0.1393
     31  CE        53.8940   87.7900   16.0350 C.3    78  MET78       0.0692
     32  N         57.4860   83.5370   13.7860 N.3    82  PHE82      -0.1241
     33  CA        58.4290   83.6760   12.6760 C.3    82  PHE82       0.1605
     34  C         59.4960   82.6160   12.4890 C.2    82  PHE82       0.2264
     35  O         59.8250   82.2800   11.3520 O.2    82  PHE82      -0.2867
     36  CB        59.1990   84.9600   12.8600 C.3    82  PHE82       0.0534
     37  CG        58.3410   86.1400   12.9290 C.ar   82  PHE82      -0.0203
     38  CD1       57.1030   86.1210   12.3230 C.ar   82  PHE82      -0.0042
     39  CD2       58.7710   87.2760   13.5650 C.ar   82  PHE82      -0.0042
     40  CE1       56.2940   87.2260   12.3450 C.ar   82  PHE82      -0.0003
     41  CE2       57.9600   88.3850   13.6070 C.ar   82  PHE82      -0.0003
     42  CZ        56.7140   88.3640   12.9940 C.ar   82  PHE82      -0.0000
     43  N         62.5000   89.9660   12.7410 N.3    88  TYR88      -0.1241
     44  CA        63.1900   90.7480   13.7460 C.3    88  TYR88       0.1605
     45  C         64.2670   89.9510   14.4400 C.2    88  TYR88       0.2264
     46  O         65.1530   90.5210   15.0430 O.2    88  TYR88      -0.2867
     47  CB        62.2110   91.2730   14.7550 C.3    88  TYR88       0.0534
     48  CG        61.1360   92.0490   14.0900 C.ar   88  TYR88      -0.0201
     49  CD1       61.3400   93.3610   13.7260 C.ar   88  TYR88      -0.0009
     50  CD2       59.9380   91.4570   13.7790 C.ar   88  TYR88      -0.0009
     51  CE1       60.3520   94.0870   13.0940 C.ar   88  TYR88       0.0417
     52  CE2       58.9360   92.1670   13.1460 C.ar   88  TYR88       0.0417
     53  CZ        59.1430   93.4840   12.8070 C.ar   88  TYR88       0.1957
     54  OH        58.1470   94.1920   12.1820 O.3    88  TYR88      -0.2866
     55  N         61.8850   91.2880    4.5330 N.3    99  LEU99      -0.1245
     56  CA        60.6820   92.1280    4.4570 C.3    99  LEU99       0.1561
     57  C         60.5630   92.7840    3.0940 C.2    99  LEU99       0.2260
     58  O         59.4760   93.1180    2.6630 O.2    99  LEU99      -0.2867
     59  CB        60.6630   93.2270    5.5290 C.3    99  LEU99       0.0270
     60  CG        60.7640   92.8230    7.0080 C.3    99  LEU99       0.0019
     61  CD1       60.6200   94.0480    7.9110 C.3    99  LEU99       0.0001
     62  CD2       59.7500   91.7540    7.4100 C.3    99  LEU99       0.0001
     63  N         54.1320   85.0710    8.9450 N.3   259  ALA259     -0.1245
     64  CA        54.1120   86.5150    9.2250 C.3   259  ALA259      0.1562
     65  C         53.0630   87.2250    8.3880 C.2   259  ALA259      0.2260
     66  O         52.2790   88.0240    8.9050 O.2   259  ALA259     -0.2867
     67  CB        55.4570   87.1410    8.9380 C.3   259  ALA259      0.0290
     68  N         49.5410   86.0250    9.6040 N.3   262  PHE262     -0.1227
     69  CA        49.3100   86.4780   10.9710 C.3   262  PHE262      0.1736
     70  C         49.0340   87.9640   11.0890 C.2   262  PHE262      0.2595
     71  O         48.1530   88.3730   11.8170 O.2   262  PHE262     -0.2718
     72  CB        50.5170   86.1760   11.8470 C.3   262  PHE262      0.0547
     73  CG        50.1580   85.9920   13.2610 C.ar  262  PHE262     -0.0202
     74  CD1       49.8600   87.0840   14.0600 C.ar  262  PHE262     -0.0042
     75  CD2       50.0310   84.7190   13.7730 C.ar  262  PHE262     -0.0042
     76  CE1       49.4720   86.9130   15.3750 C.ar  262  PHE262     -0.0003
     77  CE2       49.6440   84.5350   15.0790 C.ar  262  PHE262     -0.0003
     78  CZ        49.3630   85.6300   15.8860 C.ar  262  PHE262     -0.0000
     79  N         49.8350   88.7570   10.3910 N.am  263  ALA263     -0.1980
     80  CA        49.7670   90.2020   10.4330 C.3   263  ALA263      0.1597
     81  C         48.4500   90.6820    9.9110 C.2   263  ALA263      0.2287
     82  O         47.8670   91.5970   10.4650 O.2   263  ALA263     -0.2864
     83  CB        50.8770   90.7790    9.5910 C.3   263  ALA263      0.0319
     84  N         43.8560   89.2060   11.8610 N.3   266  HIS266     -0.1226
     85  CA        42.9320   89.9780   12.6920 C.3   266  HIS266      0.1752
     86  C         42.7170   91.4150   12.3100 C.2   266  HIS266      0.2596
     87  O         41.5940   91.8800   12.3510 O.2   266  HIS266     -0.2718
     88  CB        43.3760   89.9710   14.1270 C.3   266  HIS266      0.0759
     89  CG        43.3930   88.6190   14.7200 C.ar  266  HIS266      0.0818
     90  ND1       44.5470   87.8840   14.8270 N.ar  266  HIS266     -0.2268
     91  CD2       42.3960   87.8410   15.1930 C.ar  266  HIS266      0.1154
     92  CE1       44.2680   86.7140   15.3680 C.ar  266  HIS266      0.1986
     93  NE2       42.9690   86.6590   15.5930 N.ar  266  HIS266     -0.2212
     94  N         43.7880   92.1280   11.9930 N.am  267  THR267     -0.1953
     95  CA        43.6910   93.5350   11.5490 C.3   267  THR267      0.1897
     96  C         42.6580   93.7270   10.4510 C.2   267  THR267      0.2313
     97  O         41.8000   94.5850   10.5490 O.2   267  THR267     -0.2863
     98  CB        45.0240   94.0660   10.9990 C.3   267  THR267      0.1794
     99  OG1       45.5390   93.1470   10.0250 O.3   267  THR267     -0.2208
    100  CG2       46.0200   94.2670   12.1230 C.3   267  THR267      0.0378
    101  N         46.0430   98.1210   16.2710 N.3   328  LEU328     -0.1245
    102  CA        47.3030   98.1490   16.9900 C.3   328  LEU328      0.1561
    103  C         47.3460   99.4580   17.7470 C.2   328  LEU328      0.2260
    104  O         47.3810  100.5210   17.1500 O.2   328  LEU328     -0.2867
    105  CB        48.4620   98.0360   16.0060 C.3   328  LEU328      0.0270
    106  CG        48.3810   96.7540   15.1560 C.3   328  LEU328      0.0019
    107  CD1       49.4410   96.7710   14.0750 C.3   328  LEU328      0.0001
    108  CD2       48.5340   95.5000   16.0030 C.3   328  LEU328      0.0001
    109  N         53.3350   99.9470    6.8160 N.3   394  CYS394     -0.1235
    110  CA        52.6680   98.6630    6.5560 C.3   394  CYS394      0.1677
    111  C         52.7980   98.3470    5.0840 C.2   394  CYS394      0.2270
    112  O         52.4440   99.1410    4.2310 O.2   394  CYS394     -0.2867
    113  CB        51.1740   98.6350    6.9670 C.3   394  CYS394      0.0956
    114  SG        50.2790   97.0380    6.7280 S.3   394  CYS394     -0.0801
    115  N         45.7780   91.3170   22.5440 N.3   432  MET432     -0.1230
    116  CA        47.0130   91.8340   21.9550 C.3   432  MET432      0.1702
    117  C         46.7350   92.6550   20.6660 C.2   432  MET432      0.2592
    118  O         47.4080   93.6520   20.4260 O.2   432  MET432     -0.2718
    119  CB        47.9710   90.6540   21.7630 C.3   432  MET432      0.0401
    120  CG        49.1360   90.8100   20.8110 C.3   432  MET432      0.0596
    121  SD        49.3960   89.2170   19.9780 S.3   432  MET432     -0.1393
    122  CE        50.6190   89.7030   18.7850 C.3   432  MET432      0.0692
    123  N         45.7240   92.2680   19.8820 N.am  433  VAL433     -0.1980
    124  CA        45.2480   93.0300   18.7110 C.3   433  VAL433      0.1595
    125  C         43.7610   93.3550   18.8920 C.2   433  VAL433      0.2287
    126  O         42.9530   92.4430   18.9460 O.2   433  VAL433     -0.2864
    127  CB        45.4200   92.2060   17.4130 C.3   433  VAL433      0.0276
    128  CG1       44.9570   92.9680   16.1830 C.3   433  VAL433      0.0022
    129  CG2       46.8650   91.7970   17.2360 C.3   433  VAL433      0.0022
@<TRIPOS>BOND
     1    58    57    2
     2    57    56    1
     3   112   111    2
     4    56    55    1
     5    56    59    1
     6   111   110    1
     7    59    60    1
     8   110   109    1
     9   110   113    1
    10   114   113    1
    11    60    62    1
    12    60    61    1
    13    65    66    2
    14    65    64    1
    15    67    64    1
    16    63    64    1
    17    83    80    1
    18    68    69    1
    19    81    80    1
    20    81    82    2
    21    99    98    1
    22    79    80    1
    23    79    70   am
    24    96    97    2
    25    96    95    1
    26    69    70    1
    27    69    72    1
    28    98    95    1
    29    98   100    1
    30    70    71    2
    31    35    34    2
    32    95    94    1
    33    72    73    1
    34    84    85    1
    35    94    86   am
    36    54    53    1
    37    86    87    2
    38    86    85    1
    39    38    40   ar
    40    38    37   ar
    41    40    42   ar
    42    34    33    1
    43    33    36    1
    44    33    32    1
    45    85    88    1
    46    43    44    1
    47    53    51   ar
    48    53    52   ar
    49    36    37    1
    50    37    39   ar
    51    42    41   ar
    52    51    49   ar
    53    52    50   ar
    54    73    75   ar
    55    73    74   ar
    56    39    41   ar
    57    49    48   ar
    58    44    45    1
    59    44    47    1
    60    75    77   ar
    61    50    48   ar
    62    74    76   ar
    63   107   106    1
    64    48    47    1
    65    88    89    1
    66    45    46    2
    67    89    90   ar
    68    89    91   ar
    69    90    92   ar
    70    77    78   ar
    71   106   108    1
    72   106   105    1
    73    91    93   ar
    74    92    93   ar
    75    76    78   ar
    76    10     8   ar
    77    10    11   ar
    78     8     6   ar
    79   105   102    1
    80    31    30    1
    81   128   127    1
    82    27    26    2
    83   101   102    1
    84    28    29    1
    85    28    25    1
    86    29    30    1
    87    12    11    1
    88    11     9   ar
    89   102   103    1
    90     6     5    1
    91     6     7   ar
    92    26    25    1
    93   104   103    2
    94     5     2    1
    95   129   127    1
    96   127   124    1
    97    25    24    1
    98     4     3    2
    99     9     7   ar
   100     2     3    1
   101     2     1    1
   102   124   125    1
   103   124   123    1
   104   122   121    1
   105    24    15   am
   106   125   126    2
   107   123   117   am
   108   121   120    1
   109    15    16    2
   110    15    14    1
   111    23    21   ar
   112    23    22   ar
   113   118   117    2
   114    21    19   ar
   115   117   116    1
   116    22    20   ar
   117   120   119    1
   118    13    14    1
   119    19    18   ar
   120    14    17    1
   121    20    18   ar
   122    18    17    1
   123   119   116    1
   124   116   115    1
