@<TRIPOS>MOLECULE
tmp/4bjrA00.pdb
 218 213 0 0 0
SMALL
GASTEIGER

@<TRIPOS>ATOM
      1  N         34.6870    6.5940   42.5610 N.3    10  ILE10      -0.1245
      2  CA        34.7400    7.2370   41.2610 C.3    10  ILE10       0.1561
      3  C         34.9090    6.2110   40.1530 C.2    10  ILE10       0.2260
      4  O         35.8010    5.3720   40.2050 O.2    10  ILE10      -0.2867
      5  CB        35.8800    8.2400   41.1810 C.3    10  ILE10       0.0252
      6  CG1       35.6670    9.3520   42.1930 C.3    10  ILE10       0.0019
      7  CG2       35.9800    8.8080   39.7940 C.3    10  ILE10       0.0019
      8  CD1       34.5510   10.2420   41.8500 C.3    10  ILE10       0.0001
      9  N         34.6290    5.7350   35.6640 N.3    12  GLY12      -0.1210
     10  CA        34.4310    6.3240   34.3570 C.3    12  GLY12       0.1956
     11  C         34.4910    5.3130   33.2400 C.2    12  GLY12       0.2612
     12  O         35.0320    4.2340   33.4060 O.2    12  GLY12      -0.2717
     13  N         33.9330    5.6690   32.0940 N.am   13  ILE13      -0.1965
     14  CA        33.9710    4.8050   30.9240 C.3    13  ILE13       0.1727
     15  C         34.5790    5.4890   29.7180 C.2    13  ILE13       0.2616
     16  O         34.2550    6.6230   29.4140 O.2    13  ILE13      -0.2715
     17  CB        32.5690    4.3150   30.5510 C.3    13  ILE13       0.0290
     18  CG1       31.9970    3.4620   31.6710 C.3    13  ILE13       0.0022
     19  CG2       32.5930    3.5200   29.2790 C.3    13  ILE13       0.0023
     20  CD1       32.5450    2.0910   31.7200 C.3    13  ILE13       0.0001
     21  N         35.4650    4.7810   29.0370 N.am   14  GLU14      -0.1977
     22  CA        36.0510    5.2630   27.8080 C.3    14  GLU14       0.1602
     23  C         35.4710    4.4950   26.6420 C.2    14  GLU14       0.2287
     24  O         35.6660    3.2950   26.5330 O.2    14  GLU14      -0.2864
     25  CB        37.5660    5.1000   27.8260 C.3    14  GLU14       0.0415
     26  CG        38.3240    6.0890   28.6770 C.3    14  GLU14       0.1163
     27  CD        39.7930    5.7620   28.7520 C.2    14  GLU14       0.3649
     28  OE1       40.4140    5.5990   27.6890 O.co2  14  GLU14      -0.2457
     29  OE2       40.3330    5.6760   29.8640 O.co2  14  GLU14      -0.2457
     30  N         35.2630   14.0320   28.3840 N.3    58  ARG58      -0.1245
     31  CA        36.2830   14.3250   27.4020 C.3    58  ARG58       0.1563
     32  C         35.8900   13.7540   26.0490 C.2    58  ARG58       0.2260
     33  O         35.5270   12.6000   25.9390 O.2    58  ARG58      -0.2867
     34  CB        37.6230   13.7710   27.8650 C.3    58  ARG58       0.0307
     35  CG        38.7770   14.0890   26.9630 C.3    58  ARG58       0.0489
     36  CD        40.0560   13.5120   27.5080 C.3    58  ARG58       0.2205
     37  NE        41.1850   13.7240   26.6130 N.pl3  58  ARG58      -0.0865
     38  CZ        42.1230   12.8200   26.3770 C.cat  58  ARG58       0.5346
     39  NH1       42.0760   11.6450   26.9740 N.pl3  58  ARG58       0.1354
     40  NH2       43.1070   13.0880   25.5440 N.pl3  58  ARG58       0.1354
     41  N         37.2590   13.3490   22.1030 N.3    60  TYR60      -0.1241
     42  CA        38.4180   13.5420   21.2500 C.3    60  TYR60       0.1605
     43  C         38.5570   12.5650   20.1140 C.2    60  TYR60       0.2264
     44  O         37.8890   11.5560   20.0600 O.2    60  TYR60      -0.2867
     45  CB        39.7060   13.5130   22.0660 C.3    60  TYR60       0.0534
     46  CG        40.0340   12.2450   22.8190 C.ar   60  TYR60      -0.0201
     47  CD1       39.3050   11.8580   23.9250 C.ar   60  TYR60      -0.0009
     48  CD2       41.1090   11.4610   22.4480 C.ar   60  TYR60      -0.0009
     49  CE1       39.6260   10.7250   24.6170 C.ar   60  TYR60       0.0417
     50  CE2       41.4310   10.3270   23.1370 C.ar   60  TYR60       0.0417
     51  CZ        40.6870    9.9620   24.2200 C.ar   60  TYR60       0.1957
     52  OH        41.0060    8.8300   24.9230 O.3    60  TYR60      -0.2866
     53  N         36.2600    9.2230   20.3110 N.3    68  GLU68      -0.1245
     54  CA        36.2910    8.6650   21.6500 C.3    68  GLU68       0.1567
     55  C         35.6370    9.5880   22.6640 C.2    68  GLU68       0.2260
     56  O         35.8980   10.7840   22.7090 O.2    68  GLU68      -0.2867
     57  CB        37.7230    8.3600   22.0720 C.3    68  GLU68       0.0388
     58  CG        37.8210    7.7950   23.4660 C.3    68  GLU68       0.1160
     59  CD        39.1130    7.0670   23.7260 C.2    68  GLU68       0.3649
     60  OE1       39.7700    6.6500   22.7580 O.co2  68  GLU68      -0.2457
     61  OE2       39.4840    6.9270   24.9060 O.co2  68  GLU68      -0.2457
     62  N         34.9850    9.9120   26.7460 N.3    70  ALA70      -0.1231
     63  CA        35.3170    9.4520   28.0770 C.3    70  ALA70       0.1694
     64  C         34.4180   10.1550   29.0570 C.2    70  ALA70       0.2593
     65  O         34.3820   11.3710   29.1060 O.2    70  ALA70      -0.2718
     66  CB        36.7570    9.7160   28.3920 C.3    70  ALA70       0.0304
     67  N         33.6940    9.3830   29.8460 N.am   71  THR71      -0.1939
     68  CA        32.7000    9.9570   30.7200 C.3    71  THR71       0.2028
     69  C         33.3200   10.7880   31.7940 C.2    71  THR71       0.2642
     70  O         34.4440   10.5570   32.2060 O.2    71  THR71      -0.2714
     71  CB        31.8450    8.8980   31.4000 C.3    71  THR71       0.1808
     72  OG1       32.6550    8.1380   32.2990 O.3    71  THR71      -0.2208
     73  CG2       31.2390    7.9900   30.3860 C.3    71  THR71       0.0379
     74  N         32.5590   11.7680   32.2380 N.am   72  ALA72      -0.1963
     75  CA        32.9100   12.5230   33.4070 C.3    72  ALA72       0.1728
     76  C         32.8890   11.5810   34.5870 C.2    72  ALA72       0.2616
     77  O         32.2420   10.5460   34.5400 O.2    72  ALA72      -0.2715
     78  CB        31.9500   13.6520   33.6060 C.3    72  ALA72       0.0334
     79  N         33.6260   11.9210   35.6310 N.am   73  GLU73      -0.1977
     80  CA        33.6760   11.0830   36.8100 C.3    73  GLU73       0.1602
     81  C         32.2960   10.9400   37.4060 C.2    73  GLU73       0.2287
     82  O         31.5830   11.9170   37.5760 O.2    73  GLU73      -0.2864
     83  CB        34.6290   11.6580   37.8480 C.3    73  GLU73       0.0415
     84  CG        35.9990   11.9610   37.3200 C.3    73  GLU73       0.1163
     85  CD        36.1430   13.3880   36.8700 C.2    73  GLU73       0.3649
     86  OE1       35.2350   13.8920   36.1890 O.co2  73  GLU73      -0.2457
     87  OE2       37.1720   14.0100   37.1850 O.co2  73  GLU73      -0.2457
     88  N         37.1200    2.4030   34.1750 N.3   130  ASN130     -0.1225
     89  CA        38.0050    2.9700   35.1760 C.3   130  ASN130      0.1785
     90  C         37.3860    3.0220   36.5590 C.2   130  ASN130      0.2597
     91  O         36.3290    3.6060   36.7380 O.2   130  ASN130     -0.2718
     92  CB        38.4370    4.3670   34.7500 C.3   130  ASN130      0.1169
     93  CG        39.0600    4.3800   33.3910 C.2   130  ASN130      0.2627
     94  OD1       40.2690    4.2940   33.2600 O.2   130  ASN130     -0.2716
     95  ND2       38.2410    4.4910   32.3690 N.am  130  ASN130     -0.0877
     96  N         38.0710    2.4360   37.5360 N.am  131  TYR131     -0.1962
     97  CA        37.5930    2.4350   38.9150 C.3   131  TYR131      0.1771
     98  C         38.6050    3.0130   39.8960 C.2   131  TYR131      0.2619
     99  O         39.7460    2.6010   39.9170 O.2   131  TYR131     -0.2715
    100  CB        37.2360    1.0160   39.3550 C.3   131  TYR131      0.0574
    101  CG        36.2990    0.2810   38.4330 C.ar  131  TYR131     -0.0198
    102  CD1       34.9310    0.3580   38.5960 C.ar  131  TYR131     -0.0009
    103  CD2       36.7870   -0.5090   37.4150 C.ar  131  TYR131     -0.0009
    104  CE1       34.0800   -0.3170   37.7560 C.ar  131  TYR131      0.0417
    105  CE2       35.9460   -1.1870   36.5790 C.ar  131  TYR131      0.0417
    106  CZ        34.5950   -1.0880   36.7480 C.ar  131  TYR131      0.1957
    107  OH        33.7600   -1.7710   35.9050 O.3   131  TYR131     -0.2866
    108  N         38.1760    3.9480   40.7300 N.am  132  LEU132     -0.1977
    109  CA        39.0450    4.4710   41.7670 C.3   132  LEU132      0.1596
    110  C         39.2750    3.4360   42.8440 C.2   132  LEU132      0.2287
    111  O         38.3510    2.7590   43.2620 O.2   132  LEU132     -0.2864
    112  CB        38.4540    5.7350   42.3870 C.3   132  LEU132      0.0297
    113  CG        39.1530    6.3130   43.6160 C.3   132  LEU132      0.0022
    114  CD1       39.2420    7.8020   43.5290 C.3   132  LEU132      0.0001
    115  CD2       38.4140    5.9230   44.8660 C.3   132  LEU132      0.0001
    116  N         48.8510    3.4370   35.7700 N.3   198  ASP198     -0.1225
    117  CA        48.6370    4.6960   35.0660 C.3   198  ASP198      0.1805
    118  C         48.1460    5.7860   35.9900 C.2   198  ASP198      0.2598
    119  O         47.6550    5.5030   37.0720 O.2   198  ASP198     -0.2718
    120  CB        47.6570    4.5260   33.9140 C.3   198  ASP198      0.1424
    121  CG        47.8660    5.5510   32.8330 C.2   198  ASP198      0.3668
    122  OD1       48.5840    6.5230   33.0900 O.co2 198  ASP198     -0.2456
    123  OD2       47.3110    5.3950   31.7370 O.co2 198  ASP198     -0.2456
    124  N         48.3100    7.0340   35.5700 N.am  199  GLU199     -0.1966
    125  CA        48.0000    8.1620   36.4290 C.3   199  GLU199      0.1718
    126  C         46.5750    8.1530   36.9400 C.2   199  GLU199      0.2458
    127  O         45.6380    8.0230   36.1700 O.2   199  GLU199     -0.2730
    128  CB        48.2540    9.4740   35.7000 C.3   199  GLU199      0.0428
    129  CG        48.0480    9.4410   34.2150 C.3   199  GLU199      0.1163
    130  CD        48.4640   10.7380   33.5610 C.2   199  GLU199      0.3649
    131  OE1       48.4560   11.7820   34.2430 O.co2 199  GLU199     -0.2457
    132  OE2       48.7840   10.7200   32.3580 O.co2 199  GLU199     -0.2457
    133  N         46.4200    8.3150   38.2580 N.am  200  PRO200     -0.2716
    134  CA        45.1680    8.2310   38.9980 C.3   200  PRO200      0.1536
    135  C         44.1830    9.3130   38.6350 C.2   200  PRO200      0.2599
    136  O         42.9920    9.0730   38.7530 O.2   200  PRO200     -0.2715
    137  CB        45.6170    8.3670   40.4490 C.3   200  PRO200      0.0310
    138  CG        46.8950    9.0260   40.3800 C.3   200  PRO200      0.0237
    139  CD        47.5500    8.5090   39.1700 C.3   200  PRO200      0.0939
    140  N         44.6760   10.4900   38.2670 N.am  201  HIS201     -0.1960
    141  CA        43.8350   11.6630   38.0470 C.3   201  HIS201      0.1787
    142  C         43.1930   12.0410   39.3690 C.2   201  HIS201      0.2620
    143  O         42.1250   12.6420   39.4280 O.2   201  HIS201     -0.2715
    144  CB        42.8010   11.4100   36.9540 C.3   201  HIS201      0.0785
    145  CG        43.3970   11.2270   35.5930 C.ar  201  HIS201      0.0821
    146  ND1       42.8740   10.3580   34.6630 N.ar  201  HIS201     -0.2267
    147  CD2       44.4510   11.8270   34.9950 C.ar  201  HIS201      0.1154
    148  CE1       43.5940   10.4130   33.5600 C.ar  201  HIS201      0.1986
    149  NE2       44.5560   11.2980   33.7340 N.ar  201  HIS201     -0.2212
    150  N         43.8680   11.6260   40.4290 N.am  202  ALA202     -0.1977
    151  CA        43.5270   11.9430   41.7940 C.3   202  ALA202      0.1597
    152  C         44.8210   12.0600   42.5760 C.2   202  ALA202      0.2287
    153  O         45.8770   11.7340   42.0590 O.2   202  ALA202     -0.2864
    154  CB        42.6350   10.8980   42.3750 C.3   202  ALA202      0.0319
    155  N         44.6450    5.2830   43.5350 N.3   208  ARG208     -0.1231
    156  CA        45.0400    4.7570   42.2390 C.3   208  ARG208      0.1694
    157  C         43.8290    4.6240   41.3390 C.2   208  ARG208      0.2591
    158  O         42.6960    4.6000   41.8030 O.2   208  ARG208     -0.2718
    159  CB        45.7160    3.4050   42.3650 C.3   208  ARG208      0.0321
    160  CG        47.1000    3.4410   42.9200 C.3   208  ARG208      0.0489
    161  CD        47.6960    2.0700   42.8470 C.3   208  ARG208      0.2205
    162  NE        48.9390    1.9730   43.5900 N.pl3 208  ARG208     -0.0865
    163  CZ        50.1380    2.1120   43.0480 C.cat 208  ARG208      0.5346
    164  NH1       50.2610    2.3600   41.7560 N.pl3 208  ARG208      0.1354
    165  NH2       51.2150    2.0040   43.8010 N.pl3 208  ARG208      0.1354
    166  N         44.0860    4.5190   40.0450 N.am  209  ARG209     -0.1980
    167  CA        43.0440    4.2690   39.0680 C.3   209  ARG209      0.1597
    168  C         43.2140    2.8970   38.4640 C.2   209  ARG209      0.2287
    169  O         44.2780    2.5520   37.9770 O.2   209  ARG209     -0.2864
    170  CB        43.0640    5.3430   37.9830 C.3   209  ARG209      0.0334
    171  CG        41.8350    5.3800   37.1190 C.3   209  ARG209      0.0492
    172  CD        41.8740    6.5270   36.1320 C.3   209  ARG209      0.2205
    173  NE        43.2200    6.8610   35.7020 N.pl3 209  ARG209     -0.0865
    174  CZ        43.6660    6.7030   34.4670 C.cat 209  ARG209      0.5346
    175  NH1       42.8780    6.2040   33.5370 N.pl3 209  ARG209      0.1354
    176  NH2       44.9020    7.0430   34.1680 N.pl3 209  ARG209      0.1354
    177  N         42.3490    0.2630   35.6140 N.3   211  HIS211     -0.1241
    178  CA        41.9730    0.3120   34.2100 C.3   211  HIS211      0.1621
    179  C         41.6860   -1.0750   33.6770 C.2   211  HIS211      0.2264
    180  O         42.5260   -1.9550   33.7450 O.2   211  HIS211     -0.2867
    181  CB        43.0840    0.9610   33.3910 C.3   211  HIS211      0.0745
    182  CG        42.6760    1.3390   32.0020 C.ar  211  HIS211      0.0817
    183  ND1       41.7710    2.3400   31.7400 N.ar  211  HIS211     -0.2268
    184  CD2       43.0560    0.8530   30.7990 C.ar  211  HIS211      0.1154
    185  CE1       41.6090    2.4540   30.4360 C.ar  211  HIS211      0.1986
    186  NE2       42.3770    1.5620   29.8430 N.ar  211  HIS211     -0.2212
    187  N         33.6290   15.5920   41.1730 N.3   408  ARG408     -0.1245
    188  CA        34.4540   16.7260   40.7800 C.3   408  ARG408      0.1563
    189  C         34.0670   17.3220   39.4380 C.2   408  ARG408      0.2260
    190  O         34.2660   18.5110   39.2020 O.2   408  ARG408     -0.2867
    191  CB        35.9210   16.3050   40.7550 C.3   408  ARG408      0.0307
    192  CG        36.8190   17.1170   39.8670 C.3   408  ARG408      0.0489
    193  CD        38.2450   16.6780   40.0080 C.3   408  ARG408      0.2205
    194  NE        38.5040   15.3760   39.4220 N.pl3 408  ARG408     -0.0865
    195  CZ        39.6530   14.7300   39.5580 C.cat 408  ARG408      0.5346
    196  NH1       40.6310   15.2700   40.2550 N.pl3 408  ARG408      0.1354
    197  NH2       39.8250   13.5480   39.0000 N.pl3 408  ARG408      0.1354
    198  N         41.5970   16.6120   33.6660 N.3   430  TRP430     -0.1241
    199  CA        40.8800   15.9250   34.7230 C.3   430  TRP430      0.1605
    200  C         41.1920   16.5660   36.0600 C.2   430  TRP430      0.2264
    201  O         40.3040   16.9210   36.8110 O.2   430  TRP430     -0.2867
    202  CB        41.2270   14.4420   34.7570 C.3   430  TRP430      0.0550
    203  CG        40.8040   13.6900   33.5520 C.ar  430  TRP430      0.0003
    204  CD1       41.6080   13.1510   32.6060 C.ar  430  TRP430      0.0946
    205  CD2       39.4700   13.4060   33.1520 C.ar  430  TRP430      0.0152
    206  NE1       40.8620   12.5420   31.6420 N.ar  430  TRP430     -0.2442
    207  CE2       39.5410   12.6880   31.9530 C.ar  430  TRP430      0.0810
    208  CE3       38.2180   13.6890   33.6930 C.ar  430  TRP430      0.0012
    209  CZ2       38.4130   12.2470   31.2860 C.ar  430  TRP430      0.0191
    210  CZ3       37.1030   13.2520   33.0290 C.ar  430  TRP430      0.0001
    211  CH2       37.2050   12.5370   31.8410 C.ar  430  TRP430      0.0015
    212  N         38.5900   14.0150   43.4680 N.3   448  PRO448     -0.2116
    213  CA        37.5330   13.6630   42.5290 C.3   448  PRO448      0.1372
    214  C         36.1650   13.7130   43.1700 C.2   448  PRO448      0.2244
    215  O         35.1820   13.9900   42.4970 O.2   448  PRO448     -0.2868
    216  CB        37.8960   12.2440   42.1090 C.3   448  PRO448      0.0268
    217  CG        38.7490   11.7400   43.1690 C.3   448  PRO448      0.0207
    218  CD        39.5110   12.8940   43.6810 C.3   448  PRO448      0.0892
@<TRIPOS>BOND
     1    44    43    2
     2    43    42    1
     3    53    54    1
     4    42    45    1
     5    42    41    1
     6    54    57    1
     7    54    55    1
     8    45    46    1
     9    57    58    1
    10    48    46   ar
    11    48    50   ar
    12    55    56    2
    13    60    59   ar
    14    46    47   ar
    15    50    51   ar
    16    58    59    1
    17    59    61   ar
    18    47    49   ar
    19    51    49   ar
    20    51    52    1
    21    40    38    1
    22    33    32    2
    23    32    31    1
    24    38    37    2
    25    38    39    1
    26    24    23    2
    27    37    36    1
    28    23    22    1
    29    62    63    1
    30    35    36    1
    31    35    34    1
    32    31    34    1
    33    31    30    1
    34    28    27   ar
    35    22    25    1
    36    22    21    1
    37    25    26    1
    38    63    66    1
    39    63    64    1
    40    26    27    1
    41    27    29   ar
    42    21    15   am
    43    64    65    2
    44    64    67   am
    45    19    17    1
    46    16    15    2
    47    15    14    1
    48   186   185   ar
    49   186   184   ar
    50    67    68    1
    51    73    71    1
    52   185   183   ar
    53    17    14    1
    54    17    18    1
    55    68    71    1
    56    68    69    1
    57   184   182   ar
    58    14    13    1
    59   209   211   ar
    60   209   207   ar
    61    71    72    1
    62   206   207   ar
    63   206   204   ar
    64    18    20    1
    65   123   121   ar
    66   183   182   ar
    67    69    70    2
    68    69    74   am
    69   211   210   ar
    70   207   205   ar
    71   182   181    1
    72    13    11   am
    73    74    75    1
    74   132   130   ar
    75    95    93   am
    76   204   203   ar
    77   121   122   ar
    78   121   120    1
    79   210   208   ar
    80   205   203   ar
    81   205   208   ar
    82    11    12    2
    83    11    10    1
    84    94    93    2
    85   181   178    1
    86    93    92    1
    87    75    78    1
    88    75    76    1
    89   175   174    1
    90   203   202    1
    91   148   149   ar
    92   148   146   ar
    93   130   129    1
    94   130   131   ar
    95   198   199    1
    96   179   180    2
    97   179   178    1
    98   149   147   ar
    99   120   117    1
   100   176   174    1
   101    88    89    1
   102   178   177    1
   103   129   128    1
   104    10     9    1
   105   174   173    2
   106    77    76    2
   107    76    79   am
   108   146   145   ar
   109   199   202    1
   110   199   200    1
   111    92    89    1
   112   147   145   ar
   113   117   116    1
   114   117   118    1
   115    89    90    1
   116   124   118   am
   117   124   125    1
   118   145   144    1
   119    79    80    1
   120   128   125    1
   121   173   172    1
   122   107   106    1
   123   118   119    2
   124   200   201    2
   125   172   171    1
   126   127   126    2
   127    86    85   ar
   128   125   126    1
   129    90    91    2
   130    90    96   am
   131   105   106   ar
   132   105   103   ar
   133   106   104   ar
   134    80    81    1
   135    80    83    1
   136    85    87   ar
   137    85    84    1
   138   126   133   am
   139   144   141    1
   140   171   170    1
   141    84    83    1
   142    81    82    2
   143   103   101   ar
   144    96    97    1
   145   104   102   ar
   146   169   168    2
   147   170   167    1
   148   141   140    1
   149   141   142    1
   150   133   134    1
   151   133   139    1
   152   140   135   am
   153   101   102   ar
   154   101   100    1
   155   168   167    1
   156   135   136    2
   157   135   134    1
   158    97   100    1
   159    97    98    1
   160   134   137    1
   161   197   195    1
   162   167   166    1
   163   139   138    1
   164   190   189    2
   165   142   143    2
   166   142   150   am
   167   194   195    2
   168   194   193    1
   169   189   188    1
   170   195   196    1
   171     7     5    1
   172   192   193    1
   173   192   191    1
   174    98    99    2
   175    98   108   am
   176   166   157   am
   177     3     4    2
   178     3     2    1
   179   138   137    1
   180   150   151    1
   181   108   109    1
   182   191   188    1
   183   188   187    1
   184     5     2    1
   185     5     6    1
   186     2     1    1
   187   157   158    2
   188   157   156    1
   189   164   163    1
   190   109   112    1
   191   109   110    1
   192   151   154    1
   193   151   152    1
   194     8     6    1
   195   153   152    2
   196   216   213    1
   197   216   217    1
   198   156   159    1
   199   156   155    1
   200   159   160    1
   201   112   113    1
   202   215   214    2
   203   213   214    1
   204   213   212    1
   205   110   111    2
   206   161   160    1
   207   161   162    1
   208   163   162    2
   209   163   165    1
   210   217   218    1
   211   212   218    1
   212   114   113    1
   213   113   115    1
