@<TRIPOS>MOLECULE
tmp/4bk1A02.pdb
 119 112 0 0 0
SMALL
GASTEIGER

@<TRIPOS>ATOM
      1  N         20.3560    7.7470   24.3100 N.3    45  GLY45      -0.1210
      2  CA        21.7070    8.0630   23.8920 C.3    45  GLY45       0.1956
      3  C         22.4300    6.9820   23.0400 C.2    45  GLY45       0.2612
      4  O         22.0350    5.8250   22.9870 O.2    45  GLY45      -0.2717
      5  N         23.4220    7.4440   22.2980 N.am   46  LEU46      -0.1965
      6  CA        24.5420    6.6000   21.8500 C.3    46  LEU46       0.1728
      7  C         25.8220    7.3460   22.0400 C.2    46  LEU46       0.2616
      8  O         25.9240    8.5610   22.1090 O.2    46  LEU46      -0.2715
      9  CB        24.3650    6.0520   20.4280 C.3    46  LEU46       0.0311
     10  CG        24.8880    6.8680   19.2540 C.3    46  LEU46       0.0022
     11  CD1       24.8500    6.0700   17.9350 C.3    46  LEU46       0.0001
     12  CD2       24.1490    8.1810   19.1250 C.3    46  LEU46       0.0001
     13  N         26.8980    6.5790   21.9960 N.am   47  GLN47      -0.1977
     14  CA        28.2440    7.1000   22.0930 C.3    47  GLN47       0.1601
     15  C         28.8900    7.0190   20.7220 C.2    47  GLN47       0.2287
     16  O         28.7630    6.0070   20.0290 O.2    47  GLN47      -0.2864
     17  CB        29.0870    6.1980   23.0530 C.3    47  GLN47       0.0394
     18  CG        28.4450    6.0160   24.3890 C.3    47  GLN47       0.0908
     19  CD        29.2610    5.1930   25.3640 C.2    47  GLN47       0.2608
     20  OE1       30.4400    5.4410   25.5300 O.2    47  GLN47      -0.2717
     21  NE2       28.6430    4.2860   26.0100 N.am   47  GLN47      -0.0878
     22  N         19.5840   -5.5610   27.3620 N.3   183  ALA183     -0.1245
     23  CA        19.8010   -4.1360   27.6980 C.3   183  ALA183      0.1562
     24  C         18.4850   -3.3570   27.8600 C.2   183  ALA183      0.2260
     25  O         17.5510   -3.5280   27.0440 O.2   183  ALA183     -0.2867
     26  CB        20.6340   -3.4620   26.6090 C.3   183  ALA183      0.0290
     27  N         17.1150    0.7710   28.5830 N.3   185  ARG185     -0.1245
     28  CA        17.5280    2.1410   28.5530 C.3   185  ARG185      0.1563
     29  C         16.5520    3.0190   29.3510 C.2   185  ARG185      0.2260
     30  O         15.3920    2.6650   29.5870 O.2   185  ARG185     -0.2867
     31  CB        17.4870    2.6410   27.1360 C.3   185  ARG185      0.0307
     32  CG        18.4890    1.9390   26.1950 C.3   185  ARG185      0.0489
     33  CD        18.2110    2.4710   24.7990 C.3   185  ARG185      0.2205
     34  NE        19.3450    2.3560   23.8700 N.pl3 185  ARG185     -0.0865
     35  CZ        19.2920    1.7360   22.6910 C.cat 185  ARG185      0.5346
     36  NH1       18.2220    1.0900   22.3240 N.pl3 185  ARG185      0.1354
     37  NH2       20.3360    1.7240   21.8760 N.pl3 185  ARG185      0.1354
     38  N         25.4780    1.6980   32.8260 N.3   207  ILE207     -0.1245
     39  CA        26.1470    2.7960   32.1590 C.3   207  ILE207      0.1561
     40  C         25.3370    4.0640   32.2840 C.2   207  ILE207      0.2260
     41  O         24.1140    4.0210   32.1250 O.2   207  ILE207     -0.2867
     42  CB        26.3560    2.4770   30.6650 C.3   207  ILE207      0.0252
     43  CG1       27.3110    1.3000   30.5180 C.3   207  ILE207      0.0019
     44  CG2       26.9450    3.6600   29.8830 C.3   207  ILE207      0.0019
     45  CD1       27.2150    0.6290   29.1730 C.3   207  ILE207      0.0001
     46  N         25.4870    8.4810   31.1950 N.3   209  TYR209     -0.1241
     47  CA        26.1640    9.6160   30.6860 C.3   209  TYR209      0.1605
     48  C         25.1920   10.7540   30.4310 C.2   209  TYR209      0.2264
     49  O         24.0110   10.4960   30.1350 O.2   209  TYR209     -0.2867
     50  CB        26.9410    9.3360   29.3710 C.3   209  TYR209      0.0534
     51  CG        26.2480    8.5280   28.2860 C.ar  209  TYR209     -0.0201
     52  CD1       26.3110    7.1470   28.2830 C.ar  209  TYR209     -0.0009
     53  CD2       25.5420    9.1550   27.2260 C.ar  209  TYR209     -0.0009
     54  CE1       25.7510    6.3910   27.2840 C.ar  209  TYR209      0.0417
     55  CE2       24.9770    8.4020   26.1930 C.ar  209  TYR209      0.0417
     56  CZ        25.1120    7.0160   26.1860 C.ar  209  TYR209      0.1957
     57  OH        24.5280    6.1990   25.1990 O.3   209  TYR209     -0.2866
     58  N         21.7260    2.9890   31.0870 N.3   220  VAL220     -0.1301
     59  CA        21.5850    1.7240   30.3660 C.3   220  VAL220      0.1246
     60  C         21.9850    0.5830   31.3090 C.3   220  VAL220      0.2009
     61  O         23.0860    0.6040   31.9750 O.3   220  VAL220     -0.2188
     62  CB        22.4580    1.6400   29.1510 C.3   220  VAL220      0.0202
     63  CG1       22.2970    0.2690   28.4560 C.3   220  VAL220      0.0016
     64  CG2       22.1780    2.7600   28.1790 C.3   220  VAL220      0.0016
     65  N         22.6650   -3.4890   31.5050 N.3   222  VAL222     -0.1245
     66  CA        22.9780   -4.7000   30.7780 C.3   222  VAL222      0.1561
     67  C         23.1720   -5.8260   31.7710 C.2   222  VAL222      0.2260
     68  O         24.0660   -5.7710   32.6510 O.2   222  VAL222     -0.2867
     69  CB        24.2410   -4.5410   29.8720 C.3   222  VAL222      0.0252
     70  CG1       24.6660   -5.8410   29.2130 C.3   222  VAL222      0.0019
     71  CG2       24.0290   -3.5370   28.7420 C.3   222  VAL222      0.0019
     72  N         20.3090   -8.9000   23.6200 N.3   267  MET267     -0.1245
     73  CA        21.5060   -8.5820   22.8930 C.3   267  MET267      0.1570
     74  C         21.9850   -9.8030   22.1060 C.2   267  MET267      0.2261
     75  O         22.3970  -10.7860   22.6380 O.2   267  MET267     -0.2867
     76  CB        22.5920   -8.0640   23.8380 C.3   267  MET267      0.0387
     77  CG        22.3180   -6.6600   24.3100 C.3   267  MET267      0.0595
     78  SD        23.2040   -6.3500   25.8740 S.3   267  MET267     -0.1393
     79  CE        24.9220   -6.6060   25.3190 C.3   267  MET267      0.0692
     80  N         27.2740   -4.6290   22.1400 N.3   293  GLN293     -0.1231
     81  CA        27.4900   -3.2090   22.2300 C.3   293  GLN293      0.1698
     82  C         28.6250   -2.7270   23.1070 C.2   293  GLN293      0.2592
     83  O         28.7660   -1.4960   23.2870 O.2   293  GLN293     -0.2718
     84  CB        26.1890   -2.5680   22.7910 C.3   293  GLN293      0.0381
     85  CG        24.9940   -3.4760   22.7730 C.3   293  GLN293      0.0905
     86  CD        24.7180   -4.1740   21.4600 C.2   293  GLN293      0.2608
     87  OE1       24.0700   -5.1940   21.4830 O.2   293  GLN293     -0.2717
     88  NE2       25.1980   -3.6320   20.2820 N.am  293  GLN293     -0.0878
     89  N         29.4520   -3.6260   23.6670 N.am  294  TYR294     -0.1976
     90  CA        30.4600   -3.2220   24.6150 C.3   294  TYR294      0.1639
     91  C         31.5550   -2.2280   24.1330 C.2   294  TYR294      0.2290
     92  O         32.0930   -1.5040   24.9380 O.2   294  TYR294     -0.2864
     93  CB        31.0900   -4.4770   25.1690 C.3   294  TYR294      0.0560
     94  CG        30.0810   -5.3750   25.7620 C.ar  294  TYR294     -0.0198
     95  CD1       29.4580   -5.0370   26.9710 C.ar  294  TYR294     -0.0009
     96  CD2       29.7270   -6.5470   25.1440 C.ar  294  TYR294     -0.0009
     97  CE1       28.4760   -5.8170   27.4820 C.ar  294  TYR294      0.0417
     98  CE2       28.7790   -7.4180   25.7070 C.ar  294  TYR294      0.0417
     99  CZ        28.1870   -7.0240   26.8810 C.ar  294  TYR294      0.1957
    100  OH        27.2740   -7.8730   27.4830 O.3   294  TYR294     -0.2866
    101  N         30.7940    0.0680   21.8560 N.3   296  ALA296     -0.1245
    102  CA        30.0140    1.2440   21.4910 C.3   296  ALA296      0.1562
    103  C         30.3600    1.7480   20.0800 C.2   296  ALA296      0.2260
    104  O         30.4980    2.9470   19.8400 O.2   296  ALA296     -0.2867
    105  CB        30.1770    2.3300   22.4910 C.3   296  ALA296      0.0290
    106  N         33.9270   -7.3380   31.4880 N.3   354  TRP354     -0.1241
    107  CA        33.0670   -6.5700   32.4050 C.3   354  TRP354      0.1605
    108  C         32.3550   -7.4150   33.4650 C.2   354  TRP354      0.2264
    109  O         32.0880   -6.9760   34.5580 O.2   354  TRP354     -0.2867
    110  CB        31.9550   -5.8320   31.6290 C.3   354  TRP354      0.0550
    111  CG        32.3890   -4.7210   30.7080 C.ar  354  TRP354      0.0003
    112  CD1       33.6470   -4.3800   30.3140 C.ar  354  TRP354      0.0946
    113  CD2       31.5260   -3.7650   30.1360 C.ar  354  TRP354      0.0152
    114  NE1       33.6100   -3.2920   29.4790 N.ar  354  TRP354     -0.2442
    115  CE2       32.3130   -2.8960   29.3540 C.ar  354  TRP354      0.0810
    116  CE3       30.1430   -3.5470   30.2210 C.ar  354  TRP354      0.0012
    117  CZ2       31.7540   -1.8310   28.6350 C.ar  354  TRP354      0.0191
    118  CZ3       29.5640   -2.5100   29.4500 C.ar  354  TRP354      0.0001
    119  CH2       30.3920   -1.6710   28.6820 C.ar  354  TRP354      0.0015
@<TRIPOS>BOND
     1    11    10    1
     2    12    10    1
     3    10     9    1
     4   104   103    2
     5    16    15    2
     6   103   102    1
     7    88    86   am
     8     9     6    1
     9    15    14    1
    10    86    87    2
    11    86    85    1
    12   102   101    1
    13   102   105    1
    14     6     7    1
    15     6     5    1
    16    37    35    1
    17    13     7   am
    18    13    14    1
    19     7     8    2
    20    14    17    1
    21    74    75    2
    22    74    73    1
    23    80    81    1
    24    81    84    1
    25    81    82    1
    26     5     3   am
    27    36    35    1
    28    35    34    2
    29    85    84    1
    30    73    72    1
    31    73    76    1
    32     4     3    2
    33     3     2    1
    34    17    18    1
    35    82    83    2
    36    82    89   am
    37    89    90    1
    38    76    77    1
    39    34    33    1
    40     2     1    1
    41    91    90    1
    42    91    92    2
    43    77    78    1
    44    18    19    1
    45    90    93    1
    46    33    32    1
    47    96    98   ar
    48    96    94   ar
    49    93    94    1
    50    57    56    1
    51    79    78    1
    52    19    20    2
    53    19    21   am
    54    98    99   ar
    55    94    95   ar
    56    56    55   ar
    57    56    54   ar
    58    55    53   ar
    59    32    31    1
    60    26    23    1
    61    99    97   ar
    62    99   100    1
    63    95    97   ar
    64    25    24    2
    65    31    28    1
    66    53    51   ar
    67    54    52   ar
    68    22    23    1
    69    23    24    1
    70    64    62    1
    71    52    51   ar
    72    51    50    1
    73    63    62    1
    74    28    27    1
    75    28    29    1
    76   117   119   ar
    77   117   115   ar
    78   119   118   ar
    79    71    69    1
    80    62    59    1
    81    45    43    1
    82    70    69    1
    83    29    30    2
    84   115   114   ar
    85   115   113   ar
    86    50    47    1
    87   118   116   ar
    88   114   112   ar
    89    69    66    1
    90    44    42    1
    91    49    48    2
    92   113   116   ar
    93   113   111   ar
    94   112   111   ar
    95    59    58    1
    96    59    60    1
    97    48    47    1
    98    43    42    1
    99    42    39    1
   100    47    46    1
   101   111   110    1
   102    66    65    1
   103    66    67    1
   104    60    61    1
   105   106   107    1
   106   110   107    1
   107    67    68    2
   108    41    40    2
   109    39    40    1
   110    39    38    1
   111   107   108    1
   112   108   109    2
