@<TRIPOS>MOLECULE
tmp/4bk3A01.pdb
 254 249 0 0 0
SMALL
GASTEIGER

@<TRIPOS>ATOM
      1  N         27.1890    6.5510   22.2330 N.3    47  GLN47      -0.1245
      2  CA        28.5510    7.0400   22.3850 C.3    47  GLN47       0.1566
      3  C         29.2360    7.0040   21.0510 C.2    47  GLN47       0.2260
      4  O         29.1240    6.0000   20.3070 O.2    47  GLN47      -0.2867
      5  CB        29.3390    6.0640   23.2930 C.3    47  GLN47       0.0367
      6  CG        28.6770    5.8860   24.6450 C.3    47  GLN47       0.0905
      7  CD        29.4850    5.0560   25.5920 C.2    47  GLN47       0.2608
      8  OE1       30.6270    5.3640   25.9030 O.2    47  GLN47      -0.2717
      9  NE2       28.9510    3.9560   25.9760 N.am   47  GLN47      -0.0878
     10  N         36.0610    8.4300   30.4730 N.3    75  ILE75      -0.1245
     11  CA        35.2890    7.2040   30.6440 C.3    75  ILE75       0.1561
     12  C         35.7730    6.6240   31.9540 C.2    75  ILE75       0.2260
     13  O         37.0300    6.4700   32.1300 O.2    75  ILE75      -0.2867
     14  CB        35.5340    6.1690   29.5390 C.3    75  ILE75       0.0252
     15  CG1       35.1040    6.7630   28.1870 C.3    75  ILE75       0.0019
     16  CG2       34.7060    4.9180   29.8280 C.3    75  ILE75       0.0019
     17  CD1       35.5070    5.8750   27.0070 C.3    75  ILE75       0.0001
     18  N         35.5740    3.6140   34.8160 N.3    77  PHE77      -0.1241
     19  CA        35.1110    2.2780   35.1840 C.3    77  PHE77       0.1605
     20  C         35.1060    2.1480   36.6720 C.2    77  PHE77       0.2264
     21  O         36.0280    2.5440   37.3350 O.2    77  PHE77      -0.2867
     22  CB        36.0270    1.2040   34.5660 C.3    77  PHE77       0.0534
     23  CG        35.9300    1.1720   33.0940 C.ar   77  PHE77      -0.0203
     24  CD1       34.8910    0.4730   32.4990 C.ar   77  PHE77      -0.0042
     25  CD2       36.8430    1.8630   32.3030 C.ar   77  PHE77      -0.0042
     26  CE1       34.7450    0.4530   31.1150 C.ar   77  PHE77      -0.0003
     27  CE2       36.6820    1.8240   30.9020 C.ar   77  PHE77      -0.0003
     28  CZ        35.6280    1.1620   30.3440 C.ar   77  PHE77      -0.0000
     29  N         39.5540    2.4130   36.8690 N.3    87  THR87      -0.1218
     30  CA        40.4110    3.2400   36.0400 C.3    87  THR87       0.1862
     31  C         39.5990    4.2640   35.3160 C.2    87  THR87       0.2287
     32  O         38.3600    4.1750   35.2720 O.2    87  THR87      -0.2866
     33  CB        41.2960    2.3390   35.0850 C.3    87  THR87       0.1770
     34  OG1       42.4310    3.0850   34.5610 O.3    87  THR87      -0.2211
     35  CG2       40.4200    1.6890   34.0360 C.3    87  THR87       0.0375
     36  N         39.7230    6.4520   31.4410 N.3    89  ILE89      -0.1245
     37  CA        40.2460    6.8900   30.1630 C.3    89  ILE89       0.1561
     38  C         40.0220    8.3810   30.0030 C.2    89  ILE89       0.2260
     39  O         38.8950    8.8270   29.9110 O.2    89  ILE89      -0.2867
     40  CB        39.6170    6.1540   28.9530 C.3    89  ILE89       0.0252
     41  CG1       39.7570    4.6290   29.1090 C.3    89  ILE89       0.0019
     42  CG2       40.2620    6.6520   27.6570 C.3    89  ILE89       0.0019
     43  CD1       38.9280    3.8170   28.1330 C.3    89  ILE89       0.0001
     44  N         35.6640   12.3630   21.7330 N.3   103  PHE103     -0.1241
     45  CA        34.6990   11.3170   22.0900 C.3   103  PHE103      0.1605
     46  C         33.4700   12.0800   22.5790 C.2   103  PHE103      0.2264
     47  O         33.5910   12.9370   23.4680 O.2   103  PHE103     -0.2867
     48  CB        35.2590   10.4330   23.2320 C.3   103  PHE103      0.0534
     49  CG        34.4290    9.2350   23.5790 C.ar  103  PHE103     -0.0203
     50  CD1       33.2530    9.3680   24.3230 C.ar  103  PHE103     -0.0042
     51  CD2       34.8230    7.9830   23.2190 C.ar  103  PHE103     -0.0042
     52  CE1       32.4980    8.2520   24.6260 C.ar  103  PHE103     -0.0003
     53  CE2       34.0730    6.8700   23.5120 C.ar  103  PHE103     -0.0003
     54  CZ        32.9150    7.0180   24.2310 C.ar  103  PHE103     -0.0000
     55  N         31.3020    9.5240   31.1480 N.3   202  VAL202     -0.1245
     56  CA        30.6840    8.2360   30.9160 C.3   202  VAL202      0.1561
     57  C         31.1340    7.3710   32.0700 C.2   202  VAL202      0.2260
     58  O         32.3710    7.1570   32.2680 O.2   202  VAL202     -0.2867
     59  CB        31.1440    7.6210   29.6190 C.3   202  VAL202      0.0252
     60  CG1       30.6030    6.2060   29.5000 C.3   202  VAL202      0.0019
     61  CG2       30.7200    8.4980   28.4400 C.3   202  VAL202      0.0019
     62  N         30.8840    3.6600   33.8250 N.3   204  GLY204     -0.1225
     63  CA        30.4520    2.2710   33.6790 C.3   204  GLY204      0.1811
     64  C         30.7490    1.4370   34.9280 C.2   204  GLY204      0.2280
     65  O         31.9700    1.2020   35.2430 O.2   204  GLY204     -0.2866
     66  N         25.5970    1.6910   32.9830 N.3   213  ILE213     -0.1245
     67  CA        26.2790    2.8390   32.4070 C.3   213  ILE213      0.1561
     68  C         25.4740    4.0820   32.5500 C.2   213  ILE213      0.2260
     69  O         24.2720    4.0250   32.3850 O.2   213  ILE213     -0.2867
     70  CB        26.6060    2.5940   30.9080 C.3   213  ILE213      0.0252
     71  CG1       27.7060    1.5280   30.8340 C.3   213  ILE213      0.0019
     72  CG2       27.1030    3.8440   30.2070 C.3   213  ILE213      0.0019
     73  CD1       27.8540    0.8780   29.4750 C.3   213  ILE213      0.0001
     74  N         29.6610   -3.6340   23.5990 N.3   300  TYR300     -0.1227
     75  CA        30.6120   -3.3230   24.6300 C.3   300  TYR300      0.1736
     76  C         31.6730   -2.2870   24.2360 C.2   300  TYR300      0.2595
     77  O         32.1860   -1.5820   25.1210 O.2   300  TYR300     -0.2718
     78  CB        31.2520   -4.6390   25.1180 C.3   300  TYR300      0.0548
     79  CG        30.2670   -5.6300   25.5870 C.ar  300  TYR300     -0.0200
     80  CD1       29.5180   -5.3990   26.7380 C.ar  300  TYR300     -0.0009
     81  CD2       30.0880   -6.8590   24.9490 C.ar  300  TYR300     -0.0009
     82  CE1       28.5770   -6.3220   27.1600 C.ar  300  TYR300      0.0417
     83  CE2       29.2150   -7.8190   25.4450 C.ar  300  TYR300      0.0417
     84  CZ        28.4680   -7.5180   26.5780 C.ar  300  TYR300      0.1957
     85  OH        27.5860   -8.4120   27.1430 O.3   300  TYR300     -0.2866
     86  N         32.0520   -2.2210   22.9440 N.am  301  LEU301     -0.1966
     87  CA        32.9910   -1.2650   22.4190 C.3   301  LEU301      0.1728
     88  C         32.3050   -0.0200   21.8650 C.2   301  LEU301      0.2616
     89  O         32.9600    0.8610   21.3320 O.2   301  LEU301     -0.2715
     90  CB        33.8230   -1.8590   21.3400 C.3   301  LEU301      0.0311
     91  CG        34.7840   -2.9500   21.7850 C.3   301  LEU301      0.0022
     92  CD1       35.3930   -3.7240   20.6430 C.3   301  LEU301      0.0001
     93  CD2       35.9330   -2.4500   22.5940 C.3   301  LEU301      0.0001
     94  N         30.9940   -0.0090   21.9450 N.am  302  ALA302     -0.1977
     95  CA        30.1960    1.0910   21.5720 C.3   302  ALA302      0.1597
     96  C         30.5710    1.6410   20.2030 C.2   302  ALA302      0.2287
     97  O         30.6970    2.8580   20.0150 O.2   302  ALA302     -0.2864
     98  CB        30.3220    2.1840   22.6550 C.3   302  ALA302      0.0319
     99  N         37.3770   -7.7560   13.8870 N.3   348  ARG348     -0.1245
    100  CA        38.1140   -7.6700   15.1070 C.3   348  ARG348      0.1563
    101  C         37.2590   -7.0260   16.2100 C.2   348  ARG348      0.2260
    102  O         37.3270   -7.3730   17.3960 O.2   348  ARG348     -0.2867
    103  CB        39.4490   -6.9520   14.8570 C.3   348  ARG348      0.0307
    104  CG        40.2470   -6.7490   16.1060 C.3   348  ARG348      0.0489
    105  CD        41.5720   -6.1440   15.7840 C.3   348  ARG348      0.2205
    106  NE        42.3710   -5.9850   16.9940 N.pl3 348  ARG348     -0.0865
    107  CZ        43.6100   -5.4060   17.0160 C.cat 348  ARG348      0.5346
    108  NH1       44.1800   -4.9150   15.9320 N.pl3 348  ARG348      0.1354
    109  NH2       44.2560   -5.2860   18.1590 N.pl3 348  ARG348      0.1354
    110  N         36.7050   -9.1200   19.5200 N.3   352  THR352     -0.1218
    111  CA        37.2550   -8.4600   20.6920 C.3   352  THR352      0.1862
    112  C         36.1610   -7.9380   21.5730 C.2   352  THR352      0.2287
    113  O         36.2440   -8.0060   22.8240 O.2   352  THR352     -0.2866
    114  CB        38.2930   -7.3710   20.2820 C.3   352  THR352      0.1770
    115  OG1       39.3630   -8.0400   19.6240 O.3   352  THR352     -0.2211
    116  CG2       38.9020   -6.6940   21.5470 C.3   352  THR352      0.0375
    117  N         35.0390  -10.5350   24.0290 N.3   355  MET355     -0.1230
    118  CA        35.9700  -10.7750   25.1270 C.3   355  MET355      0.1702
    119  C         35.8820   -9.6290   26.1080 C.2   355  MET355      0.2592
    120  O         35.9100   -9.8420   27.3200 O.2   355  MET355     -0.2718
    121  CB        37.3840  -10.8890   24.5980 C.3   355  MET355      0.0401
    122  CG        38.4300  -11.1040   25.6610 C.3   355  MET355      0.0596
    123  SD        39.0580   -9.6190   26.4150 S.3   355  MET355     -0.1393
    124  CE        40.0590   -8.7870   25.1430 C.3   355  MET355      0.0692
    125  N         35.8340   -8.4180   25.5990 N.am  356  TRP356     -0.1976
    126  CA        35.6860   -7.2210   26.4240 C.3   356  TRP356      0.1640
    127  C         34.4720   -7.2510   27.3010 C.2   356  TRP356      0.2290
    128  O         34.5640   -6.9570   28.5230 O.2   356  TRP356     -0.2864
    129  CB        35.7950   -5.9550   25.5240 C.3   356  TRP356      0.0576
    130  CG        35.5980   -4.6250   26.0510 C.ar  356  TRP356      0.0006
    131  CD1       34.7310   -3.7480   25.5790 C.ar  356  TRP356      0.0946
    132  CD2       36.3800   -3.9150   27.0200 C.ar  356  TRP356      0.0152
    133  NE1       34.8330   -2.5670   26.2180 N.ar  356  TRP356     -0.2442
    134  CE2       35.8460   -2.6110   27.0880 C.ar  356  TRP356      0.0810
    135  CE3       37.4170   -4.2410   27.8300 C.ar  356  TRP356      0.0012
    136  CZ2       36.3220   -1.6320   27.9530 C.ar  356  TRP356      0.0191
    137  CZ3       37.9400   -3.2310   28.7080 C.ar  356  TRP356      0.0001
    138  CH2       37.3650   -1.9680   28.7450 C.ar  356  TRP356      0.0015
    139  N         35.0690   -9.6610   30.0480 N.3   359  LEU359     -0.1231
    140  CA        35.9570   -9.1240   31.0500 C.3   359  LEU359      0.1693
    141  C         35.1940   -8.2320   32.0480 C.2   359  LEU359      0.2592
    142  O         35.4520   -8.2770   33.2550 O.2   359  LEU359     -0.2718
    143  CB        37.0230   -8.3000   30.3010 C.3   359  LEU359      0.0284
    144  CG        38.1340   -7.7230   31.1010 C.3   359  LEU359      0.0019
    145  CD1       39.0220   -8.8520   31.5580 C.3   359  LEU359      0.0001
    146  CD2       39.0410   -6.8160   30.2410 C.3   359  LEU359      0.0001
    147  N         34.1960   -7.4880   31.5690 N.am  360  TRP360     -0.1976
    148  CA        33.3370   -6.6860   32.4520 C.3   360  TRP360      0.1640
    149  C         32.5230   -7.4850   33.4680 C.2   360  TRP360      0.2290
    150  O         32.2360   -7.0000   34.5330 O.2   360  TRP360     -0.2864
    151  CB        32.3510   -5.8360   31.6540 C.3   360  TRP360      0.0576
    152  CG        32.9140   -4.7350   30.8770 C.ar  360  TRP360      0.0006
    153  CD1       34.2150   -4.4050   30.7650 C.ar  360  TRP360      0.0946
    154  CD2       32.1830   -3.7700   30.1570 C.ar  360  TRP360      0.0152
    155  NE1       34.3450   -3.2750   29.9870 N.ar  360  TRP360     -0.2442
    156  CE2       33.1080   -2.8780   29.5760 C.ar  360  TRP360      0.0810
    157  CE3       30.8370   -3.5690   29.9360 C.ar  360  TRP360      0.0012
    158  CZ2       32.7310   -1.8260   28.7630 C.ar  360  TRP360      0.0191
    159  CZ3       30.4490   -2.5320   29.0840 C.ar  360  TRP360      0.0001
    160  CH2       31.4000   -1.6750   28.5180 C.ar  360  TRP360      0.0015
    161  N         44.1320   -5.4730   37.4530 N.3   373  LEU373     -0.1231
    162  CA        44.5740   -5.1470   36.1320 C.3   373  LEU373      0.1693
    163  C         44.1820   -3.7470   35.7100 C.2   373  LEU373      0.2592
    164  O         45.0430   -2.9510   35.2510 O.2   373  LEU373     -0.2718
    165  CB        44.0080   -6.1470   35.1290 C.3   373  LEU373      0.0284
    166  CG        44.3210   -5.8550   33.6570 C.3   373  LEU373      0.0019
    167  CD1       45.7880   -5.8540   33.3400 C.3   373  LEU373      0.0001
    168  CD2       43.5590   -6.8520   32.8630 C.3   373  LEU373      0.0001
    169  N         42.9150   -3.4120   35.8940 N.am  374  PHE374     -0.1976
    170  CA        42.5190   -2.1160   35.5610 C.3   374  PHE374      0.1639
    171  C         43.2190   -1.0170   36.4060 C.2   374  PHE374      0.2290
    172  O         43.6060    0.0310   35.8380 O.2   374  PHE374     -0.2864
    173  CB        41.0480   -1.9550   35.7450 C.3   374  PHE374      0.0560
    174  CG        40.1900   -2.4940   34.6090 C.ar  374  PHE374     -0.0200
    175  CD1       40.4720   -3.6600   33.8870 C.ar  374  PHE374     -0.0042
    176  CD2       38.9890   -1.8540   34.3330 C.ar  374  PHE374     -0.0042
    177  CE1       39.6270   -4.0960   32.8310 C.ar  374  PHE374     -0.0003
    178  CE2       38.1140   -2.3330   33.3480 C.ar  374  PHE374     -0.0003
    179  CZ        38.4300   -3.4430   32.5830 C.ar  374  PHE374     -0.0000
    180  N         47.1790   -0.2890   35.5040 N.3   377  ARG377     -0.1245
    181  CA        47.6520   -0.0780   34.1160 C.3   377  ARG377      0.1563
    182  C         48.4610    1.2510   33.9480 C.2   377  ARG377      0.2260
    183  O         48.2840    2.2130   34.7010 O.2   377  ARG377     -0.2867
    184  CB        46.4740   -0.1010   33.1710 C.3   377  ARG377      0.0307
    185  CG        45.6740    1.1740   33.1550 C.3   377  ARG377      0.0489
    186  CD        44.3130    0.9830   32.4360 C.3   377  ARG377      0.2205
    187  NE        43.7120    2.2750   32.2150 N.pl3 377  ARG377     -0.0865
    188  CZ        43.9140    3.0800   31.1860 C.cat 377  ARG377      0.5346
    189  NH1       44.6820    2.7070   30.1430 N.pl3 377  ARG377      0.1354
    190  NH2       43.3550    4.2670   31.1740 N.pl3 377  ARG377      0.1354
    191  N         48.0370    1.4260   24.1310 N.3   383  LYS383     -0.1231
    192  CA        48.0500    0.1360   23.4500 C.3   383  LYS383      0.1693
    193  C         46.6970   -0.5670   23.4630 C.2   383  LYS383      0.2592
    194  O         46.4280   -1.3350   22.5570 O.2   383  LYS383     -0.2718
    195  CB        49.0550   -0.8170   24.0650 C.3   383  LYS383      0.0285
    196  CG        48.6860   -1.3710   25.4260 C.3   383  LYS383      0.0035
    197  CD        49.7900   -2.2730   25.9360 C.3   383  LYS383      0.0206
    198  CE        49.2290   -3.3350   26.8910 C.3   383  LYS383      0.1093
    199  NZ        50.1390   -4.5330   26.9600 N.3   383  LYS383     -0.1314
    200  N         45.8380   -0.3130   24.4430 N.am  384  TYR384     -0.1962
    201  CA        44.5330   -0.9860   24.4740 C.3   384  TYR384      0.1771
    202  C         43.5430   -0.3330   23.5030 C.2   384  TYR384      0.2620
    203  O         42.4910   -0.9050   23.3010 O.2   384  TYR384     -0.2715
    204  CB        43.9800   -1.0130   25.8720 C.3   384  TYR384      0.0574
    205  CG        44.7940   -1.8550   26.8520 C.ar  384  TYR384     -0.0198
    206  CD1       45.2700   -3.1400   26.5280 C.ar  384  TYR384     -0.0009
    207  CD2       45.0910   -1.3570   28.1030 C.ar  384  TYR384     -0.0009
    208  CE1       46.0280   -3.8850   27.4820 C.ar  384  TYR384      0.0417
    209  CE2       45.8180   -2.0910   29.0370 C.ar  384  TYR384      0.0417
    210  CZ        46.2950   -3.3610   28.6860 C.ar  384  TYR384      0.1957
    211  OH        47.0050   -4.0580   29.6600 O.3   384  TYR384     -0.2866
    212  N         43.8140    0.9250   23.0580 N.am  385  THR385     -0.1951
    213  CA        42.7650    1.7100   22.3500 C.3   385  THR385      0.1897
    214  C         43.1400    2.1970   20.9370 C.2   385  THR385      0.2313
    215  O         42.2690    2.5390   20.1320 O.2   385  THR385     -0.2863
    216  CB        42.3720    2.9370   23.2060 C.3   385  THR385      0.1794
    217  OG1       43.4790    3.7940   23.4360 O.3   385  THR385     -0.2208
    218  CG2       41.9030    2.4350   24.5870 C.3   385  THR385      0.0378
    219  N         44.0920    0.5710   18.2400 N.3   387  TRP387     -0.1227
    220  CA        43.5330   -0.2400   17.1830 C.3   387  TRP387      0.1737
    221  C         42.0580    0.1710   16.9070 C.2   387  TRP387      0.2595
    222  O         41.5640   -0.0170   15.7910 O.2   387  TRP387     -0.2718
    223  CB        43.5510   -1.7360   17.5870 C.3   387  TRP387      0.0564
    224  CG        42.6520   -2.0510   18.7250 C.ar  387  TRP387      0.0003
    225  CD1       42.8770   -1.8210   20.0450 C.ar  387  TRP387      0.0946
    226  CD2       41.3270   -2.5870   18.6470 C.ar  387  TRP387      0.0152
    227  NE1       41.7980   -2.1740   20.7960 N.ar  387  TRP387     -0.2442
    228  CE2       40.8270   -2.6540   19.9490 C.ar  387  TRP387      0.0810
    229  CE3       40.5220   -2.9680   17.6090 C.ar  387  TRP387      0.0012
    230  CZ2       39.5870   -3.1800   20.2320 C.ar  387  TRP387      0.0191
    231  CZ3       39.3240   -3.5180   17.8870 C.ar  387  TRP387      0.0001
    232  CH2       38.8290   -3.5590   19.1770 C.ar  387  TRP387      0.0015
    233  N         41.3760    0.6830   17.9180 N.am  388  LEU388     -0.1966
    234  CA        39.9600    1.0330   17.8440 C.3   388  LEU388      0.1728
    235  C         39.8670    2.4760   17.3860 C.2   388  LEU388      0.2616
    236  O         39.3780    2.7390   16.2560 O.2   388  LEU388     -0.2715
    237  CB        39.2650    0.8270   19.1650 C.3   388  LEU388      0.0311
    238  CG        37.7880    1.1190   19.1410 C.3   388  LEU388      0.0022
    239  CD1       37.0710    0.2020   18.1740 C.3   388  LEU388      0.0001
    240  CD2       37.2400    1.0260   20.5500 C.3   388  LEU388      0.0001
    241  N         40.3910    3.3920   18.1780 N.am  389  TRP389     -0.1974
    242  CA        40.1540    4.8450   17.9690 C.3   389  TRP389      0.1640
    243  C         41.1060    5.4730   16.9780 C.2   389  TRP389      0.2290
    244  O         40.8010    6.5770   16.4780 O.2   389  TRP389     -0.2864
    245  CB        40.1200    5.5410   19.3150 C.3   389  TRP389      0.0576
    246  CG        38.9730    5.2140   20.1430 C.ar  389  TRP389      0.0006
    247  CD1       37.7430    4.9160   19.7120 C.ar  389  TRP389      0.0946
    248  CD2       38.9220    5.1670   21.5680 C.ar  389  TRP389      0.0152
    249  NE1       36.9070    4.6350   20.7970 N.ar  389  TRP389     -0.2442
    250  CE2       37.6100    4.7910   21.9440 C.ar  389  TRP389      0.0810
    251  CE3       39.8550    5.3810   22.5660 C.ar  389  TRP389      0.0012
    252  CZ2       37.2130    4.6760   23.2750 C.ar  389  TRP389      0.0191
    253  CZ3       39.4750    5.2450   23.9250 C.ar  389  TRP389      0.0001
    254  CH2       38.1490    4.8580   24.2480 C.ar  389  TRP389      0.0015
@<TRIPOS>BOND
     1    99   100    1
     2   103   100    1
     3   103   104    1
     4   100   101    1
     5   105   104    1
     6   105   106    1
     7   222   221    2
     8   108   107    1
     9   101   102    2
    10   236   235    2
    11   244   243    2
    12   221   220    1
    13   221   233   am
    14   243   242    1
    15   106   107    2
    16   107   109    1
    17   220   223    1
    18   220   219    1
    19   235   234    1
    20   235   241   am
    21   223   224    1
    22   229   231   ar
    23   229   226   ar
    24   234   233    1
    25   234   237    1
    26   231   232   ar
    27   242   241    1
    28   242   245    1
    29   239   238    1
    30   226   224   ar
    31   226   228   ar
    32   224   225   ar
    33   238   237    1
    34   238   240    1
    35   232   230   ar
    36   245   246    1
    37   110   111    1
    38   115   114    1
    39   247   246   ar
    40   247   249   ar
    41   228   230   ar
    42   228   227   ar
    43    97    96    2
    44   225   227   ar
    45   215   214    2
    46   246   248   ar
    47    96    95    1
    48   114   111    1
    49   114   116    1
    50     4     3    2
    51    92    91    1
    52   111   112    1
    53   249   250   ar
    54   214   213    1
    55     3     2    1
    56    89    88    2
    57    90    91    1
    58    90    87    1
    59   248   250   ar
    60   248   251   ar
    61    95    94    1
    62    95    98    1
    63   112   113    2
    64    44    45    1
    65    91    93    1
    66    88    94   am
    67    88    87    1
    68   250   252   ar
    69    45    46    1
    70    45    48    1
    71     1     2    1
    72   213   212    1
    73   213   216    1
    74     2     5    1
    75    87    86    1
    76   194   193    2
    77   251   253   ar
    78    46    47    2
    79    86    76   am
    80   212   202   am
    81   216   217    1
    82   216   218    1
    83    51    53   ar
    84    51    49   ar
    85    48    49    1
    86   252   254   ar
    87     5     6    1
    88   203   202    2
    89   192   193    1
    90   192   195    1
    91   192   191    1
    92   193   200   am
    93   202   201    1
    94    53    54   ar
    95    49    50   ar
    96    74    75    1
    97   253   254   ar
    98   117   118    1
    99   195   196    1
   100    54    52   ar
   101    76    75    1
   102    76    77    2
   103    50    52   ar
   104   200   201    1
   105   201   204    1
   106   121   118    1
   107   121   122    1
   108    75    78    1
   109     6     7    1
   110    81    83   ar
   111    81    79   ar
   112    78    79    1
   113   118   119    1
   114   124   123    1
   115   196   197    1
   116    83    84   ar
   117   129   130    1
   118   129   126    1
   119   131   130   ar
   120   131   133   ar
   121    79    80   ar
   122     7     8    2
   123     7     9   am
   124   125   119   am
   125   125   126    1
   126   122   123    1
   127   204   205    1
   128   197   198    1
   129   130   132   ar
   130   119   120    2
   131   133   134   ar
   132   126   127    1
   133   206   205   ar
   134   206   208   ar
   135    84    85    1
   136    84    82   ar
   137    80    82   ar
   138   205   207   ar
   139   198   199    1
   140    17    15    1
   141   132   134   ar
   142   132   135   ar
   143   134   136   ar
   144   127   128    2
   145   208   210   ar
   146    42    40    1
   147   135   137   ar
   148   136   138   ar
   149   207   209   ar
   150    43    41    1
   151    15    14    1
   152    61    59    1
   153   160   158   ar
   154   160   159   ar
   155   210   209   ar
   156   210   211    1
   157   137   138   ar
   158   158   156   ar
   159    40    41    1
   160    40    37    1
   161   159   157   ar
   162    73    71    1
   163    60    59    1
   164    14    16    1
   165    14    11    1
   166   156   155   ar
   167   156   154   ar
   168    59    56    1
   169    39    38    2
   170   157   154   ar
   171   155   153   ar
   172    38    37    1
   173   139   140    1
   174   189   188    1
   175   154   152   ar
   176    37    36    1
   177    72    70    1
   178   146   144    1
   179   143   140    1
   180   143   144    1
   181    28    27   ar
   182    28    26   ar
   183    10    11    1
   184    11    12    1
   185   153   152   ar
   186    71    70    1
   187   152   151    1
   188    27    25   ar
   189    70    67    1
   190    56    55    1
   191    56    57    1
   192   140   141    1
   193   144   145    1
   194    26    24   ar
   195   190   188    1
   196   188   187    2
   197   147   141   am
   198   147   148    1
   199   151   148    1
   200    12    13    2
   201   141   142    2
   202    57    58    2
   203   187   186    1
   204    25    23   ar
   205    69    68    2
   206    67    68    1
   207    67    66    1
   208   186   185    1
   209   148   149    1
   210    24    23   ar
   211   179   177   ar
   212   179   178   ar
   213   177   175   ar
   214   168   166    1
   215    23    22    1
   216   185   184    1
   217   184   181    1
   218   167   166    1
   219   178   176   ar
   220   149   150    2
   221   166   165    1
   222    63    62    1
   223    63    64    1
   224   175   174   ar
   225   182   181    1
   226   182   183    2
   227    35    33    1
   228   181   180    1
   229   176   174   ar
   230    34    33    1
   231    22    19    1
   232   174   173    1
   233    18    19    1
   234    64    65    2
   235    33    30    1
   236   165   162    1
   237    19    20    1
   238   164   163    2
   239    32    31    2
   240    31    30    1
   241   170   173    1
   242   170   169    1
   243   170   171    1
   244   163   169   am
   245   163   162    1
   246   172   171    2
   247    30    29    1
   248   162   161    1
   249    20    21    2
