@<TRIPOS>MOLECULE
tmp/4bkoA00.pdb
 134 124 0 0 0
SMALL
GASTEIGER

@<TRIPOS>ATOM
      1  N         -4.5570   -8.3910   16.1200 N.3    60  TYR60      -0.1241
      2  CA        -3.5950   -8.1900   15.0570 C.3    60  TYR60       0.1605
      3  C         -3.2770   -6.7090   14.8340 C.2    60  TYR60       0.2264
      4  O         -2.1530   -6.3470   14.4840 O.2    60  TYR60      -0.2867
      5  CB        -4.0990   -8.8260   13.7680 C.3    60  TYR60       0.0534
      6  CG        -3.9300  -10.3260   13.6960 C.ar   60  TYR60      -0.0201
      7  CD1       -2.6680  -10.9010   13.7600 C.ar   60  TYR60      -0.0009
      8  CD2       -5.0240  -11.1610   13.5210 C.ar   60  TYR60      -0.0009
      9  CE1       -2.4940  -12.2740   13.6560 C.ar   60  TYR60       0.0417
     10  CE2       -4.8600  -12.5520   13.4090 C.ar   60  TYR60       0.0417
     11  CZ        -3.5900  -13.0910   13.4840 C.ar   60  TYR60       0.1957
     12  OH        -3.3970  -14.4440   13.3630 O.3    60  TYR60      -0.2866
     13  N        -22.5930  -14.8370    9.8490 N.3   164  LEU164     -0.1245
     14  CA       -21.6870  -15.9230    9.4960 C.3   164  LEU164      0.1561
     15  C        -22.5340  -17.1150    9.0890 C.2   164  LEU164      0.2260
     16  O        -22.9120  -17.9220    9.9340 O.2   164  LEU164     -0.2867
     17  CB       -20.8030  -16.3030   10.6930 C.3   164  LEU164      0.0270
     18  CG       -19.7320  -15.3230   11.1890 C.3   164  LEU164      0.0019
     19  CD1      -20.3040  -14.0970   11.9050 C.3   164  LEU164      0.0001
     20  CD2      -18.7100  -16.0280   12.0710 C.3   164  LEU164      0.0001
     21  N        -17.8570   -6.1760    6.5020 N.3   203  MET203     -0.1245
     22  CA       -16.5540   -6.8320    6.4770 C.3   203  MET203      0.1570
     23  C        -15.8190   -6.7310    5.1400 C.2   203  MET203      0.2261
     24  O        -14.6630   -7.1450    5.0300 O.2   203  MET203     -0.2867
     25  CB       -16.6980   -8.3030    6.8730 C.3   203  MET203      0.0387
     26  CG       -17.1550   -8.4930    8.3160 C.3   203  MET203      0.0595
     27  SD       -15.9810   -7.8250    9.5180 S.3   203  MET203     -0.1393
     28  CE       -14.6020   -8.9460    9.2980 C.3   203  MET203      0.0692
     29  N         -6.8750  -10.2740    7.0810 N.3   231  THR231     -0.1203
     30  CA        -8.0160  -11.1740    7.0200 C.3   231  THR231      0.1994
     31  C         -7.5710  -12.5990    7.3380 C.2   231  THR231      0.2617
     32  O         -6.3890  -12.8660    7.5910 O.2   231  THR231     -0.2717
     33  CB        -8.6890  -11.1420    5.6270 C.3   231  THR231      0.1784
     34  OG1      -10.0100  -11.6940    5.7130 O.3   231  THR231     -0.2211
     35  CG2       -7.8590  -11.9210    4.6010 C.3   231  THR231      0.0376
     36  N         -8.5380  -13.5040    7.3400 N.am  232  TYR232     -0.1975
     37  CA        -8.2870  -14.9170    7.5980 C.3   232  TYR232      0.1639
     38  C         -8.9260  -15.7270    6.4830 C.2   232  TYR232      0.2290
     39  O        -10.0680  -15.4600    6.1200 O.2   232  TYR232     -0.2864
     40  CB        -8.9330  -15.3110    8.9250 C.3   232  TYR232      0.0560
     41  CG        -8.8520  -16.7900    9.2000 C.ar  232  TYR232     -0.0198
     42  CD1       -7.6400  -17.3770    9.5100 C.ar  232  TYR232     -0.0009
     43  CD2       -9.9760  -17.6010    9.1330 C.ar  232  TYR232     -0.0009
     44  CE1       -7.5370  -18.7240    9.7510 C.ar  232  TYR232      0.0417
     45  CE2       -9.8790  -18.9830    9.3810 C.ar  232  TYR232      0.0417
     46  CZ        -8.6520  -19.5230    9.6920 C.ar  232  TYR232      0.1957
     47  OH        -8.4970  -20.8710    9.9510 O.3   232  TYR232     -0.2866
     48  N        -16.0390  -19.6190    6.2270 N.3   242  TYR242     -0.1241
     49  CA       -15.0220  -18.5810    6.1700 C.3   242  TYR242      0.1605
     50  C        -14.4740  -18.3470    4.7720 C.2   242  TYR242      0.2264
     51  O        -13.7250  -17.3960    4.5600 O.2   242  TYR242     -0.2867
     52  CB       -13.9150  -18.8210    7.2230 C.3   242  TYR242      0.0534
     53  CG       -14.4450  -18.7160    8.6330 C.ar  242  TYR242     -0.0201
     54  CD1      -15.0080  -19.8170    9.2650 C.ar  242  TYR242     -0.0009
     55  CD2      -14.4250  -17.5030    9.3220 C.ar  242  TYR242     -0.0009
     56  CE1      -15.5180  -19.7280   10.5450 C.ar  242  TYR242      0.0417
     57  CE2      -14.9310  -17.4040   10.6070 C.ar  242  TYR242      0.0417
     58  CZ       -15.4760  -18.5210   11.2120 C.ar  242  TYR242      0.1957
     59  OH       -15.9910  -18.4430   12.4820 O.3   242  TYR242     -0.2866
     60  N        -19.3910  -14.5060    4.7590 N.3   247  ILE247     -0.1245
     61  CA       -18.0830  -13.9330    5.0540 C.3   247  ILE247      0.1561
     62  C        -17.1290  -14.0230    3.8560 C.2   247  ILE247      0.2260
     63  O        -16.3870  -13.0810    3.5680 O.2   247  ILE247     -0.2867
     64  CB       -17.4710  -14.5790    6.3120 C.3   247  ILE247      0.0252
     65  CG1      -18.0670  -13.9360    7.5540 C.3   247  ILE247      0.0019
     66  CG2      -15.9840  -14.4240    6.3300 C.3   247  ILE247      0.0019
     67  CD1      -17.4320  -14.4350    8.8290 C.3   247  ILE247      0.0001
     68  N        -14.8110  -11.1940    1.8350 N.3   251  LYS251     -0.1245
     69  CA       -13.3890  -11.3360    1.5180 C.3   251  LYS251      0.1561
     70  C        -13.1200  -11.1880    0.0200 C.2   251  LYS251      0.2260
     71  O        -12.0950  -10.6300   -0.3910 O.2   251  LYS251     -0.2867
     72  CB       -12.8450  -12.6590    2.0680 C.3   251  LYS251      0.0271
     73  CG       -12.8610  -12.7030    3.5890 C.3   251  LYS251      0.0035
     74  CD       -12.5920  -14.1060    4.1340 C.3   251  LYS251      0.0206
     75  CE       -12.6500  -14.0640    5.6570 C.3   251  LYS251      0.1093
     76  NZ       -12.4520  -15.4230    6.2470 N.3   251  LYS251     -0.1314
     77  N         -3.0550  -16.2370   10.4290 N.3   278  LYS278     -0.1231
     78  CA        -3.5620  -17.4970   10.9940 C.3   278  LYS278      0.1693
     79  C         -4.7430  -17.2830   11.9480 C.2   278  LYS278      0.2592
     80  O         -5.0280  -16.1580   12.3720 O.2   278  LYS278     -0.2718
     81  CB        -2.4470  -18.2560   11.7360 C.3   278  LYS278      0.0285
     82  CG        -2.0890  -17.6560   13.1050 C.3   278  LYS278      0.0035
     83  CD        -0.9430  -18.4230   13.7860 C.3   278  LYS278      0.0206
     84  CE        -1.4160  -19.7640   14.3520 C.3   278  LYS278      0.1093
     85  NZ        -2.2530  -19.6050   15.5840 N.3   278  LYS278     -0.1314
     86  N         -5.4110  -18.3840   12.2950 N.am  279  ALA279     -0.1966
     87  CA        -6.4780  -18.3820   13.2950 C.3   279  ALA279      0.1728
     88  C         -5.8950  -18.1730   14.6950 C.2   279  ALA279      0.2616
     89  O         -4.9520  -18.8690   15.0920 O.2   279  ALA279     -0.2715
     90  CB        -7.2290  -19.7090   13.2490 C.3   279  ALA279      0.0334
     91  N         -6.4610  -17.2140   15.4350 N.am  280  VAL280     -0.1977
     92  CA        -6.1130  -16.9980   16.8470 C.3   280  VAL280      0.1596
     93  C         -7.3850  -16.8140   17.6500 C.2   280  VAL280      0.2287
     94  O         -8.4540  -16.6000   17.0830 O.2   280  VAL280     -0.2864
     95  CB        -5.2080  -15.7620   17.0550 C.3   280  VAL280      0.0276
     96  CG1       -3.8380  -15.9970   16.4330 C.3   280  VAL280      0.0022
     97  CG2       -5.8840  -14.4880   16.4870 C.3   280  VAL280      0.0022
     98  N         -9.8940  -14.6610   19.6130 N.3   282  THR282     -0.1218
     99  CA       -10.2750  -13.2520   19.7290 C.3   282  THR282      0.1862
    100  C        -11.4320  -13.1130   20.7070 C.2   282  THR282      0.2287
    101  O        -11.9590  -14.1160   21.2010 O.2   282  THR282     -0.2866
    102  CB       -10.7440  -12.6970   18.3870 C.3   282  THR282      0.1770
    103  OG1      -12.0460  -13.2230   18.0990 O.3   282  THR282     -0.2211
    104  CG2       -9.7760  -13.0940   17.2780 C.3   282  THR282      0.0375
    105  N        -14.4760  -15.0070   19.5530 N.3   285  SER285     -0.1217
    106  CA       -14.2430  -16.4020   19.1750 C.3   285  SER285      0.1889
    107  C        -15.2500  -17.3820   19.7540 C.2   285  SER285      0.2288
    108  O        -15.6420  -18.3480   19.0880 O.2   285  SER285     -0.2866
    109  CB       -12.8300  -16.8380   19.6000 C.3   285  SER285      0.2089
    110  OG       -11.8580  -16.3300   18.7180 O.3   285  SER285     -0.2183
    111  N        -18.7170  -17.4760   17.8150 N.3   288  ILE288     -0.1245
    112  CA       -18.7800  -17.7260   16.3670 C.3   288  ILE288      0.1561
    113  C        -18.6630  -19.2130   16.0030 C.2   288  ILE288      0.2260
    114  O        -18.1270  -20.0150   16.7860 O.2   288  ILE288     -0.2867
    115  CB       -17.7500  -16.8640   15.5850 C.3   288  ILE288      0.0252
    116  CG1      -16.3170  -17.2590   15.9320 C.3   288  ILE288      0.0019
    117  CG2      -17.9860  -15.3770   15.8500 C.3   288  ILE288      0.0019
    118  CD1      -15.2840  -16.3950   15.2280 C.3   288  ILE288      0.0001
    119  N        -15.1480  -22.0670   15.6250 N.3   291  MET291     -0.1245
    120  CA       -13.8140  -21.6180   16.0290 C.3   291  MET291      0.1570
    121  C        -13.2320  -22.1630   17.3440 C.2   291  MET291      0.2261
    122  O        -12.0610  -22.5300   17.3790 O.2   291  MET291     -0.2867
    123  CB       -13.6980  -20.0900   15.9700 C.3   291  MET291      0.0387
    124  CG       -13.9950  -19.5450   14.5840 C.3   291  MET291      0.0595
    125  SD       -13.0680  -20.3400   13.2650 S.3   291  MET291     -0.1393
    126  CE       -11.4360  -20.1750   13.9170 C.3   291  MET291      0.0692
    127  N         -9.9060  -23.9950   16.8790 N.3   295  LEU295     -0.1245
    128  CA        -8.7390  -23.4900   17.6010 C.3   295  LEU295      0.1561
    129  C         -8.1840  -24.5050   18.6170 C.2   295  LEU295      0.2260
    130  O         -6.9670  -24.6840   18.7140 O.2   295  LEU295     -0.2867
    131  CB        -9.0540  -22.1450   18.2840 C.3   295  LEU295      0.0270
    132  CG        -9.2520  -20.9440   17.3490 C.3   295  LEU295      0.0019
    133  CD1       -9.9330  -19.7810   18.0670 C.3   295  LEU295      0.0001
    134  CD2       -7.8950  -20.4950   16.8070 C.3   295  LEU295      0.0001
@<TRIPOS>BOND
     1    71    70    2
     2    70    69    1
     3    69    68    1
     4    69    72    1
     5    72    73    1
     6    63    62    2
     7    73    74    1
     8    62    61    1
     9    74    75    1
    10    51    50    2
    11    35    33    1
    12    60    61    1
    13    50    49    1
    14    24    23    2
    15    61    64    1
    16    23    22    1
    17    33    34    1
    18    33    30    1
    19    75    76    1
    20    39    38    2
    21    49    48    1
    22    49    52    1
    23    64    66    1
    24    64    65    1
    25    22    21    1
    26    22    25    1
    27    38    37    1
    28    25    26    1
    29    30    29    1
    30    30    31    1
    31    52    53    1
    32    31    36   am
    33    31    32    2
    34    36    37    1
    35    65    67    1
    36    37    40    1
    37    26    27    1
    38    53    54   ar
    39    53    55   ar
    40    40    41    1
    41    15    14    1
    42    15    16    2
    43    43    41   ar
    44    43    45   ar
    45    41    42   ar
    46    54    56   ar
    47    28    27    1
    48    55    57   ar
    49    45    46   ar
    50    14    13    1
    51    14    17    1
    52    42    44   ar
    53    46    44   ar
    54    46    47    1
    55    77    78    1
    56    56    58   ar
    57    57    58   ar
    58    17    18    1
    59    78    81    1
    60    78    79    1
    61    18    19    1
    62    18    20    1
    63    58    59    1
    64    81    82    1
    65    79    86   am
    66    79    80    2
    67    86    87    1
    68    82    83    1
    69    90    87    1
    70   125   126    1
    71   125   124    1
    72    87    88    1
    73    12    11    1
    74    10    11   ar
    75    10     8   ar
    76    11     9   ar
    77     8     6   ar
    78     9     7   ar
    79     6     7   ar
    80     6     5    1
    81     5     2    1
    82    83    84    1
    83    84    85    1
    84     4     3    2
    85   124   123    1
    86    88    89    2
    87    88    91   am
    88     3     2    1
    89     2     1    1
    90   118   116    1
    91    91    92    1
    92   115   117    1
    93   115   116    1
    94   115   112    1
    95   119   120    1
    96   123   120    1
    97   113   112    1
    98   113   114    2
    99   120   121    1
   100   112   111    1
   101    96    95    1
   102    97    95    1
   103   134   132    1
   104    92    95    1
   105    92    93    1
   106   127   128    1
   107    94    93    2
   108   104   102    1
   109   121   122    2
   110   132   133    1
   111   132   131    1
   112   128   131    1
   113   128   129    1
   114   103   102    1
   115   102    99    1
   116   129   130    2
   117   110   109    1
   118   108   107    2
   119   106   105    1
   120   106   109    1
   121   106   107    1
   122    98    99    1
   123    99   100    1
   124   100   101    2
