@<TRIPOS>MOLECULE
tmp/4bksI00.pdb
 141 143 0 0 0
SMALL
GASTEIGER

@<TRIPOS>ATOM
      1  N         35.4590   73.5680   13.5430 N.3    15  PHE15      -0.1241
      2  CA        36.0340   72.2370   13.6370 C.3    15  PHE15       0.1605
      3  C         36.2530   72.0610   15.1470 C.2    15  PHE15       0.2264
      4  O         37.0280   72.8230   15.7320 O.2    15  PHE15      -0.2867
      5  CB        37.3720   72.1420   12.8690 C.3    15  PHE15       0.0534
      6  CG        37.3120   72.0510   11.3590 C.ar   15  PHE15      -0.0203
      7  CD1       36.1110   71.7880   10.7050 C.ar   15  PHE15      -0.0042
      8  CD2       38.4660   72.1750   10.5950 C.ar   15  PHE15      -0.0042
      9  CE1       36.0640   71.6810    9.3100 C.ar   15  PHE15      -0.0003
     10  CE2       38.4160   72.0800    9.1970 C.ar   15  PHE15      -0.0003
     11  CZ        37.2160   71.8360    8.5670 C.ar   15  PHE15      -0.0000
     12  N         42.3420   67.6400    9.3410 N.3    24  PRO24      -0.2116
     13  CA        41.1700   67.8810    8.4780 C.3    24  PRO24       0.1372
     14  C         41.5930   67.6860    7.0280 C.2    24  PRO24       0.2244
     15  O         42.6990   68.0770    6.6370 O.2    24  PRO24      -0.2868
     16  CB        40.8160   69.3570    8.7520 C.3    24  PRO24       0.0268
     17  CG        41.7850   69.8390    9.7660 C.3    24  PRO24       0.0207
     18  CD        42.9630   68.9160    9.7330 C.3    24  PRO24       0.0892
     19  N         40.2110   68.0940    3.0330 N.3    26  TRP26      -0.1241
     20  CA        39.2080   68.5950    2.1030 C.3    26  TRP26       0.1605
     21  C         39.2940   67.8190    0.8120 C.2    26  TRP26       0.2264
     22  O         40.4000   67.5900    0.3280 O.2    26  TRP26      -0.2867
     23  CB        39.3990   70.1000    1.8500 C.3    26  TRP26       0.0550
     24  CG        38.4830   70.6880    0.8090 C.ar   26  TRP26       0.0003
     25  CD1       37.1190   70.6950    0.8290 C.ar   26  TRP26       0.0946
     26  CD2       38.8730   71.3850   -0.3910 C.ar   26  TRP26       0.0152
     27  NE1       36.6330   71.2940   -0.3160 N.ar   26  TRP26      -0.2442
     28  CE2       37.6880   71.7390   -1.0740 C.ar   26  TRP26       0.0810
     29  CE3       40.1110   71.7280   -0.9660 C.ar   26  TRP26       0.0012
     30  CZ2       37.7020   72.4560   -2.2800 C.ar   26  TRP26       0.0191
     31  CZ3       40.1270   72.4200   -2.1750 C.ar   26  TRP26       0.0001
     32  CH2       38.9350   72.7500   -2.8330 C.ar   26  TRP26       0.0015
     33  N         37.8050   69.7440   -5.9610 N.3    29  PHE29      -0.1241
     34  CA        36.8830   69.6570   -7.1090 C.3    29  PHE29       0.1605
     35  C         37.0510   68.4300   -8.0330 C.2    29  PHE29       0.2264
     36  O         36.0930   68.0340   -8.6940 O.2    29  PHE29      -0.2867
     37  CB        36.8130   70.9990   -7.8620 C.3    29  PHE29       0.0534
     38  CG        36.5070   72.1660   -6.9450 C.ar   29  PHE29      -0.0203
     39  CD1       35.4140   72.1280   -6.0760 C.ar   29  PHE29      -0.0042
     40  CD2       37.3340   73.2830   -6.9100 C.ar   29  PHE29      -0.0042
     41  CE1       35.1560   73.1830   -5.1840 C.ar   29  PHE29      -0.0003
     42  CE2       37.0640   74.3520   -6.0280 C.ar   29  PHE29      -0.0003
     43  CZ        35.9680   74.2990   -5.1800 C.ar   29  PHE29      -0.0000
     44  N         44.6480   69.9840    5.5890 N.3    36  TYR36      -0.1228
     45  CA        44.5670   71.3300    6.1550 C.3    36  TYR36       0.1721
     46  C         45.3020   71.3620    7.5130 C.2    36  TYR36       0.2437
     47  O         45.6460   70.2840    7.9930 O.2    36  TYR36      -0.2733
     48  CB        43.0880   71.7790    6.2460 C.3    36  TYR36       0.0547
     49  CG        42.6510   72.4870    4.9830 C.ar   36  TYR36      -0.0200
     50  CD1       42.4270   71.7760    3.7990 C.ar   36  TYR36      -0.0009
     51  CD2       42.5680   73.8720    4.9320 C.ar   36  TYR36      -0.0009
     52  CE1       42.0720   72.4300    2.6180 C.ar   36  TYR36       0.0417
     53  CE2       42.2150   74.5350    3.7570 C.ar   36  TYR36       0.0417
     54  CZ        41.9620   73.8110    2.6060 C.ar   36  TYR36       0.1957
     55  OH        41.6110   74.4670    1.4600 O.3    36  TYR36      -0.2866
     56  N         45.6330   72.5430    8.1080 N.am   37  PRO37      -0.2729
     57  CA        46.3510   72.5380    9.4090 C.3    37  PRO37       0.1401
     58  C         45.7260   71.6520   10.4670 C.2    37  PRO37       0.2269
     59  O         44.5050   71.5730   10.5720 O.2    37  PRO37      -0.2865
     60  CB        46.3310   74.0070    9.8320 C.3    37  PRO37       0.0296
     61  CG        46.2720   74.7680    8.5070 C.3    37  PRO37       0.0237
     62  CD        45.3620   73.9320    7.6590 C.3    37  PRO37       0.0939
     63  N         44.6480   70.0070   14.1950 N.3    39  LEU39      -0.1245
     64  CA        44.0020   70.4670   15.4220 C.3    39  LEU39       0.1561
     65  C         44.4760   69.6320   16.6030 C.2    39  LEU39       0.2260
     66  O         44.2190   68.4220   16.6120 O.2    39  LEU39      -0.2867
     67  CB        42.4670   70.3170   15.3270 C.3    39  LEU39       0.0270
     68  CG        41.6970   71.4550   14.6820 C.3    39  LEU39       0.0019
     69  CD1       41.4260   71.1390   13.2400 C.3    39  LEU39       0.0001
     70  CD2       40.4020   71.7440   15.4690 C.3    39  LEU39       0.0001
     71  N         38.2770   75.3450   16.2050 N.3    45  ARG45      -0.1245
     72  CA        38.7280   76.3700   15.2770 C.3    45  ARG45       0.1563
     73  C         37.6070   76.8010   14.3750 C.2    45  ARG45       0.2260
     74  O         36.9580   75.9360   13.7810 O.2    45  ARG45      -0.2867
     75  CB        39.9020   75.8440   14.4180 C.3    45  ARG45       0.0307
     76  CG        41.0530   76.8180   14.3090 C.3    45  ARG45       0.0489
     77  CD        42.3150   76.2190   14.8650 C.3    45  ARG45       0.2205
     78  NE        43.0400   75.5030   13.8200 N.pl3  45  ARG45      -0.0865
     79  CZ        44.2040   74.8970   14.0050 C.cat  45  ARG45       0.5346
     80  NH1       44.7880   74.9180   15.1980 N.pl3  45  ARG45       0.1354
     81  NH2       44.7920   74.2590   13.0020 N.pl3  45  ARG45       0.1354
     82  N         36.5480   78.0890   10.8950 N.3    47  ILE47      -0.1227
     83  CA        37.1030   78.0300    9.5520 C.3    47  ILE47       0.1732
     84  C         36.1240   78.4880    8.4730 C.2    47  ILE47       0.2595
     85  O         34.9100   78.3570    8.6350 O.2    47  ILE47      -0.2718
     86  CB        37.8500   76.6580    9.2550 C.3    47  ILE47       0.0485
     87  CG1       37.0940   75.5950    8.4180 C.2    47  ILE47      -0.0245
     88  CG2       38.6540   76.0680   10.4350 C.3    47  ILE47       0.0067
     89  CD1       35.8920   75.1720    8.8070 C.2    47  ILE47      -0.0049
     90  N         36.6650   79.0520    7.3810 N.am   48  HIS48      -0.1961
     91  CA        35.8760   79.4930    6.2350 C.3    48  HIS48       0.1787
     92  C         35.8480   78.3920    5.1790 C.2    48  HIS48       0.2621
     93  O         36.8960   77.9960    4.6730 O.2    48  HIS48      -0.2715
     94  CB        36.4330   80.7920    5.6620 C.3    48  HIS48       0.0785
     95  CG        36.2290   81.9550    6.5660 C.ar   48  HIS48       0.0821
     96  ND1       37.0260   82.1460    7.6790 N.ar   48  HIS48      -0.2267
     97  CD2       35.3070   82.9390    6.5100 C.ar   48  HIS48       0.1154
     98  CE1       36.5770   83.2470    8.2510 C.ar   48  HIS48       0.1986
     99  NE2       35.5480   83.7630    7.5800 N.ar   48  HIS48      -0.2212
    100  N         34.6620   77.8560    4.9110 N.am   49  SER49      -0.1936
    101  CA        34.4670   76.8280    3.9020 C.3    49  SER49       0.2055
    102  C         33.3270   77.2340    2.9770 C.2    49  SER49       0.2643
    103  O         32.9870   78.4120    2.9020 O.2    49  SER49      -0.2714
    104  CB        34.2550   75.4540    4.5440 C.3    49  SER49       0.2130
    105  OG        34.3380   74.4420    3.5500 O.3    49  SER49      -0.2179
    106  N         32.7560   76.2930    2.2460 N.am   50  TYR50      -0.1973
    107  CA        31.7020   76.6010    1.2930 C.3    50  TYR50       0.1639
    108  C         30.6480   75.5350    1.3290 C.2    50  TYR50       0.2290
    109  O         30.9520   74.3900    1.6690 O.2    50  TYR50      -0.2864
    110  CB        32.2990   76.7380   -0.1390 C.3    50  TYR50       0.0560
    111  CG        33.2980   77.8740   -0.2800 C.ar   50  TYR50      -0.0198
    112  CD1       34.6330   77.7080    0.0890 C.ar   50  TYR50      -0.0009
    113  CD2       32.9080   79.1160   -0.7770 C.ar   50  TYR50      -0.0009
    114  CE1       35.5350   78.7700    0.0390 C.ar   50  TYR50       0.0417
    115  CE2       33.8060   80.1810   -0.8540 C.ar   50  TYR50       0.0417
    116  CZ        35.1190   80.0010   -0.4480 C.ar   50  TYR50       0.1957
    117  OH        36.0180   81.0280   -0.5580 O.3    50  TYR50      -0.2866
    118  N         30.9200   71.5430    0.0200 N.3    53  HIS53      -0.1241
    119  CA        32.3120   71.0880    0.1090 C.3    53  HIS53       0.1621
    120  C         32.4090   69.8390    0.9950 C.2    53  HIS53       0.2264
    121  O         31.5990   69.6730    1.8900 O.2    53  HIS53      -0.2867
    122  CB        33.2500   72.2170    0.5680 C.3    53  HIS53       0.0745
    123  CG        33.5830   73.1870   -0.5310 C.ar   53  HIS53       0.0817
    124  ND1       34.7380   73.9500   -0.5000 N.ar   53  HIS53      -0.2268
    125  CD2       32.8950   73.4950   -1.6480 C.ar   53  HIS53       0.1154
    126  CE1       34.7180   74.6690   -1.6020 C.ar   53  HIS53       0.1986
    127  NE2       33.6170   74.4410   -2.3100 N.ar   53  HIS53      -0.2212
    128  N         34.4810   67.2070    3.5460 N.3    55  TRP55      -0.1241
    129  CA        35.5580   67.0520    4.5150 C.3    55  TRP55       0.1605
    130  C         35.5150   65.6890    5.2000 C.2    55  TRP55       0.2264
    131  O         34.4470   65.1110    5.4080 O.2    55  TRP55      -0.2867
    132  CB        35.4630   68.1120    5.6000 C.3    55  TRP55       0.0550
    133  CG        35.6580   69.5320    5.1490 C.ar   55  TRP55       0.0003
    134  CD1       34.6990   70.3860    4.6980 C.ar   55  TRP55       0.0946
    135  CD2       36.8760   70.2900    5.2120 C.ar   55  TRP55       0.0152
    136  NE1       35.2420   71.6360    4.4740 N.ar   55  TRP55      -0.2442
    137  CE2       36.5790   71.6010    4.7700 C.ar   55  TRP55       0.0810
    138  CE3       38.1990   69.9870    5.5920 C.ar   55  TRP55       0.0012
    139  CZ2       37.5510   72.6110    4.7080 C.ar   55  TRP55       0.0191
    140  CZ3       39.1710   70.9760    5.4820 C.ar   55  TRP55       0.0001
    141  CH2       38.8440   72.2740    5.0480 C.ar   55  TRP55       0.0015
@<TRIPOS>BOND
     1    36    35    2
     2    35    34    1
     3    37    34    1
     4    37    38    1
     5    34    33    1
     6    38    40   ar
     7    38    39   ar
     8    40    42   ar
     9    39    41   ar
    10    42    43   ar
    11    41    43   ar
    12    32    30   ar
    13    32    31   ar
    14   127   125   ar
    15   127   126   ar
    16    30    28   ar
    17    31    29   ar
    18   125   123   ar
    19   126   124   ar
    20    28    26   ar
    21    28    27   ar
    22    29    26   ar
    23   115   113   ar
    24   115   116   ar
    25   113   111   ar
    26   117   116    1
    27   123   124   ar
    28   123   122    1
    29   116   114   ar
    30    26    24   ar
    31    27    25   ar
    32   111   110    1
    33   111   112   ar
    34   110   107    1
    35   118   119    1
    36   114   112   ar
    37   119   122    1
    38   119   120    1
    39    22    21    2
    40    24    25   ar
    41    24    23    1
    42    21    20    1
    43   120   121    2
    44   107   108    1
    45   107   106    1
    46   108   109    2
    47    55    54    1
    48    23    20    1
    49    20    19    1
    50   106   102   am
    51    54    52   ar
    52    54    53   ar
    53    52    50   ar
    54   103   102    2
    55   102   101    1
    56   128   129    1
    57   105   104    1
    58    53    51   ar
    59    50    49   ar
    60   101   104    1
    61   101   100    1
    62   136   134   ar
    63   136   137   ar
    64   129   130    1
    65   129   132    1
    66    93    92    2
    67   134   133   ar
    68   139   137   ar
    69   139   141   ar
    70   137   135   ar
    71   100    92   am
    72    51    49   ar
    73    49    48    1
    74   141   140   ar
    75   133   135   ar
    76   133   132    1
    77    92    91    1
    78   130   131    2
    79   135   138   ar
    80   140   138   ar
    81    44    45    1
    82    94    91    1
    83    94    95    1
    84    45    48    1
    85    45    46    1
    86    91    90    1
    87    97    95   ar
    88    97    99   ar
    89    95    96   ar
    90    15    14    2
    91    14    13    1
    92    90    84   am
    93    46    47    2
    94    46    56   am
    95    99    98   ar
    96    62    56    1
    97    62    61    1
    98    96    98   ar
    99    56    57    1
   100    87    89    2
   101    87    86    1
   102    84    85    2
   103    84    83    1
   104    13    16    1
   105    13    12    1
   106    61    60    1
   107    11    10   ar
   108    11     9   ar
   109    16    17    1
   110    10     8   ar
   111    86    83    1
   112    86    88    1
   113     9     7   ar
   114    12    18    1
   115    57    60    1
   116    57    58    1
   117    83    82    1
   118    18    17    1
   119    58    59    2
   120     8     6   ar
   121     7     6   ar
   122     6     5    1
   123     5     2    1
   124    81    79    1
   125    69    68    1
   126     1     2    1
   127     2     3    1
   128    74    73    2
   129    78    79    2
   130    78    77    1
   131    79    80    1
   132    63    64    1
   133    76    75    1
   134    76    77    1
   135    73    72    1
   136    75    72    1
   137    68    67    1
   138    68    70    1
   139     3     4    2
   140    72    71    1
   141    67    64    1
   142    64    65    1
   143    65    66    2
