@<TRIPOS>MOLECULE
tmp/4bktL00.pdb
 116 117 0 0 0
SMALL
GASTEIGER

@<TRIPOS>ATOM
      1  N        -14.9130   77.2140   -6.7580 N.3     6  ASN6       -0.1240
      2  CA       -14.3690   78.5680   -6.8270 C.3     6  ASN6        0.1653
      3  C        -15.5190   79.6010   -6.8000 C.2     6  ASN6        0.2266
      4  O        -15.8050   80.2510   -7.8130 O.2     6  ASN6       -0.2867
      5  CB       -13.4480   78.7480   -8.0550 C.3     6  ASN6        0.1155
      6  CG       -12.5980   80.0180   -8.0180 C.2     6  ASN6        0.2627
      7  OD1      -12.4930   80.7450   -7.0090 O.2     6  ASN6       -0.2716
      8  ND2      -11.9450   80.3090   -9.1210 N.am    6  ASN6       -0.0877
      9  N        -15.7450   82.3900   -4.8360 N.3     8  ARG8       -0.1245
     10  CA       -15.2320   83.7460   -4.5790 C.3     8  ARG8        0.1563
     11  C        -16.1220   84.4740   -3.5380 C.2     8  ARG8        0.2260
     12  O        -16.0900   85.7060   -3.4350 O.2     8  ARG8       -0.2867
     13  CB       -15.0360   84.5470   -5.8860 C.3     8  ARG8        0.0307
     14  CG       -13.8450   84.0670   -6.7010 C.3     8  ARG8        0.0489
     15  CD       -13.9790   84.4060   -8.1680 C.3     8  ARG8        0.2205
     16  NE       -12.6810   84.7840   -8.7370 N.pl3   8  ARG8       -0.0865
     17  CZ       -12.0440   84.1040   -9.6900 C.cat   8  ARG8        0.5346
     18  NH1      -12.5920   83.0150  -10.2200 N.pl3   8  ARG8        0.1354
     19  NH2      -10.8650   84.5230  -10.1380 N.pl3   8  ARG8        0.1354
     20  N         -6.6020   72.0900    2.9230 N.3    26  TRP26      -0.1241
     21  CA        -7.5710   72.6400    1.9630 C.3    26  TRP26       0.1605
     22  C         -7.4840   71.8720    0.6630 C.2    26  TRP26       0.2264
     23  O         -6.3780   71.6790    0.1640 O.2    26  TRP26      -0.2867
     24  CB        -7.3420   74.1580    1.7440 C.3    26  TRP26       0.0550
     25  CG        -8.2130   74.7950    0.6960 C.ar   26  TRP26       0.0003
     26  CD1       -9.5730   74.8240    0.6710 C.ar   26  TRP26       0.0946
     27  CD2       -7.7720   75.4820   -0.5040 C.ar   26  TRP26       0.0152
     28  NE1      -10.0170   75.4460   -0.4890 N.ar   26  TRP26      -0.2442
     29  CE2       -8.9320   75.8310   -1.2400 C.ar   26  TRP26       0.0810
     30  CE3       -6.5090   75.7960   -1.0460 C.ar   26  TRP26       0.0012
     31  CZ2       -8.8700   76.5650   -2.4400 C.ar   26  TRP26       0.0191
     32  CZ3       -6.4440   76.4900   -2.2580 C.ar   26  TRP26       0.0001
     33  CH2       -7.6130   76.8960   -2.9270 C.ar   26  TRP26       0.0015
     34  N         -8.7110   73.9120   -6.1310 N.3    29  PHE29      -0.1241
     35  CA        -9.5670   73.8550   -7.3160 C.3    29  PHE29       0.1605
     36  C         -9.3470   72.6470   -8.2220 C.2    29  PHE29       0.2264
     37  O        -10.2740   72.2360   -8.9100 O.2    29  PHE29      -0.2867
     38  CB        -9.6320   75.2100   -8.0370 C.3    29  PHE29       0.0534
     39  CG       -10.0280   76.3240   -7.0880 C.ar   29  PHE29      -0.0203
     40  CD1      -11.1600   76.2110   -6.2860 C.ar   29  PHE29      -0.0042
     41  CD2       -9.2490   77.4700   -6.9700 C.ar   29  PHE29      -0.0042
     42  CE1      -11.4880   77.2080   -5.3600 C.ar   29  PHE29      -0.0003
     43  CE2       -9.5900   78.4820   -6.0520 C.ar   29  PHE29      -0.0003
     44  CZ       -10.7130   78.3470   -5.2640 C.ar   29  PHE29      -0.0000
     45  N         -2.1680   73.9250    5.5830 N.3    36  TYR36      -0.1241
     46  CA        -2.2640   75.2500    6.1750 C.3    36  TYR36       0.1605
     47  C         -1.5790   75.2440    7.5610 C.2    36  TYR36       0.2264
     48  O         -1.3070   74.1510    8.0630 O.2    36  TYR36      -0.2867
     49  CB        -3.7460   75.6860    6.2280 C.3    36  TYR36       0.0534
     50  CG        -4.1600   76.4440    4.9760 C.ar   36  TYR36      -0.0201
     51  CD1       -4.3010   75.7890    3.7480 C.ar   36  TYR36      -0.0009
     52  CD2       -4.3670   77.8220    5.0070 C.ar   36  TYR36      -0.0009
     53  CE1       -4.6430   76.4870    2.5880 C.ar   36  TYR36       0.0417
     54  CE2       -4.7400   78.5230    3.8600 C.ar   36  TYR36       0.0417
     55  CZ        -4.8740   77.8500    2.6550 C.ar   36  TYR36       0.1957
     56  OH        -5.2520   78.5310    1.5390 O.3    36  TYR36      -0.2866
     57  N        -10.1100   81.9820   10.4570 N.3    47  ILE47      -0.1231
     58  CA        -9.5720   81.8440    9.1150 C.3    47  ILE47       0.1692
     59  C        -10.5390   82.4200    8.0920 C.2    47  ILE47       0.2592
     60  O        -11.7630   82.3090    8.2460 O.2    47  ILE47      -0.2718
     61  CB        -9.1280   80.3540    8.8380 C.3    47  ILE47       0.0266
     62  CG1       -8.4490   80.1520    7.4640 C.3    47  ILE47       0.0019
     63  CG2      -10.2730   79.3680    8.9920 C.3    47  ILE47       0.0020
     64  CD1       -7.0670   80.8920    7.2360 C.3    47  ILE47       0.0001
     65  N         -9.9860   83.0630    7.0540 N.am   48  HIS48      -0.1962
     66  CA       -10.8030   83.5900    5.9730 C.3    48  HIS48       0.1787
     67  C        -10.8650   82.5230    4.8900 C.2    48  HIS48       0.2621
     68  O         -9.8450   82.1560    4.2840 O.2    48  HIS48      -0.2715
     69  CB       -10.2590   84.9250    5.4700 C.3    48  HIS48       0.0785
     70  CG       -10.5600   86.0680    6.3980 C.ar   48  HIS48       0.0821
     71  ND1      -10.1050   86.0770    7.7150 N.ar   48  HIS48      -0.2267
     72  CD2      -11.2710   87.1990    6.1740 C.ar   48  HIS48       0.1154
     73  CE1      -10.5560   87.2060    8.2420 C.ar   48  HIS48       0.1986
     74  NE2      -11.2590   87.9180    7.3560 N.ar   48  HIS48      -0.2212
     75  N        -12.0510   81.9460    4.7350 N.am   49  SER49      -0.1936
     76  CA       -12.2690   80.9310    3.7420 C.3    49  SER49       0.2055
     77  C        -13.4020   81.3710    2.8100 C.2    49  SER49       0.2643
     78  O        -13.7420   82.5550    2.7650 O.2    49  SER49      -0.2714
     79  CB       -12.5280   79.5740    4.3970 C.3    49  SER49       0.2130
     80  OG       -12.3540   78.5250    3.4600 O.3    49  SER49      -0.2179
     81  N        -13.9410   80.4390    2.0230 N.am   50  TYR50      -0.1973
     82  CA       -14.9500   80.7450    1.0240 C.3    50  TYR50       0.1639
     83  C        -16.0250   79.7160    1.0170 C.2    50  TYR50       0.2290
     84  O        -15.7540   78.5530    1.3350 O.2    50  TYR50      -0.2864
     85  CB       -14.2870   80.8270   -0.3690 C.3    50  TYR50       0.0560
     86  CG       -13.3250   81.9920   -0.4830 C.ar   50  TYR50      -0.0198
     87  CD1      -11.9970   81.8710   -0.0710 C.ar   50  TYR50      -0.0009
     88  CD2      -13.7500   83.2280   -0.9640 C.ar   50  TYR50      -0.0009
     89  CE1      -11.1300   82.9600   -0.0950 C.ar   50  TYR50       0.0417
     90  CE2      -12.8930   84.3290   -0.9840 C.ar   50  TYR50       0.0417
     91  CZ       -11.5810   84.1860   -0.5620 C.ar   50  TYR50       0.1957
     92  OH       -10.7340   85.2610   -0.6030 O.3    50  TYR50      -0.2866
     93  N        -15.8070   75.7330   -0.2250 N.3    53  HIS53      -0.1241
     94  CA       -14.4290   75.2350   -0.1260 C.3    53  HIS53       0.1621
     95  C        -14.3490   73.9580    0.7120 C.2    53  HIS53       0.2264
     96  O        -15.1700   73.7680    1.5850 O.2    53  HIS53      -0.2867
     97  CB       -13.4780   76.3230    0.3680 C.3    53  HIS53       0.0745
     98  CG       -13.0850   77.2850   -0.7190 C.ar   53  HIS53       0.0817
     99  ND1      -11.9520   78.0800   -0.6080 N.ar   53  HIS53      -0.2268
    100  CD2      -13.6920   77.5530   -1.9030 C.ar   53  HIS53       0.1154
    101  CE1      -11.9020   78.7860   -1.7280 C.ar   53  HIS53       0.1986
    102  NE2      -12.9330   78.5110   -2.5310 N.ar   53  HIS53      -0.2212
    103  N        -12.3500   71.2590    3.2170 N.3    55  TRP55      -0.1241
    104  CA       -11.3330   71.0980    4.2350 C.3    55  TRP55       0.1605
    105  C        -11.4100   69.7440    4.9070 C.2    55  TRP55       0.2264
    106  O        -12.4960   69.1870    5.1250 O.2    55  TRP55      -0.2867
    107  CB       -11.4750   72.1510    5.3410 C.3    55  TRP55       0.0550
    108  CG       -11.2240   73.5600    4.9360 C.ar   55  TRP55       0.0003
    109  CD1      -12.1520   74.4770    4.5310 C.ar   55  TRP55       0.0946
    110  CD2       -9.9730   74.2560    5.0020 C.ar   55  TRP55       0.0152
    111  NE1      -11.5520   75.6960    4.3150 N.ar   55  TRP55      -0.2442
    112  CE2      -10.2110   75.5870    4.5900 C.ar   55  TRP55       0.0810
    113  CE3       -8.6650   73.8830    5.3680 C.ar   55  TRP55       0.0012
    114  CZ2       -9.1980   76.5510    4.5640 C.ar   55  TRP55       0.0191
    115  CZ3       -7.6640   74.8430    5.3500 C.ar   55  TRP55       0.0001
    116  CH2       -7.9260   76.1510    4.9250 C.ar   55  TRP55       0.0015
@<TRIPOS>BOND
     1    18    17    1
     2    19    17    1
     3    17    16    2
     4     8     6   am
     5    37    36    2
     6    16    15    1
     7    36    35    1
     8    15    14    1
     9     5     6    1
    10     5     2    1
    11    38    35    1
    12    38    39    1
    13     6     7    2
    14     4     3    2
    15    35    34    1
    16    39    41   ar
    17    39    40   ar
    18    41    43   ar
    19     2     3    1
    20     2     1    1
    21    14    13    1
    22    40    42   ar
    23    43    44   ar
    24    13    10    1
    25    42    44   ar
    26     9    10    1
    27    10    11    1
    28    11    12    2
    29    33    31   ar
    30    33    32   ar
    31   102   100   ar
    32   102   101   ar
    33    31    29   ar
    34    32    30   ar
    35   100    98   ar
    36   101    99   ar
    37    29    27   ar
    38    29    28   ar
    39    30    27   ar
    40    90    88   ar
    41    90    91   ar
    42    88    86   ar
    43    98    99   ar
    44    98    97    1
    45    92    91    1
    46    91    89   ar
    47    27    25   ar
    48    28    26   ar
    49    86    85    1
    50    86    87   ar
    51    85    82    1
    52    93    94    1
    53    94    97    1
    54    94    95    1
    55    89    87   ar
    56    23    22    2
    57    22    21    1
    58    26    25   ar
    59    25    24    1
    60    95    96    2
    61    83    82    1
    62    83    84    2
    63    82    81    1
    64    56    55    1
    65    24    21    1
    66    21    20    1
    67    81    77   am
    68    53    55   ar
    69    53    51   ar
    70    55    54   ar
    71    78    77    2
    72    77    76    1
    73   103   104    1
    74    80    79    1
    75    76    79    1
    76    76    75    1
    77    51    50   ar
    78    54    52   ar
    79   104   105    1
    80   104   107    1
    81    68    67    2
    82   111   109   ar
    83   111   112   ar
    84   109   108   ar
    85   114   112   ar
    86   114   116   ar
    87   112   110   ar
    88    75    67   am
    89    67    66    1
    90   105   106    2
    91   116   115   ar
    92   108   110   ar
    93   108   107    1
    94    50    52   ar
    95    50    49    1
    96   110   113   ar
    97   115   113   ar
    98    69    66    1
    99    69    70    1
   100    45    46    1
   101    66    65    1
   102    72    70   ar
   103    72    74   ar
   104    46    49    1
   105    46    47    1
   106    70    71   ar
   107    65    59   am
   108    64    62    1
   109    74    73   ar
   110    62    61    1
   111    47    48    2
   112    71    73   ar
   113    59    60    2
   114    59    58    1
   115    61    63    1
   116    61    58    1
   117    58    57    1
