@<TRIPOS>MOLECULE
tmp/4bkuA01.pdb
 153 149 0 0 0
SMALL
GASTEIGER

@<TRIPOS>ATOM
      1  N        -24.8720   -6.9130   20.1040 N.3    92  GLY92      -0.1210
      2  CA       -26.2640   -7.3040   19.9430 C.3    92  GLY92       0.1956
      3  C        -26.6520   -8.2450   21.0630 C.2    92  GLY92       0.2612
      4  O        -25.8230   -9.0420   21.5270 O.2    92  GLY92      -0.2717
      5  N        -27.8970   -8.1420   21.5170 N.am   93  PHE93      -0.1962
      6  CA       -28.4450   -9.1220   22.4440 C.3    93  PHE93       0.1771
      7  C        -29.9620   -9.1010   22.4320 C.2    93  PHE93       0.2619
      8  O        -30.5780   -8.0310   22.4790 O.2    93  PHE93      -0.2715
      9  CB       -27.9770   -8.8920   23.8860 C.3    93  PHE93       0.0574
     10  CG       -28.6010   -9.8520   24.8670 C.ar   93  PHE93      -0.0200
     11  CD1      -28.1390  -11.1620   24.9610 C.ar   93  PHE93      -0.0042
     12  CD2      -29.6710   -9.4590   25.6640 C.ar   93  PHE93      -0.0042
     13  CE1      -28.7210  -12.0620   25.8490 C.ar   93  PHE93      -0.0003
     14  CE2      -30.2650  -10.3510   26.5510 C.ar   93  PHE93      -0.0003
     15  CZ       -29.7860  -11.6570   26.6460 C.ar   93  PHE93      -0.0000
     16  N        -30.5540  -10.2890   22.4090 N.am   94  ALA94      -0.1977
     17  CA       -31.9720  -10.4360   22.7210 C.3    94  ALA94       0.1597
     18  C        -32.1410  -11.6940   23.5620 C.2    94  ALA94       0.2287
     19  O        -31.4450  -12.6830   23.3430 O.2    94  ALA94      -0.2864
     20  CB       -32.8130  -10.5040   21.4510 C.3    94  ALA94       0.0319
     21  N        -36.1180  -14.7440   20.5840 N.3    99  ILE99      -0.1245
     22  CA       -35.6030  -15.0390   19.2470 C.3    99  ILE99       0.1561
     23  C        -35.6830  -16.5360   18.9270 C.2    99  ILE99       0.2260
     24  O        -34.8370  -17.1020   18.2190 O.2    99  ILE99      -0.2867
     25  CB       -34.1600  -14.5380   19.0500 C.3    99  ILE99       0.0252
     26  CG1      -33.2410  -15.0920   20.1440 C.3    99  ILE99       0.0019
     27  CG2      -34.1120  -12.9980   19.0220 C.3    99  ILE99       0.0019
     28  CD1      -31.8290  -14.5230   20.0700 C.3    99  ILE99       0.0001
     29  N        -26.1260   -4.7550   11.2280 N.3   144  SER144     -0.1202
     30  CA       -27.5290   -5.1560   11.2440 C.3   144  SER144      0.2020
     31  C        -27.7170   -6.4620   10.4700 C.2   144  SER144      0.2618
     32  O        -26.7460   -7.1040   10.0490 O.2   144  SER144     -0.2717
     33  CB       -28.3980   -4.0480   10.6470 C.3   144  SER144      0.2103
     34  OG       -29.7770   -4.3670   10.7610 O.3   144  SER144     -0.2182
     35  N        -28.9740   -6.8340   10.2480 N.am  145  TYR145     -0.1975
     36  CA       -29.2760   -8.0840    9.5650 C.3   145  TYR145      0.1639
     37  C        -30.5700   -7.9150    8.7900 C.2   145  TYR145      0.2290
     38  O        -31.3970   -7.0830    9.1620 O.2   145  TYR145     -0.2864
     39  CB       -29.4100   -9.2210   10.5980 C.3   145  TYR145      0.0560
     40  CG       -29.7980  -10.5580   10.0010 C.ar  145  TYR145     -0.0198
     41  CD1      -29.0100  -11.1540    9.0240 C.ar  145  TYR145     -0.0009
     42  CD2      -30.9560  -11.2230   10.4140 C.ar  145  TYR145     -0.0009
     43  CE1      -29.3700  -12.3760    8.4590 C.ar  145  TYR145      0.0417
     44  CE2      -31.3170  -12.4450    9.8650 C.ar  145  TYR145      0.0417
     45  CZ       -30.5210  -13.0150    8.8880 C.ar  145  TYR145      0.1957
     46  OH       -30.8680  -14.2300    8.3250 O.3   145  TYR145     -0.2866
     47  N        -37.9750  -12.7670    9.1400 N.3   152  ILE152     -0.1231
     48  CA       -37.2090  -14.0120    9.0420 C.3   152  ILE152      0.1678
     49  C        -37.5400  -14.8750   10.2650 C.2   152  ILE152      0.2434
     50  O        -37.5860  -14.3590   11.3890 O.2   152  ILE152     -0.2733
     51  CB       -35.6910  -13.7120    8.9850 C.3   152  ILE152      0.0265
     52  CG1      -35.3420  -13.0760    7.6360 C.3   152  ILE152      0.0019
     53  CG2      -34.8610  -14.9840    9.1710 C.3   152  ILE152      0.0020
     54  CD1      -33.8920  -12.6540    7.5040 C.3   152  ILE152      0.0001
     55  N        -37.7900  -16.1840   10.0550 N.am  153  PRO153     -0.2718
     56  CA       -38.2030  -17.0550   11.1690 C.3   153  PRO153      0.1535
     57  C        -37.2420  -16.9780   12.3500 C.2   153  PRO153      0.2599
     58  O        -36.0210  -16.9810   12.1540 O.2   153  PRO153     -0.2715
     59  CB       -38.1730  -18.4570   10.5500 C.3   153  PRO153      0.0310
     60  CG       -38.4590  -18.2100    9.0910 C.3   153  PRO153      0.0237
     61  CD       -37.7210  -16.9240    8.7800 C.3   153  PRO153      0.0939
     62  N        -37.8170  -16.8740   13.5480 N.am  154  ASN154     -0.1959
     63  CA       -37.0800  -16.7650   14.8090 C.3   154  ASN154      0.1819
     64  C        -36.4470  -15.4120   15.1330 C.2   154  ASN154      0.2621
     65  O        -36.1720  -15.1550   16.2950 O.2   154  ASN154     -0.2715
     66  CB       -36.0300  -17.8800   14.9570 C.3   154  ASN154      0.1195
     67  CG       -36.6250  -19.2620   14.8130 C.2   154  ASN154      0.2630
     68  OD1      -37.6350  -19.5760   15.4350 O.2   154  ASN154     -0.2716
     69  ND2      -36.0000  -20.0980   13.9880 N.am  154  ASN154     -0.0877
     70  N        -36.1900  -14.5540   14.1420 N.am  155  TYR155     -0.1974
     71  CA       -35.4410  -13.3270   14.4260 C.3   155  TYR155      0.1639
     72  C        -36.2820  -12.4090   15.2990 C.2   155  TYR155      0.2290
     73  O        -35.7530  -11.7050   16.1610 O.2   155  TYR155     -0.2864
     74  CB       -34.9940  -12.6070   13.1430 C.3   155  TYR155      0.0560
     75  CG       -33.7670  -11.7240   13.3260 C.ar  155  TYR155     -0.0198
     76  CD1      -32.5780  -12.2450   13.8100 C.ar  155  TYR155     -0.0009
     77  CD2      -33.8020  -10.3740   13.0050 C.ar  155  TYR155     -0.0009
     78  CE1      -31.4430  -11.4370   13.9690 C.ar  155  TYR155      0.0417
     79  CE2      -32.6850   -9.5580   13.1630 C.ar  155  TYR155      0.0417
     80  CZ       -31.5060  -10.1000   13.6350 C.ar  155  TYR155      0.1957
     81  OH       -30.3940   -9.2880   13.7810 O.3   155  TYR155     -0.2866
     82  N        -35.6010   -9.3400   17.7960 N.3   158  MET158     -0.1245
     83  CA       -34.3610   -8.7400   17.2980 C.3   158  MET158      0.1570
     84  C        -34.5750   -7.9780   15.9680 C.2   158  MET158      0.2261
     85  O        -33.9080   -6.9630   15.7040 O.2   158  MET158     -0.2867
     86  CB       -33.2440   -9.7960   17.1750 C.3   158  MET158      0.0387
     87  CG       -31.8880   -9.2180   16.8040 C.3   158  MET158      0.0595
     88  SD       -31.2130   -8.0700   18.0310 S.3   158  MET158     -0.1393
     89  CE       -30.0740   -9.1410   18.9110 C.3   158  MET158      0.0692
     90  N        -33.3170   -4.2150   15.3740 N.3   162  LYS162     -0.1245
     91  CA       -32.4780   -3.8680   14.2340 C.3   162  LYS162      0.1561
     92  C        -33.1270   -2.8340   13.3150 C.2   162  LYS162      0.2260
     93  O        -32.4270   -2.0290   12.7060 O.2   162  LYS162     -0.2867
     94  CB       -32.0920   -5.1110   13.4350 C.3   162  LYS162      0.0271
     95  CG       -31.1370   -6.0740   14.1650 C.3   162  LYS162      0.0035
     96  CD       -29.7580   -5.4570   14.4380 C.3   162  LYS162      0.0206
     97  CE       -28.8170   -6.5030   15.0570 C.3   162  LYS162      0.1093
     98  NZ       -27.4580   -5.9370   15.3780 N.3   162  LYS162     -0.1314
     99  N        -25.4580  -14.1850    7.3780 N.3   190  PRO190     -0.2102
    100  CA       -25.1130  -15.0420    8.5210 C.3   190  PRO190      0.1504
    101  C        -23.6800  -15.5630    8.4560 C.2   190  PRO190      0.2575
    102  O        -23.1930  -15.8970    7.3670 O.2   190  PRO190     -0.2718
    103  CB       -26.0970  -16.2160    8.4010 C.3   190  PRO190      0.0282
    104  CG       -27.2060  -15.7130    7.5220 C.3   190  PRO190      0.0208
    105  CD       -26.5720  -14.7230    6.5790 C.3   190  PRO190      0.0893
    106  N        -23.0260  -15.6450    9.6150 N.am  191  ILE191     -0.1980
    107  CA       -21.6430  -16.1010    9.7010 C.3   191  ILE191      0.1595
    108  C        -21.6070  -17.5180   10.2760 C.2   191  ILE191      0.2287
    109  O        -22.1100  -17.7510   11.3760 O.2   191  ILE191     -0.2864
    110  CB       -20.8100  -15.1660   10.6080 C.3   191  ILE191      0.0276
    111  CG1      -20.8010  -13.7250   10.0570 C.3   191  ILE191      0.0022
    112  CG2      -19.3940  -15.7430   10.8340 C.3   191  ILE191      0.0022
    113  CD1      -20.2900  -13.5850    8.6280 C.3   191  ILE191      0.0001
    114  N        -28.5460  -19.4640   23.8280 N.3   198  GLY198     -0.1210
    115  CA       -29.3320  -18.2480   23.7230 C.3   198  GLY198      0.1956
    116  C        -29.7110  -17.9180   22.2890 C.2   198  GLY198      0.2612
    117  O        -30.5880  -17.0870   22.0410 O.2   198  GLY198     -0.2717
    118  N        -29.0390  -18.5570   21.3390 N.am  199  ILE199     -0.1965
    119  CA       -29.3450  -18.3530   19.9290 C.3   199  ILE199      0.1727
    120  C        -29.7530  -19.6880   19.3050 C.2   199  ILE199      0.2616
    121  O        -29.0940  -20.7070   19.5120 O.2   199  ILE199     -0.2715
    122  CB       -28.1320  -17.7710   19.1820 C.3   199  ILE199      0.0290
    123  CG1      -27.7280  -16.4250   19.8030 C.3   199  ILE199      0.0022
    124  CG2      -28.4270  -17.6230   17.6860 C.3   199  ILE199      0.0023
    125  CD1      -26.3890  -15.9060   19.2980 C.3   199  ILE199      0.0001
    126  N        -30.8520  -19.6940   18.5580 N.am  200  LYS200     -0.1977
    127  CA       -31.3000  -20.9190   17.9040 C.3   200  LYS200      0.1596
    128  C        -30.3440  -21.2770   16.7670 C.2   200  LYS200      0.2287
    129  O        -29.7230  -20.3870   16.1810 O.2   200  LYS200     -0.2864
    130  CB       -32.7090  -20.7180   17.3450 C.3   200  LYS200      0.0298
    131  CG       -33.4660  -22.0070   17.0860 C.3   200  LYS200      0.0038
    132  CD       -34.8640  -21.7150   16.5570 C.3   200  LYS200      0.0206
    133  CE       -35.7440  -22.9450   16.6430 C.3   200  LYS200      0.1093
    134  NZ       -35.8900  -23.3820   18.0620 N.3   200  LYS200     -0.1314
    135  N        -28.9670  -21.7690   13.2800 N.3   202  PHE202     -0.1241
    136  CA       -29.3300  -21.1480   12.0100 C.3   202  PHE202      0.1605
    137  C        -28.6960  -21.9080   10.8400 C.2   202  PHE202      0.2264
    138  O        -28.4590  -21.3450    9.7750 O.2   202  PHE202     -0.2867
    139  CB       -29.0130  -19.6390   11.9920 C.3   202  PHE202      0.0534
    140  CG       -27.6060  -19.2900   12.4160 C.ar  202  PHE202     -0.0203
    141  CD1      -27.2660  -19.2140   13.7690 C.ar  202  PHE202     -0.0042
    142  CD2      -26.6320  -19.0190   11.4640 C.ar  202  PHE202     -0.0042
    143  CE1      -25.9650  -18.8940   14.1640 C.ar  202  PHE202     -0.0003
    144  CE2      -25.3340  -18.6930   11.8410 C.ar  202  PHE202     -0.0003
    145  CZ       -24.9960  -18.6350   13.1990 C.ar  202  PHE202     -0.0000
    146  N        -30.6950  -21.7590    7.6620 N.3   205  ILE205     -0.1245
    147  CA       -30.5280  -20.4650    7.0140 C.3   205  ILE205      0.1561
    148  C        -29.2030  -20.3980    6.2500 C.2   205  ILE205      0.2260
    149  O        -29.1460  -19.9020    5.1200 O.2   205  ILE205     -0.2867
    150  CB       -30.6540  -19.3120    8.0390 C.3   205  ILE205      0.0252
    151  CG1      -32.1010  -19.2250    8.5330 C.3   205  ILE205      0.0019
    152  CG2      -30.2140  -17.9790    7.4200 C.3   205  ILE205      0.0019
    153  CD1      -32.3230  -18.1590    9.5670 C.3   205  ILE205      0.0001
@<TRIPOS>BOND
     1   149   148    2
     2   148   147    1
     3   105    99    1
     4   105   104    1
     5   147   146    1
     6   147   150    1
     7   102   101    2
     8    99   100    1
     9   152   150    1
    10    54    52    1
    11   104   103    1
    12    52    51    1
    13   150   151    1
    14    46    45    1
    15   103   100    1
    16   101   100    1
    17   101   106   am
    18    43    45   ar
    19    43    41   ar
    20   151   153    1
    21   113   111    1
    22    61    60    1
    23    61    55    1
    24    37    38    2
    25    37    36    1
    26    45    44   ar
    27    51    48    1
    28    51    53    1
    29    41    40   ar
    30    48    47    1
    31    48    49    1
    32    60    59    1
    33    36    35    1
    34    36    39    1
    35   106   107    1
    36   107   108    1
    37   107   110    1
    38   138   137    2
    39    44    42   ar
    40    40    42   ar
    41    40    39    1
    42    32    31    2
    43    55    49   am
    44    55    56    1
    45   111   110    1
    46    35    31   am
    47    49    50    2
    48   108   109    2
    49    31    30    1
    50    59    56    1
    51   110   112    1
    52    33    34    1
    53    33    30    1
    54   137   136    1
    55    56    57    1
    56    29    30    1
    57   142   144   ar
    58   142   140   ar
    59   144   145   ar
    60   139   136    1
    61   139   140    1
    62   136   135    1
    63    58    57    2
    64    57    62   am
    65   140   141   ar
    66    93    92    2
    67    77    79   ar
    68    77    75   ar
    69    74    75    1
    70    74    71    1
    71    79    80   ar
    72   145   143   ar
    73    92    91    1
    74    75    76   ar
    75    94    95    1
    76    94    91    1
    77    62    63    1
    78    80    81    1
    79    80    78   ar
    80   141   143   ar
    81    76    78   ar
    82    69    67   am
    83    70    71    1
    84    70    64   am
    85    95    96    1
    86    91    90    1
    87    71    72    1
    88    96    97    1
    89    63    66    1
    90    63    64    1
    91    67    66    1
    92    67    68    2
    93    97    98    1
    94    64    65    2
    95    72    73    2
    96    85    84    2
    97    84    83    1
    98   129   128    2
    99   132   133    1
   100   132   131    1
   101   133   134    1
   102   128   127    1
   103    87    86    1
   104    87    88    1
   105   131   130    1
   106    86    83    1
   107    83    82    1
   108   130   127    1
   109   124   122    1
   110   127   126    1
   111    88    89    1
   112    24    23    2
   113   126   120   am
   114    23    22    1
   115    27    25    1
   116    25    22    1
   117    25    26    1
   118   122   123    1
   119   122   119    1
   120    22    21    1
   121   125   123    1
   122   120   121    2
   123   120   119    1
   124   119   118    1
   125     2     1    1
   126     2     3    1
   127    28    26    1
   128     3     5   am
   129     3     4    2
   130   118   116   am
   131    20    17    1
   132     5     6    1
   133   117   116    2
   134   116   115    1
   135    16     7   am
   136    16    17    1
   137     7     6    1
   138     7     8    2
   139     6     9    1
   140    17    18    1
   141    19    18    2
   142   115   114    1
   143     9    10    1
   144    10    11   ar
   145    10    12   ar
   146    11    13   ar
   147    12    14   ar
   148    13    15   ar
   149    14    15   ar
