@<TRIPOS>MOLECULE
tmp/4bkyA00.pdb
 172 162 0 0 0
SMALL
GASTEIGER

@<TRIPOS>ATOM
      1  N         17.8900   15.0410    1.4350 N.3    15  ILE15      -0.1231
      2  CA        16.5940   14.4280    1.1440 C.3    15  ILE15       0.1692
      3  C         15.5840   14.6790    2.2560 C.2    15  ILE15       0.2593
      4  O         14.4080   14.3480    2.1130 O.2    15  ILE15      -0.2718
      5  CB        16.6910   12.9110    0.8230 C.3    15  ILE15       0.0266
      6  CG1       17.4980   12.1560    1.8920 C.3    15  ILE15       0.0019
      7  CG2       17.2410   12.6970   -0.5860 C.3    15  ILE15       0.0020
      8  CD1       17.5680   10.6530    1.6840 C.3    15  ILE15       0.0001
      9  N         16.0440   15.2680    3.3560 N.am   16  GLY16      -0.1942
     10  CA        15.1670   15.5880    4.4720 C.3    16  GLY16       0.2014
     11  C         15.7770   16.5350    5.4770 C.2    16  GLY16       0.2640
     12  O         16.9870   16.5310    5.7030 O.2    16  GLY16      -0.2714
     13  N         14.9210   17.3540    6.0840 N.am   17  THR17      -0.1936
     14  CA        15.3240   18.2490    7.1600 C.3    17  THR17       0.2028
     15  C         14.4100   18.0410    8.3730 C.2    17  THR17       0.2642
     16  O         13.2300   17.7010    8.2330 O.2    17  THR17      -0.2714
     17  CB        15.3320   19.7210    6.6940 C.3    17  THR17       0.1808
     18  OG1       16.1440   19.8380    5.5190 O.3    17  THR17      -0.2208
     19  CG2       15.9000   20.6440    7.7690 C.3    17  THR17       0.0379
     20  N         14.9880   18.1930    9.5600 N.am   18  GLY18      -0.1954
     21  CA        14.2450   18.1520   10.8110 C.3    18  GLY18       0.1869
     22  C         14.5350   19.4200   11.5860 C.2    18  GLY18       0.2309
     23  O         15.1230   20.3680   11.0520 O.2    18  GLY18      -0.2863
     24  N         18.3620   18.1800   12.7330 N.3    21  ALA21      -0.1245
     25  CA        19.1400   17.2690   11.8980 C.3    21  ALA21       0.1562
     26  C         18.7600   17.3750   10.4390 C.2    21  ALA21       0.2260
     27  O         17.6860   17.8760   10.0910 O.2    21  ALA21      -0.2867
     28  CB        18.9710   15.8290   12.3810 C.3    21  ALA21       0.0290
     29  N         19.0980   14.8680    6.6570 N.3    23  VAL23      -0.1245
     30  CA        19.4400   13.5740    6.0830 C.3    23  VAL23       0.1561
     31  C         19.8710   13.7670    4.6360 C.2    23  VAL23       0.2260
     32  O         19.1250   14.3240    3.8190 O.2    23  VAL23      -0.2867
     33  CB        18.2810   12.5610    6.2070 C.3    23  VAL23       0.0252
     34  CG1       18.5840   11.2900    5.4150 C.3    23  VAL23       0.0019
     35  CG2       18.0210   12.2370    7.6800 C.3    23  VAL23       0.0019
     36  N         21.6830    6.5940    3.4670 N.3    36  ALA36      -0.1245
     37  CA        21.1390    7.8700    3.9090 C.3    36  ALA36       0.1562
     38  C         21.8420    8.2660    5.1970 C.2    36  ALA36       0.2260
     39  O         21.8650    7.4980    6.1670 O.2    36  ALA36      -0.2867
     40  CB        19.6260    7.7720    4.1040 C.3    36  ALA36       0.0290
     41  N         22.2180   10.6870    8.3680 N.3    38  LYS38      -0.1245
     42  CA        21.6450   11.6800    9.2650 C.3    38  LYS38       0.1561
     43  C         22.7760   12.4620    9.9410 C.2    38  LYS38       0.2260
     44  O         23.6770   11.8810   10.5660 O.2    38  LYS38      -0.2867
     45  CB        20.7070   11.0190   10.2820 C.3    38  LYS38       0.0271
     46  CG        19.9700   12.0020   11.1770 C.3    38  LYS38       0.0035
     47  CD        19.2600   11.3010   12.3200 C.3    38  LYS38       0.0206
     48  CE        17.9440   10.6780   11.8690 C.3    38  LYS38       0.1093
     49  NZ        17.1600   10.1880   13.0440 N.3    38  LYS38      -0.1314
     50  N         14.5770    0.1890    9.6250 N.3    66  CYS66      -0.1235
     51  CA        15.6660    0.8090    8.8640 C.3    66  CYS66       0.1677
     52  C         17.0210    0.5570    9.5440 C.2    66  CYS66       0.2270
     53  O         17.2000    0.9110   10.7040 O.2    66  CYS66      -0.2867
     54  CB        15.4090    2.3050    8.6860 C.3    66  CYS66       0.0956
     55  SG        16.4720    3.0930    7.4440 S.3    66  CYS66      -0.0801
     56  N         22.5550    5.3370    7.5800 N.3    82  LEU82      -0.1231
     57  CA        21.3990    4.4590    7.6380 C.3    82  LEU82       0.1693
     58  C         21.0600    3.9310    6.2570 C.2    82  LEU82       0.2592
     59  O         21.5740    4.4120    5.2420 O.2    82  LEU82      -0.2718
     60  CB        20.1920    5.2230    8.2160 C.3    82  LEU82       0.0284
     61  CG        20.3470    5.6370    9.6820 C.3    82  LEU82       0.0019
     62  CD1       19.6680    6.9710    9.9600 C.3    82  LEU82       0.0001
     63  CD2       19.8090    4.5540   10.6010 C.3    82  LEU82       0.0001
     64  N         20.2030    2.9230    6.2390 N.am   83  GLU83      -0.1966
     65  CA        19.6870    2.3660    5.0080 C.3    83  GLU83       0.1733
     66  C         18.9860    3.4470    4.1840 C.2    83  GLU83       0.2616
     67  O         18.2260    4.2420    4.7320 O.2    83  GLU83      -0.2715
     68  CB        18.7070    1.2590    5.3730 C.3    83  GLU83       0.0429
     69  CG        17.9890    0.6310    4.2000 C.3    83  GLU83       0.1163
     70  CD        17.1030   -0.5250    4.6230 C.2    83  GLU83       0.3649
     71  OE1       17.1170   -0.8930    5.8300 O.co2  83  GLU83      -0.2457
     72  OE2       16.4060   -1.0620    3.7280 O.co2  83  GLU83      -0.2457
     73  N         19.2460    3.4820    2.8770 N.am   84  TYR84      -0.1960
     74  CA        18.5060    4.3840    1.9920 C.3    84  TYR84       0.1771
     75  C         17.2950    3.6280    1.4380 C.2    84  TYR84       0.2620
     76  O         17.4310    2.5160    0.9100 O.2    84  TYR84      -0.2715
     77  CB        19.3750    4.9310    0.8460 C.3    84  TYR84       0.0574
     78  CG        18.5850    5.7370   -0.1660 C.ar   84  TYR84      -0.0198
     79  CD1       18.0010    6.9520    0.1850 C.ar   84  TYR84      -0.0009
     80  CD2       18.4090    5.2740   -1.4750 C.ar   84  TYR84      -0.0009
     81  CE1       17.2600    7.6860   -0.7270 C.ar   84  TYR84       0.0417
     82  CE2       17.6760    6.0070   -2.3980 C.ar   84  TYR84       0.0417
     83  CZ        17.1050    7.2060   -2.0180 C.ar   84  TYR84       0.1957
     84  OH        16.3790    7.9380   -2.9260 O.3    84  TYR84      -0.2866
     85  N         16.1220    4.2300    1.6050 N.am   85  CYS85      -0.1954
     86  CA        14.8640    3.6650    1.1250 C.3    85  CYS85       0.1828
     87  C         14.3930    4.4950   -0.0630 C.2    85  CYS85       0.2467
     88  O         13.9700    5.6310    0.1130 O.2    85  CYS85      -0.2730
     89  CB        13.8260    3.7080    2.2420 C.3    85  CYS85       0.0996
     90  SG        14.3060    2.7200    3.6830 S.3    85  CYS85      -0.0797
     91  N         14.4970    3.9370   -1.2880 N.am   86  PRO86      -0.2715
     92  CA        14.2360    4.7460   -2.4780 C.3    86  PRO86       0.1536
     93  C         12.7450    4.9630   -2.7860 C.2    86  PRO86       0.2599
     94  O         12.4170    5.6700   -3.7370 O.2    86  PRO86      -0.2715
     95  CB        14.9080    3.9400   -3.5960 C.3    86  PRO86       0.0310
     96  CG        14.8120    2.5210   -3.1320 C.3    86  PRO86       0.0237
     97  CD        14.9480    2.5760   -1.6310 C.3    86  PRO86       0.0939
     98  N         11.8560    4.3750   -1.9900 N.am   87  GLY87      -0.1941
     99  CA        10.4130    4.5420   -2.2150 C.3    87  GLY87       0.2014
    100  C          9.7760    5.7070   -1.4790 C.2    87  GLY87       0.2639
    101  O          8.5720    5.9520   -1.6180 O.2    87  GLY87      -0.2714
    102  N         10.5760    6.4260   -0.6940 N.am   88  GLY88      -0.1939
    103  CA        10.0970    7.5770    0.0470 C.3    88  GLY88       0.2014
    104  C          9.1580    7.2540    1.1990 C.2    88  GLY88       0.2638
    105  O          9.0380    6.0960    1.6130 O.2    88  GLY88      -0.2714
    106  N          8.5130    8.2960    1.7220 N.am   89  GLU89      -0.1977
    107  CA         7.6970    8.2110    2.9420 C.3    89  GLU89       0.1602
    108  C          6.3090    7.6410    2.6540 C.2    89  GLU89       0.2287
    109  O          5.7200    7.9010    1.6020 O.2    89  GLU89      -0.2864
    110  CB         7.5580    9.5920    3.5970 C.3    89  GLU89       0.0415
    111  CG         8.7450   10.0110    4.4580 C.3    89  GLU89       0.1163
    112  CD         8.6510   11.4470    4.9700 C.2    89  GLU89       0.3649
    113  OE1        7.5380   12.0350    4.9660 O.co2  89  GLU89      -0.2457
    114  OE2        9.7010   11.9930    5.3780 O.co2  89  GLU89      -0.2457
    115  N          3.6190   10.5390    1.9650 N.3    92  ASP92      -0.1239
    116  CA         3.5580   11.0070    0.5760 C.3    92  ASP92       0.1674
    117  C          2.8940    9.9910   -0.3630 C.2    92  ASP92       0.2266
    118  O          2.2900   10.3630   -1.3840 O.2    92  ASP92      -0.2867
    119  CB         4.9510   11.4010    0.0710 C.3    92  ASP92       0.1410
    120  CG         5.5150   12.6170    0.7980 C.2    92  ASP92       0.3668
    121  OD1        4.7620   13.5830    1.0560 O.co2  92  ASP92      -0.2456
    122  OD2        6.7220   12.6050    1.1140 O.co2  92  ASP92      -0.2456
    123  N          4.0660    7.2930   13.0390 N.3   130  LYS130     -0.1245
    124  CA         3.3490    8.1800   12.1130 C.3   130  LYS130      0.1561
    125  C          3.8260    7.8710   10.6950 C.2   130  LYS130      0.2260
    126  O          4.9130    7.3290   10.5160 O.2   130  LYS130     -0.2867
    127  CB         3.5930    9.6630   12.4540 C.3   130  LYS130      0.0271
    128  CG         5.0590   10.0770   12.5040 C.3   130  LYS130      0.0035
    129  CD         5.1830   11.5110   13.0040 C.3   130  LYS130      0.0206
    130  CE         6.6200   11.9930   12.9590 C.3   130  LYS130      0.1093
    131  NZ         6.7220   13.3560   13.5460 N.3   130  LYS130     -0.1314
    132  N          5.0920    9.5160    8.4030 N.3   132  GLU132     -0.1231
    133  CA         6.3470   10.1710    8.0510 C.3   132  GLU132      0.1699
    134  C          7.5460    9.3400    8.5360 C.2   132  GLU132      0.2592
    135  O          8.6560    9.4840    8.0300 O.2   132  GLU132     -0.2718
    136  CB         6.4080   11.5890    8.6420 C.3   132  GLU132      0.0402
    137  CG         5.3180   12.5430    8.1430 C.3   132  GLU132      0.1161
    138  CD         3.9800   12.4130    8.8760 C.2   132  GLU132      0.3649
    139  OE1        3.8080   11.5140    9.7310 O.co2 132  GLU132     -0.2457
    140  OE2        3.0710   13.2240    8.5900 O.co2 132  GLU132     -0.2457
    141  N          7.3110    8.4720    9.5190 N.am  133  ASN133     -0.1974
    142  CA         8.3580    7.5920   10.0540 C.3   133  ASN133      0.1688
    143  C          8.3720    6.1810    9.5090 C.2   133  ASN133      0.2292
    144  O          8.9920    5.2780   10.0920 O.2   133  ASN133     -0.2864
    145  CB         8.3130    7.5810   11.5800 C.3   133  ASN133      0.1181
    146  CG         8.9180    8.8310   12.1670 C.2   133  ASN133      0.2629
    147  OD1        9.7410    9.4790   11.5180 O.2   133  ASN133     -0.2716
    148  ND2        8.5240    9.1820   13.3910 N.am  133  ASN133     -0.0877
    149  N          9.1010    4.2800    5.7780 N.3   135  LEU135     -0.1245
    150  CA         9.6050    4.4600    4.4140 C.3   135  LEU135      0.1561
    151  C          9.5120    3.1960    3.5850 C.2   135  LEU135      0.2260
    152  O          9.5550    2.0900    4.1130 O.2   135  LEU135     -0.2867
    153  CB        11.0750    4.9120    4.4150 C.3   135  LEU135      0.0270
    154  CG        11.4870    5.9810    5.4180 C.3   135  LEU135      0.0019
    155  CD1       13.0040    6.1180    5.4120 C.3   135  LEU135      0.0001
    156  CD2       10.8030    7.3030    5.0750 C.3   135  LEU135      0.0001
    157  N         11.4980    4.1080   10.9750 N.3   145  ILE145     -0.1231
    158  CA        12.6230    4.9970   11.2740 C.3   145  ILE145      0.1692
    159  C         12.4100    5.8770   12.5250 C.2   145  ILE145      0.2592
    160  O         11.3590    5.9080   13.0730 O.2   145  ILE145     -0.2718
    161  CB        13.0250    5.9000   10.0780 C.3   145  ILE145      0.0266
    162  CG1       11.9000    6.8440    9.7510 C.3   145  ILE145      0.0019
    163  CG2       13.3540    5.1050    8.8330 C.3   145  ILE145      0.0020
    164  CD1       12.3020    7.9700    8.8440 C.3   145  ILE145      0.0001
    165  N         13.4560    6.5930   12.9180 N.am  146  ASP146     -0.1974
    166  CA        13.4330    7.5810   13.9980 C.3   146  ASP146      0.1709
    167  C         13.1220    7.1930   15.4390 C.2   146  ASP146      0.2293
    168  O         12.0780    7.4220   15.9030 O.2   146  ASP146     -0.2864
    169  CB        12.6100    8.7970   13.6420 C.3   146  ASP146      0.1436
    170  CG        13.0690   10.0350   14.3790 C.2   146  ASP146      0.3671
    171  OD1       13.6790    9.8920   15.4260 O.co2 146  ASP146     -0.2456
    172  OD2       12.8190   11.1250   13.8930 O.co2 146  ASP146     -0.2456
@<TRIPOS>BOND
     1    94    93    2
     2    95    96    1
     3    95    92    1
     4    96    97    1
     5    84    83    1
     6    93    92    1
     7    93    98   am
     8    92    91    1
     9    82    83   ar
    10    82    80   ar
    11    99    98    1
    12    99   100    1
    13    83    81   ar
    14    97    91    1
    15   101   100    2
    16   100   102   am
    17    80    78   ar
    18   118   117    2
    19    91    87   am
    20    81    79   ar
    21   102   103    1
    22     7     5    1
    23   117   116    1
    24    78    79   ar
    25    78    77    1
    26    87    88    2
    27    87    86    1
    28   103   104    1
    29   119   116    1
    30   119   120    1
    31   116   115    1
    32   120   121   ar
    33   120   122   ar
    34     5     2    1
    35     5     6    1
    36    77    74    1
    37    76    75    2
    38    86    85    1
    39    86    89    1
    40     2     1    1
    41     2     3    1
    42   104   105    2
    43   104   106   am
    44    75    85   am
    45    75    74    1
    46   109   108    2
    47     8     6    1
    48   106   107    1
    49    74    73    1
    50     4     3    2
    51    89    90    1
    52     3     9   am
    53   108   107    1
    54    73    66   am
    55   107   110    1
    56     9    10    1
    57    36    37    1
    58   151   152    2
    59   151   150    1
    60   110   111    1
    61    72    70   ar
    62    32    31    2
    63    37    40    1
    64    37    38    1
    65    66    67    2
    66    66    65    1
    67    69    70    1
    68    69    68    1
    69   150   153    1
    70   150   149    1
    71   153   154    1
    72   111   112    1
    73    10    11    1
    74    70    71   ar
    75    31    30    1
    76   113   112   ar
    77   112   114   ar
    78    65    68    1
    79    65    64    1
    80   156   154    1
    81    38    39    2
    82    59    58    2
    83   155   154    1
    84    34    33    1
    85    11    12    2
    86    11    13   am
    87    18    17    1
    88    30    33    1
    89    30    29    1
    90    13    14    1
    91    33    35    1
    92    64    58   am
    93    58    57    1
    94    17    14    1
    95    17    19    1
    96    14    15    1
    97    55    54    1
    98    56    57    1
    99    57    60    1
   100   135   134    2
   101   133   132    1
   102   133   134    1
   103   133   136    1
   104   137   136    1
   105   137   138    1
   106    60    61    1
   107    16    15    2
   108    41    42    1
   109    15    20   am
   110   134   141   am
   111   140   138   ar
   112    54    51    1
   113   163   161    1
   114   164   162    1
   115    51    52    1
   116    51    50    1
   117   138   139   ar
   118    42    43    1
   119    42    45    1
   120   143   142    1
   121   143   144    2
   122   141   142    1
   123    52    53    2
   124    20    21    1
   125    61    62    1
   126    61    63    1
   127   162   161    1
   128    43    44    2
   129   142   145    1
   130   161   158    1
   131    27    26    2
   132    45    46    1
   133    26    25    1
   134   126   125    2
   135   125   124    1
   136    21    22    1
   137   157   158    1
   138    23    22    2
   139    46    47    1
   140   158   159    1
   141   147   146    2
   142   145   146    1
   143    48    47    1
   144    48    49    1
   145    25    28    1
   146    25    24    1
   147   124   127    1
   148   124   123    1
   149   146   148   am
   150   127   128    1
   151   128   129    1
   152   159   165   am
   153   159   160    2
   154   165   166    1
   155   130   129    1
   156   130   131    1
   157   169   166    1
   158   169   170    1
   159   172   170   ar
   160   166   167    1
   161   170   171   ar
   162   167   168    2
