@<TRIPOS>MOLECULE
tmp/4bkzA00.pdb
 161 149 0 0 0
SMALL
GASTEIGER

@<TRIPOS>ATOM
      1  N         18.9620   14.8230    1.0550 N.3    16  ILE16      -0.1245
      2  CA        17.5740   14.5530    0.6690 C.3    16  ILE16       0.1561
      3  C         16.6070   15.1660    1.6770 C.2    16  ILE16       0.2260
      4  O         15.4770   15.4970    1.3320 O.2    16  ILE16      -0.2867
      5  CB        17.2680   13.0380    0.4430 C.3    16  ILE16       0.0252
      6  CG1       17.2970   12.2220    1.7580 C.3    16  ILE16       0.0019
      7  CG2       18.1820   12.4500   -0.6230 C.3    16  ILE16       0.0019
      8  CD1       15.9430   12.0400    2.4440 C.3    16  ILE16       0.0001
      9  N         18.5890   17.4860   12.7760 N.3    20  ALA20      -0.1245
     10  CA        19.1520   16.4730   11.8790 C.3    20  ALA20       0.1562
     11  C         18.9130   16.7790   10.4050 C.2    20  ALA20       0.2260
     12  O         17.8630   17.3050   10.0320 O.2    20  ALA20      -0.2867
     13  CB        18.6170   15.0880   12.2240 C.3    20  ALA20       0.0290
     14  N         19.8380   14.7360    6.3630 N.3    22  VAL22      -0.1245
     15  CA        20.0510   13.4220    5.8070 C.3    22  VAL22       0.1561
     16  C         20.6690   13.5390    4.4240 C.2    22  VAL22       0.2260
     17  O         20.1360   14.2370    3.5510 O.2    22  VAL22      -0.2867
     18  CB        18.7410   12.6020    5.7770 C.3    22  VAL22       0.0252
     19  CG1       18.9590   11.2660    5.0760 C.3    22  VAL22       0.0019
     20  CG2       18.2510   12.3620    7.2020 C.3    22  VAL22       0.0019
     21  N         22.2540   11.2950    1.1560 N.3    24  LEU24      -0.1245
     22  CA        22.5220   10.0760    0.4190 C.3    24  LEU24       0.1561
     23  C         24.0480    9.9600    0.2380 C.2    24  LEU24       0.2260
     24  O         24.7310   10.9590    0.0540 O.2    24  LEU24      -0.2867
     25  CB        21.7680   10.0900   -0.9150 C.3    24  LEU24       0.0270
     26  CG        22.1400    9.1540   -2.0650 C.3    24  LEU24       0.0019
     27  CD1       22.1240    7.7030   -1.6220 C.3    24  LEU24       0.0001
     28  CD2       21.2270    9.3470   -3.2750 C.3    24  LEU24       0.0001
     29  N         22.1130    6.0140    3.6920 N.3    35  ALA35      -0.1245
     30  CA        21.6860    7.3500    4.0710 C.3    35  ALA35       0.1562
     31  C         22.3810    7.7490    5.3530 C.2    35  ALA35       0.2260
     32  O         22.4870    6.9730    6.3080 O.2    35  ALA35      -0.2867
     33  CB        20.1690    7.4160    4.2210 C.3    35  ALA35       0.0290
     34  N         22.6400   10.2990    8.4370 N.3    37  LYS37      -0.1245
     35  CA        21.9390   11.2540    9.2630 C.3    37  LYS37       0.1561
     36  C         22.9740   12.0360   10.0490 C.2    37  LYS37       0.2260
     37  O         23.6830   11.4760   10.8940 O.2    37  LYS37      -0.2867
     38  CB        20.9190   10.5640   10.1920 C.3    37  LYS37       0.0271
     39  CG        20.1480   11.5450   11.0880 C.3    37  LYS37       0.0035
     40  CD        18.7290   11.1020   11.4550 C.3    37  LYS37       0.0206
     41  CE        18.6740   10.5160   12.8620 C.3    37  LYS37       0.1093
     42  NZ        17.3000   10.2850   13.4030 N.3    37  LYS37      -0.1314
     43  N         14.6900    0.2180   10.0090 N.3    64  CYS64      -0.1235
     44  CA        15.7850    0.8210    9.2640 C.3    64  CYS64       0.1677
     45  C         17.0740    0.5970   10.0380 C.2    64  CYS64       0.2270
     46  O         17.2070    1.0580   11.1740 O.2    64  CYS64      -0.2867
     47  CB        15.5300    2.3210    9.0850 C.3    64  CYS64       0.0956
     48  SG        16.7370    3.1500    8.0300 S.3    64  CYS64      -0.0801
     49  N         22.7390    4.7720    7.9570 N.3    80  LEU80      -0.1231
     50  CA        21.4880    4.0350    8.0740 C.3    80  LEU80       0.1693
     51  C         21.1700    3.3730    6.7650 C.2    80  LEU80       0.2592
     52  O         21.6560    3.7970    5.7180 O.2    80  LEU80      -0.2718
     53  CB        20.3480    4.9890    8.4290 C.3    80  LEU80       0.0284
     54  CG        20.4800    5.5880    9.8340 C.3    80  LEU80       0.0019
     55  CD1       19.5260    6.7660    9.9910 C.3    80  LEU80       0.0001
     56  CD2       20.1840    4.5110   10.8630 C.3    80  LEU80       0.0001
     57  N         20.3500    2.3330    6.8440 N.am   81  GLU81      -0.1966
     58  CA        19.8540    1.6400    5.6770 C.3    81  GLU81       0.1733
     59  C         19.1510    2.6170    4.7680 C.2    81  GLU81       0.2616
     60  O         18.3800    3.4700    5.2310 O.2    81  GLU81      -0.2715
     61  CB        18.8770    0.5830    6.1350 C.3    81  GLU81       0.0429
     62  CG        18.3670   -0.3210    5.0490 C.3    81  GLU81       0.1163
     63  CD        17.4200   -1.3470    5.6280 C.2    81  GLU81       0.3649
     64  OE1       17.2750   -1.4260    6.8750 O.co2  81  GLU81      -0.2457
     65  OE2       16.8270   -2.0820    4.8330 O.co2  81  GLU81      -0.2457
     66  N         19.4230    2.4740    3.4790 N.am   82  TYR82      -0.1960
     67  CA        18.9690    3.3830    2.4470 C.3    82  TYR82       0.1771
     68  C         17.5800    2.9730    1.9730 C.2    82  TYR82       0.2620
     69  O         17.4050    1.8600    1.5120 O.2    82  TYR82      -0.2715
     70  CB        19.9640    3.2600    1.3050 C.3    82  TYR82       0.0574
     71  CG        19.6370    3.9460    0.0180 C.ar   82  TYR82      -0.0198
     72  CD1       19.5830    5.3200   -0.0540 C.ar   82  TYR82      -0.0009
     73  CD2       19.4440    3.2130   -1.1450 C.ar   82  TYR82      -0.0009
     74  CE1       19.3220    5.9570   -1.2440 C.ar   82  TYR82       0.0417
     75  CE2       19.1800    3.8400   -2.3480 C.ar   82  TYR82       0.0417
     76  CZ        19.1200    5.2170   -2.3800 C.ar   82  TYR82       0.1957
     77  OH        18.8580    5.8770   -3.5460 O.3    82  TYR82      -0.2866
     78  N         16.5970    3.8670    2.0960 N.am   83  CYS83      -0.1954
     79  CA        15.2070    3.5290    1.7490 C.3    83  CYS83       0.1828
     80  C         14.7160    4.4160    0.6100 C.2    83  CYS83       0.2467
     81  O         14.1980    5.4970    0.8490 O.2    83  CYS83      -0.2730
     82  CB        14.3060    3.6780    2.9840 C.3    83  CYS83       0.0996
     83  SG        14.7450    2.5860    4.3650 S.3    83  CYS83      -0.0797
     84  N         14.9170    3.9850   -0.6390 N.am   84  PRO84      -0.2726
     85  CA        14.6290    4.9510   -1.7000 C.3    84  PRO84       0.1402
     86  C         13.1270    5.2570   -1.8450 C.2    84  PRO84       0.2269
     87  O         12.7670    6.3910   -2.2020 O.2    84  PRO84      -0.2865
     88  CB        15.2030    4.2890   -2.9710 C.3    84  PRO84       0.0296
     89  CG        15.4440    2.8510   -2.6230 C.3    84  PRO84       0.0237
     90  CD        15.6030    2.7740   -1.1340 C.3    84  PRO84       0.0939
     91  N         10.8820    6.3090   -0.1200 N.3    86  GLY86      -0.1210
     92  CA        10.3340    7.5110    0.5120 C.3    86  GLY86       0.1956
     93  C          9.4170    7.1870    1.6840 C.2    86  GLY86       0.2611
     94  O          9.2490    6.0200    2.0320 O.2    86  GLY86      -0.2717
     95  N          8.8420    8.2250    2.2970 N.am   87  GLU87      -0.1979
     96  CA         7.9630    8.0980    3.4590 C.3    87  GLU87       0.1602
     97  C          6.5960    7.5050    3.1210 C.2    87  GLU87       0.2287
     98  O          6.0620    7.7140    2.0210 O.2    87  GLU87      -0.2864
     99  CB         7.7400    9.4630    4.1130 C.3    87  GLU87       0.0415
    100  CG         8.9340   10.0080    4.8660 C.3    87  GLU87       0.1163
    101  CD         8.7240   11.4320    5.3480 C.2    87  GLU87       0.3649
    102  OE1        7.5640   11.8930    5.4290 O.co2  87  GLU87      -0.2457
    103  OE2        9.7300   12.0990    5.6480 O.co2  87  GLU87      -0.2457
    104  N          6.6380    7.3950   19.1410 N.3   126  ASP126     -0.1239
    105  CA         6.4190    8.4640   18.1460 C.3   126  ASP126      0.1674
    106  C          6.0760    7.8780   16.7800 C.2   126  ASP126      0.2266
    107  O          6.5970    8.3180   15.7550 O.2   126  ASP126     -0.2867
    108  CB         7.6470    9.4250   18.0800 C.3   126  ASP126      0.1410
    109  CG         7.4430   10.6260   17.1200 C.2   126  ASP126      0.3668
    110  OD1        6.3090   11.1610   17.0120 O.co2 126  ASP126     -0.2456
    111  OD2        8.4410   11.0480   16.4750 O.co2 126  ASP126     -0.2456
    112  N          4.1680    7.2330   13.4180 N.3   128  LYS128     -0.1245
    113  CA         3.4510    8.1250   12.4860 C.3   128  LYS128      0.1561
    114  C          4.0230    7.9100   11.0900 C.2   128  LYS128      0.2260
    115  O          5.1180    7.3810   10.9770 O.2   128  LYS128     -0.2867
    116  CB         3.5820    9.5980   12.8930 C.3   128  LYS128      0.0271
    117  CG         5.0010   10.1250   13.0010 C.3   128  LYS128      0.0035
    118  CD         4.9850   11.6070   13.3350 C.3   128  LYS128      0.0206
    119  CE         6.3820   12.1730   13.5160 C.3   128  LYS128      0.1093
    120  NZ         6.3680   13.3180   14.4770 N.3   128  LYS128     -0.1314
    121  N          5.4070    9.5970    8.7670 N.3   130  GLU130     -0.1231
    122  CA         6.7070   10.2070    8.5640 C.3   130  GLU130      0.1699
    123  C          7.8200    9.3320    9.1090 C.2   130  GLU130      0.2592
    124  O          8.9620    9.4870    8.7000 O.2   130  GLU130     -0.2718
    125  CB         6.7850   11.5740    9.2700 C.3   130  GLU130      0.0402
    126  CG         5.7510   12.6080    8.8280 C.3   130  GLU130      0.1161
    127  CD         4.3860   12.4610    9.4990 C.2   130  GLU130      0.3649
    128  OE1        4.1910   11.5330   10.3120 O.co2 130  GLU130     -0.2457
    129  OE2        3.4920   13.2860    9.2060 O.co2 130  GLU130     -0.2457
    130  N          7.5020    8.4460   10.0590 N.am  131  ASN131     -0.1974
    131  CA         8.5300    7.5740   10.6510 C.3   131  ASN131      0.1688
    132  C          8.5930    6.1890   10.0370 C.2   131  ASN131      0.2292
    133  O          9.1900    5.2790   10.6130 O.2   131  ASN131     -0.2864
    134  CB         8.4300    7.5430   12.1800 C.3   131  ASN131      0.1181
    135  CG         8.9490    8.8370   12.8080 C.2   131  ASN131      0.2629
    136  OD1        9.6830    9.5890   12.1590 O.2   131  ASN131     -0.2716
    137  ND2        8.5730    9.1040   14.0600 N.am  131  ASN131     -0.0877
    138  N          9.4300    4.2340    6.2540 N.3   133  LEU133     -0.1245
    139  CA         9.9360    4.3960    4.8800 C.3   133  LEU133      0.1561
    140  C          9.8140    3.1160    4.0770 C.2   133  LEU133      0.2260
    141  O          9.7470    2.0400    4.6360 O.2   133  LEU133     -0.2867
    142  CB        11.4070    4.8750    4.8840 C.3   133  LEU133      0.0270
    143  CG        11.8310    5.9550    5.8830 C.3   133  LEU133      0.0019
    144  CD1       13.3090    6.2650    5.7730 C.3   133  LEU133      0.0001
    145  CD2       11.0300    7.2280    5.6850 C.3   133  LEU133      0.0001
    146  N         11.7030    4.1630   11.3520 N.3   143  ILE143     -0.1231
    147  CA        12.7830    5.0570   11.8030 C.3   143  ILE143      0.1692
    148  C         12.4990    5.8680   13.0780 C.2   143  ILE143      0.2592
    149  O         11.3870    5.8450   13.6290 O.2   143  ILE143     -0.2718
    150  CB        13.2360    6.0540   10.7040 C.3   143  ILE143      0.0266
    151  CG1       12.1030    6.9850   10.2990 C.3   143  ILE143      0.0019
    152  CG2       13.7320    5.3430    9.4790 C.3   143  ILE143      0.0020
    153  CD1       12.5480    8.1350    9.3990 C.3   143  ILE143      0.0001
    154  N         13.5390    6.5850   13.5210 N.am  144  ASP144     -0.1974
    155  CA        13.4900    7.5850   14.5980 C.3   144  ASP144      0.1709
    156  C         13.0690    7.0790   15.9760 C.2   144  ASP144      0.2293
    157  O         11.9340    7.3180   16.4170 O.2   144  ASP144     -0.2864
    158  CB        12.6480    8.8150   14.1960 C.3   144  ASP144      0.1436
    159  CG        12.9280   10.0410   15.0790 C.2   144  ASP144      0.3671
    160  OD1       13.7740    9.9580   16.0110 O.co2 144  ASP144     -0.2456
    161  OD2       12.2960   11.0940   14.8340 O.co2 144  ASP144     -0.2456
@<TRIPOS>BOND
     1    77    76    1
     2    28    26    1
     3    88    89    1
     4    88    85    1
     5    89    90    1
     6    76    75   ar
     7    76    74   ar
     8    75    73   ar
     9    87    86    2
    10    26    27    1
    11    26    25    1
    12    86    85    1
    13    85    84    1
    14    74    72   ar
    15    73    71   ar
    16    90    84    1
    17    25    22    1
    18    84    80   am
    19     7     5    1
    20    91    92    1
    21    72    71   ar
    22    71    70    1
    23    24    23    2
    24    23    22    1
    25    22    21    1
    26     5     2    1
    27     5     6    1
    28    92    93    1
    29    80    81    2
    30    80    79    1
    31     2     1    1
    32     2     3    1
    33    70    67    1
    34     4     3    2
    35    69    68    2
    36    93    94    2
    37    93    95   am
    38    79    78    1
    39    79    82    1
    40     6     8    1
    41    68    78   am
    42    68    67    1
    43    98    97    2
    44    95    96    1
    45    67    66    1
    46    82    83    1
    47    97    96    1
    48    96    99    1
    49    66    59   am
    50    17    16    2
    51    29    30    1
    52    30    33    1
    53    30    31    1
    54   140   141    2
    55   140   139    1
    56    99   100    1
    57    16    15    1
    58    59    60    2
    59    59    58    1
    60    65    63   ar
    61   100   101    1
    62   139   142    1
    63   139   138    1
    64   142   143    1
    65    62    63    1
    66    62    61    1
    67    19    18    1
    68   101   102   ar
    69   101   103   ar
    70    31    32    2
    71    63    64   ar
    72    58    61    1
    73    58    57    1
    74   145   143    1
    75    52    51    2
    76   144   143    1
    77    18    15    1
    78    18    20    1
    79    15    14    1
    80    51    57   am
    81    51    50    1
    82    49    50    1
    83    48    47    1
    84    50    53    1
    85    53    54    1
    86    34    35    1
    87   122   121    1
    88   122   123    1
    89   122   125    1
    90   124   123    2
    91   126   125    1
    92   126   127    1
    93    47    44    1
    94   123   130   am
    95   129   127   ar
    96    35    36    1
    97    35    38    1
    98    44    43    1
    99    44    45    1
   100   153   151    1
   101   152   150    1
   102   127   128   ar
   103    54    55    1
   104    54    56    1
   105    12    11    2
   106   132   133    2
   107   132   131    1
   108    45    46    2
   109    36    37    2
   110   130   131    1
   111    38    39    1
   112   151   150    1
   113    11    10    1
   114   131   134    1
   115   150   147    1
   116   115   114    2
   117    39    40    1
   118   114   113    1
   119   146   147    1
   120    40    41    1
   121   147   148    1
   122    10    13    1
   123    10     9    1
   124   136   135    2
   125   134   135    1
   126   113   116    1
   127   113   112    1
   128   135   137   am
   129    41    42    1
   130   116   117    1
   131   117   118    1
   132   148   154   am
   133   148   149    2
   134   118   119    1
   135   119   120    1
   136   154   155    1
   137   158   155    1
   138   158   159    1
   139   155   156    1
   140   161   159   ar
   141   159   160   ar
   142   107   106    2
   143   156   157    2
   144   111   109   ar
   145   106   105    1
   146   110   109   ar
   147   109   108    1
   148   108   105    1
   149   105   104    1
