@<TRIPOS>MOLECULE
tmp/4bl8B00.pdb
 188 185 0 0 0
SMALL
GASTEIGER

@<TRIPOS>ATOM
      1  N          4.0040  -14.3540   70.8070 N.3    13  ASN13      -0.1240
      2  CA         4.6230  -14.9820   71.9660 C.3    13  ASN13       0.1653
      3  C          5.5480  -14.0160   72.6770 C.2    13  ASN13       0.2266
      4  O          6.0990  -13.1140   72.0510 O.2    13  ASN13      -0.2867
      5  CB         5.3860  -16.2570   71.5680 C.3    13  ASN13       0.1155
      6  CG         5.5490  -17.2400   72.7300 C.2    13  ASN13       0.2627
      7  OD1        4.5890  -17.5520   73.4370 O.2    13  ASN13      -0.2716
      8  ND2        6.7710  -17.7390   72.9200 N.am   13  ASN13      -0.0877
      9  N          8.5810  -14.1020   74.0320 N.3    15  ASP15      -0.1225
     10  CA        10.0110  -14.0080   73.7390 C.3    15  ASP15       0.1805
     11  C         10.3140  -13.1380   72.5090 C.2    15  ASP15       0.2597
     12  O         11.4580  -12.7220   72.3060 O.2    15  ASP15      -0.2718
     13  CB        10.6260  -15.4040   73.5890 C.3    15  ASP15       0.1424
     14  CG         9.9520  -16.2270   72.5070 C.2    15  ASP15       0.3668
     15  OD1        8.8980  -15.7800   72.0040 O.co2  15  ASP15      -0.2456
     16  OD2       10.4670  -17.3180   72.1710 O.co2  15  ASP15      -0.2456
     17  N          9.2880  -12.8620   71.7030 N.am   16  LYS16      -0.1979
     18  CA         9.4370  -12.0460   70.4960 C.3    16  LYS16       0.1596
     19  C          9.3360  -10.5540   70.8210 C.2    16  LYS16       0.2287
     20  O          9.0700  -10.1770   71.9680 O.2    16  LYS16      -0.2864
     21  CB         8.3680  -12.3990   69.4570 C.3    16  LYS16       0.0298
     22  CG         8.4060  -13.8340   68.9820 C.3    16  LYS16       0.0038
     23  CD         9.7280  -14.1630   68.3140 C.3    16  LYS16       0.0206
     24  CE         9.7140  -15.5640   67.7580 C.3    16  LYS16       0.1093
     25  NZ         9.2920  -16.5620   68.7640 N.3    16  LYS16      -0.1314
     26  N         -0.4430  -20.3960   71.7770 N.3    45  GLU45      -0.1245
     27  CA        -0.5840  -21.3750   70.7040 C.3    45  GLU45       0.1567
     28  C         -1.6610  -22.4200   71.0300 C.2    45  GLU45       0.2260
     29  O         -2.2410  -23.0180   70.1240 O.2    45  GLU45      -0.2867
     30  CB         0.7560  -22.0730   70.4130 C.3    45  GLU45       0.0388
     31  CG         1.0780  -23.2920   71.2880 C.3    45  GLU45       0.1160
     32  CD         1.8320  -22.9320   72.5530 C.2    45  GLU45       0.3649
     33  OE1        2.0130  -21.7250   72.8140 O.co2  45  GLU45      -0.2457
     34  OE2        2.2520  -23.8580   73.2830 O.co2  45  GLU45      -0.2457
     35  N          3.1300  -17.0160   65.2260 N.3    63  TRP63      -0.1227
     36  CA         3.7740  -18.2290   65.7150 C.3    63  TRP63       0.1737
     37  C          4.5370  -18.9360   64.6050 C.2    63  TRP63       0.2595
     38  O          4.3270  -18.6550   63.4320 O.2    63  TRP63      -0.2718
     39  CB         2.7370  -19.1750   66.3040 C.3    63  TRP63       0.0564
     40  CG         3.3440  -20.2160   67.1600 C.ar   63  TRP63       0.0003
     41  CD1        3.7130  -21.4650   66.7810 C.ar   63  TRP63       0.0946
     42  CD2        3.6680  -20.1030   68.5480 C.ar   63  TRP63       0.0152
     43  NE1        4.2430  -22.1450   67.8460 N.ar   63  TRP63      -0.2442
     44  CE2        4.2250  -21.3280   68.9480 C.ar   63  TRP63       0.0810
     45  CE3        3.5360  -19.0850   69.4970 C.ar   63  TRP63       0.0012
     46  CZ2        4.6540  -21.5680   70.2480 C.ar   63  TRP63       0.0191
     47  CZ3        3.9610  -19.3260   70.7890 C.ar   63  TRP63       0.0001
     48  CH2        4.5110  -20.5540   71.1530 C.ar   63  TRP63       0.0015
     49  N          5.4180  -19.8610   64.9720 N.am   64  ALA64      -0.1980
     50  CA         6.1180  -20.6660   63.9730 C.3    64  ALA64       0.1597
     51  C          5.1050  -21.3980   63.0950 C.2    64  ALA64       0.2287
     52  O          4.0390  -21.7870   63.5590 O.2    64  ALA64      -0.2864
     53  CB         7.0540  -21.6400   64.6400 C.3    64  ALA64       0.0319
     54  N          4.6470  -24.2580   61.9650 N.3    66  ASP66      -0.1225
     55  CA         4.2430  -25.6380   62.2060 C.3    66  ASP66       0.1805
     56  C          2.8530  -25.7400   62.8370 C.2    66  ASP66       0.2597
     57  O          2.1310  -26.7120   62.6200 O.2    66  ASP66      -0.2718
     58  CB         5.2780  -26.3730   63.0690 C.3    66  ASP66       0.1424
     59  CG         5.4560  -25.7490   64.4320 C.2    66  ASP66       0.3668
     60  OD1        5.7020  -24.5310   64.5030 O.co2  66  ASP66      -0.2456
     61  OD2        5.3510  -26.4790   65.4350 O.co2  66  ASP66      -0.2456
     62  N          2.4650  -24.7310   63.6020 N.am   67  ARG67      -0.1979
     63  CA         1.1630  -24.7540   64.2530 C.3    67  ARG67       0.1597
     64  C          0.0320  -24.5020   63.2640 C.2    67  ARG67       0.2287
     65  O         -1.0880  -24.9650   63.4660 O.2    67  ARG67      -0.2864
     66  CB         1.1070  -23.7030   65.3560 C.3    67  ARG67       0.0334
     67  CG         1.6950  -24.1660   66.6660 C.3    67  ARG67       0.0492
     68  CD         0.7050  -25.0420   67.4210 C.3    67  ARG67       0.2205
     69  NE         1.3520  -25.8830   68.4220 N.pl3  67  ARG67      -0.0865
     70  CZ         0.7020  -26.5870   69.3430 C.cat  67  ARG67       0.5346
     71  NH1       -0.6260  -26.5580   69.4100 N.pl3  67  ARG67       0.1354
     72  NH2        1.3890  -27.3200   70.2100 N.pl3  67  ARG67       0.1354
     73  N         13.7410  -18.7070   61.5960 N.3   112  GLU112     -0.1245
     74  CA        14.4360  -18.9770   62.8500 C.3   112  GLU112      0.1567
     75  C         15.1050  -20.3410   62.8160 C.2   112  GLU112      0.2260
     76  O         14.5870  -21.2800   62.2200 O.2   112  GLU112     -0.2867
     77  CB        13.4380  -18.9710   64.0130 C.3   112  GLU112      0.0388
     78  CG        12.5650  -17.7180   64.1040 C.3   112  GLU112      0.1160
     79  CD        11.3370  -17.9110   64.9750 C.2   112  GLU112      0.3649
     80  OE1       11.1610  -19.0210   65.5320 O.co2 112  GLU112     -0.2457
     81  OE2       10.5470  -16.9470   65.0920 O.co2 112  GLU112     -0.2457
     82  N         17.3740  -24.6460   77.5700 N.3   151  ASN151     -0.1240
     83  CA        16.0340  -25.1100   77.9160 C.3   151  ASN151      0.1653
     84  C         15.8400  -26.6080   77.6650 C.2   151  ASN151      0.2266
     85  O         15.9100  -27.0630   76.5260 O.2   151  ASN151     -0.2867
     86  CB        14.9840  -24.3110   77.1400 C.3   151  ASN151      0.1155
     87  CG        13.5640  -24.5810   77.6190 C.2   151  ASN151      0.2627
     88  OD1       13.3450  -25.3020   78.5930 O.2   151  ASN151     -0.2716
     89  ND2       12.5920  -23.9990   76.9280 N.am  151  ASN151     -0.0877
     90  N         11.4180  -27.7830   76.8840 N.3   154  GLU154     -0.1231
     91  CA        10.7970  -27.7740   75.5650 C.3   154  GLU154      0.1684
     92  C         11.6020  -28.6280   74.5990 C.2   154  GLU154      0.2434
     93  O         12.8070  -28.4450   74.4760 O.2   154  GLU154     -0.2733
     94  CB        10.7150  -26.3440   75.0370 C.3   154  GLU154      0.0402
     95  CG         9.6420  -25.4970   75.7070 C.3   154  GLU154      0.1161
     96  CD         8.2380  -25.9150   75.3270 C.2   154  GLU154      0.3649
     97  OE1        8.0910  -26.7870   74.4470 O.co2 154  GLU154     -0.2457
     98  OE2        7.2790  -25.3720   75.9140 O.co2 154  GLU154     -0.2457
     99  N         10.9400  -29.5660   73.9050 N.am  155  PRO155     -0.2718
    100  CA        11.6570  -30.4550   72.9770 C.3   155  PRO155      0.1535
    101  C         12.3310  -29.7060   71.8280 C.2   155  PRO155      0.2599
    102  O         13.2020  -30.2650   71.1690 O.2   155  PRO155     -0.2715
    103  CB        10.5490  -31.3780   72.4530 C.3   155  PRO155      0.0310
    104  CG         9.2870  -30.6140   72.6540 C.3   155  PRO155      0.0237
    105  CD         9.4910  -29.8280   73.9100 C.3   155  PRO155      0.0939
    106  N         11.9360  -28.4590   71.6010 N.am  156  TYR156     -0.1960
    107  CA        12.4700  -27.6660   70.5000 C.3   156  TYR156      0.1771
    108  C         13.9800  -27.4510   70.6150 C.2   156  TYR156      0.2619
    109  O         14.6530  -27.2060   69.6160 O.2   156  TYR156     -0.2715
    110  CB        11.7690  -26.3100   70.4590 C.3   156  TYR156      0.0574
    111  CG        12.2460  -25.3700   69.3740 C.ar  156  TYR156     -0.0198
    112  CD1       11.7960  -25.4960   68.0660 C.ar  156  TYR156     -0.0009
    113  CD2       13.1270  -24.3380   69.6660 C.ar  156  TYR156     -0.0009
    114  CE1       12.2200  -24.6280   67.0790 C.ar  156  TYR156      0.0417
    115  CE2       13.5560  -23.4640   68.6850 C.ar  156  TYR156      0.0417
    116  CZ        13.1000  -23.6130   67.3960 C.ar  156  TYR156      0.1957
    117  OH        13.5280  -22.7400   66.4230 O.3   156  TYR156     -0.2866
    118  N         14.5050  -27.5470   71.8340 N.am  157  PHE157     -0.1974
    119  CA        15.9100  -27.2480   72.0960 C.3   157  PHE157      0.1639
    120  C         16.7730  -28.5010   72.2010 C.2   157  PHE157      0.2290
    121  O         17.9940  -28.4250   72.0740 O.2   157  PHE157     -0.2864
    122  CB        16.0430  -26.4420   73.3890 C.3   157  PHE157      0.0560
    123  CG        15.3770  -25.0990   73.3410 C.ar  157  PHE157     -0.0200
    124  CD1       14.0130  -24.9800   73.5560 C.ar  157  PHE157     -0.0042
    125  CD2       16.1140  -23.9540   73.0810 C.ar  157  PHE157     -0.0042
    126  CE1       13.3940  -23.7440   73.5130 C.ar  157  PHE157     -0.0003
    127  CE2       15.5030  -22.7110   73.0360 C.ar  157  PHE157     -0.0003
    128  CZ        14.1410  -22.6060   73.2530 C.ar  157  PHE157     -0.0000
    129  N         15.8890  -14.2720   68.6630 N.3   231  TRP231     -0.1241
    130  CA        15.1220  -13.4570   69.6030 C.3   231  TRP231      0.1605
    131  C         15.8610  -13.2430   70.9220 C.2   231  TRP231      0.2264
    132  O         15.6480  -12.2370   71.6060 O.2   231  TRP231     -0.2867
    133  CB        13.7860  -14.1310   69.8920 C.3   231  TRP231      0.0550
    134  CG        13.9350  -15.5530   70.3310 C.ar  231  TRP231      0.0003
    135  CD1       14.1920  -16.0040   71.5920 C.ar  231  TRP231      0.0946
    136  CD2       13.8420  -16.7140   69.5000 C.ar  231  TRP231      0.0152
    137  NE1       14.2620  -17.3760   71.5980 N.ar  231  TRP231     -0.2442
    138  CE2       14.0500  -17.8370   70.3240 C.ar  231  TRP231      0.0810
    139  CE3       13.6030  -16.9120   68.1370 C.ar  231  TRP231      0.0012
    140  CZ2       14.0220  -19.1390   69.8320 C.ar  231  TRP231      0.0191
    141  CZ3       13.5740  -18.1990   67.6500 C.ar  231  TRP231      0.0001
    142  CH2       13.7830  -19.3000   68.4930 C.ar  231  TRP231      0.0015
    143  N         11.9620  -23.0120   61.8010 N.3   261  GLY261     -0.1225
    144  CA        10.6050  -22.5280   61.8840 C.3   261  GLY261      0.1811
    145  C         10.4990  -21.1390   61.3010 C.2   261  GLY261      0.2280
    146  O         11.3600  -20.2990   61.5370 O.2   261  GLY261     -0.2866
    147  N          8.4910  -17.8220   61.5230 N.3   263  LEU263     -0.1245
    148  CA         7.5110  -17.0210   62.2380 C.3   263  LEU263      0.1561
    149  C          6.4910  -16.4970   61.2370 C.2   263  LEU263      0.2260
    150  O          6.8490  -15.8070   60.2950 O.2   263  LEU263     -0.2867
    151  CB         8.1820  -15.8480   62.9540 C.3   263  LEU263      0.0270
    152  CG         7.2250  -14.9470   63.7400 C.3   263  LEU263      0.0019
    153  CD1        6.6960  -15.6650   64.9760 C.3   263  LEU263      0.0001
    154  CD2        7.8920  -13.6330   64.1080 C.3   263  LEU263      0.0001
    155  N         10.3110  -27.5210   59.5740 N.3   331  MET331     -0.1245
    156  CA         9.2040  -28.1860   60.2510 C.3   331  MET331      0.1570
    157  C          8.0690  -28.4340   59.2800 C.2   331  MET331      0.2261
    158  O          7.7970  -27.6020   58.4170 O.2   331  MET331     -0.2867
    159  CB         8.7040  -27.3370   61.3990 C.3   331  MET331      0.0387
    160  CG         9.6640  -27.2980   62.5400 C.3   331  MET331      0.0595
    161  SD         8.9350  -26.5230   63.9880 S.3   331  MET331     -0.1393
    162  CE         9.0530  -24.7640   63.6700 C.3   331  MET331      0.0692
    163  N          4.9400  -32.9900   68.9490 N.3   341  TRP341     -0.1227
    164  CA         5.6740  -32.1370   69.8720 C.3   341  TRP341      0.1737
    165  C          5.3490  -32.5090   71.3040 C.2   341  TRP341      0.2595
    166  O          6.2310  -32.5070   72.1540 O.2   341  TRP341     -0.2718
    167  CB         5.3480  -30.6630   69.6240 C.3   341  TRP341      0.0564
    168  CG         6.1580  -30.0290   68.5450 C.ar  341  TRP341      0.0003
    169  CD1        5.6950  -29.2990   67.4920 C.ar  341  TRP341      0.0946
    170  CD2        7.5840  -30.0590   68.4160 C.ar  341  TRP341      0.0152
    171  NE1        6.7440  -28.8700   66.7140 N.ar  341  TRP341     -0.2442
    172  CE2        7.9160  -29.3260   67.2610 C.ar  341  TRP341      0.0810
    173  CE3        8.6120  -30.6370   69.1650 C.ar  341  TRP341      0.0012
    174  CZ2        9.2310  -29.1550   66.8380 C.ar  341  TRP341      0.0191
    175  CZ3        9.9120  -30.4670   68.7450 C.ar  341  TRP341      0.0001
    176  CH2       10.2120  -29.7350   67.5930 C.ar  341  TRP341      0.0015
    177  N          4.0920  -32.8340   71.5770 N.am  342  TYR342     -0.1976
    178  CA         3.6990  -33.2040   72.9270 C.3   342  TYR342      0.1639
    179  C          4.2870  -34.5550   73.3100 C.2   342  TYR342      0.2290
    180  O          4.7930  -34.7240   74.4160 O.2   342  TYR342     -0.2864
    181  CB         2.1700  -33.2090   73.0470 C.3   342  TYR342      0.0560
    182  CG         1.5580  -31.8130   73.0520 C.ar  342  TYR342     -0.0198
    183  CD1        1.9990  -30.8410   73.9480 C.ar  342  TYR342     -0.0009
    184  CD2        0.5530  -31.4650   72.1530 C.ar  342  TYR342     -0.0009
    185  CE1        1.4490  -29.5650   73.9600 C.ar  342  TYR342      0.0417
    186  CE2       -0.0010  -30.1910   72.1530 C.ar  342  TYR342      0.0417
    187  CZ         0.4530  -29.2460   73.0620 C.ar  342  TYR342      0.1957
    188  OH        -0.0880  -27.9820   73.0730 O.3   342  TYR342     -0.2866
@<TRIPOS>BOND
     1   158   157    2
     2   157   156    1
     3   155   156    1
     4   156   159    1
     5   150   149    2
     6   149   148    1
     7   145   146    2
     8   145   144    1
     9   159   160    1
    10   147   148    1
    11    73    74    1
    12   143   144    1
    13    54    55    1
    14    55    56    1
    15    55    58    1
    16    76    75    2
    17   148   151    1
    18   160   161    1
    19    57    56    2
    20    75    74    1
    21    56    62   am
    22    74    77    1
    23   151   152    1
    24    58    59    1
    25    51    52    2
    26    51    50    1
    27    64    65    2
    28    64    63    1
    29    38    37    2
    30    62    63    1
    31   162   161    1
    32   152   154    1
    33   152   153    1
    34    50    53    1
    35    50    49    1
    36    77    78    1
    37    78    79    1
    38    63    66    1
    39    59    60   ar
    40    59    61   ar
    41    37    49   am
    42    37    36    1
    43    79    81   ar
    44    79    80   ar
    45    35    36    1
    46    66    67    1
    47    36    39    1
    48    39    40    1
    49   117   116    1
    50    67    68    1
    51   171   172   ar
    52   171   169   ar
    53    41    40   ar
    54    41    43   ar
    55   174   172   ar
    56   174   176   ar
    57   114   116   ar
    58   114   112   ar
    59    40    42   ar
    60   172   170   ar
    61   116   115   ar
    62    68    69    1
    63   169   168   ar
    64   176   175   ar
    65   141   139   ar
    66   141   142   ar
    67    24    23    1
    68    24    25    1
    69    43    44   ar
    70   112   111   ar
    71   139   136   ar
    72    23    22    1
    73   170   168   ar
    74   170   173   ar
    75    69    70    2
    76   142   140   ar
    77   168   167    1
    78    42    44   ar
    79    42    45   ar
    80   129   130    1
    81   115   113   ar
    82   175   173   ar
    83    44    46   ar
    84   163   164    1
    85    22    21    1
    86    70    71    1
    87    70    72    1
    88   111   113   ar
    89   111   110    1
    90    21    18    1
    91    45    47   ar
    92   136   138   ar
    93   136   134   ar
    94   130   133    1
    95   130   131    1
    96   109   108    2
    97   167   164    1
    98   140   138   ar
    99   164   165    1
   100   133   134    1
   101    29    28    2
   102    46    48   ar
   103   138   137   ar
   104   134   135   ar
   105    30    27    1
   106    30    31    1
   107   110   107    1
   108    18    19    1
   109    18    17    1
   110   107   108    1
   111   107   106    1
   112   108   118   am
   113    27    28    1
   114    27    26    1
   115    47    48   ar
   116     1     2    1
   117    19    20    2
   118   131   132    2
   119   102   101    2
   120    31    32    1
   121   165   177   am
   122   165   166    2
   123     5     2    1
   124     5     6    1
   125   177   178    1
   126   135   137   ar
   127   106   101   am
   128    17    11   am
   129   101   100    1
   130   118   119    1
   131     2     3    1
   132    15    14   ar
   133     4     3    2
   134   121   120    2
   135   119   120    1
   136   119   122    1
   137   184   186   ar
   138   184   182   ar
   139   186   187   ar
   140    16    14   ar
   141    12    11    2
   142   103   104    1
   143   103   100    1
   144    14    13    1
   145    11    10    1
   146    32    33   ar
   147    32    34   ar
   148   104   105    1
   149     6     8   am
   150     6     7    2
   151   178   181    1
   152   178   179    1
   153   100    99    1
   154   127   125   ar
   155   127   128   ar
   156   181   182    1
   157   182   183   ar
   158   187   188    1
   159   187   185   ar
   160   125   123   ar
   161   128   126   ar
   162   179   180    2
   163   123   122    1
   164   123   124   ar
   165   126   124   ar
   166    13    10    1
   167    10     9    1
   168    99   105    1
   169    99    92   am
   170   183   185   ar
   171    97    96   ar
   172    93    92    2
   173    92    91    1
   174    94    91    1
   175    94    95    1
   176    96    95    1
   177    96    98   ar
   178    91    90    1
   179    85    84    2
   180    89    87   am
   181    86    87    1
   182    86    83    1
   183    82    83    1
   184    87    88    2
   185    84    83    1
