@<TRIPOS>MOLECULE
tmp/4bliA00.pdb
 137 127 0 0 0
SMALL
GASTEIGER

@<TRIPOS>ATOM
      1  N        -11.1300   14.8390    8.3620 N.3    31  ASN31      -0.1225
      2  CA       -12.4120   14.8020    7.6930 C.3    31  ASN31       0.1785
      3  C        -12.8980   13.3830    7.4040 C.2    31  ASN31       0.2597
      4  O        -14.0990   13.1340    7.5330 O.2    31  ASN31      -0.2718
      5  CB       -12.2810   15.6080    6.4070 C.3    31  ASN31       0.1169
      6  CG       -13.6540   15.7220    5.7730 C.2    31  ASN31       0.2627
      7  OD1      -14.5850   16.2780    6.3540 O.2    31  ASN31      -0.2716
      8  ND2      -13.7350   15.1450    4.5870 N.am   31  ASN31      -0.0877
      9  N        -12.0330   12.4850    6.9920 N.am   32  ARG32      -0.1979
     10  CA       -12.4640   11.1370    6.6230 C.3    32  ARG32       0.1597
     11  C        -11.3400   10.1320    6.7650 C.2    32  ARG32       0.2287
     12  O        -10.1600   10.5010    6.7260 O.2    32  ARG32      -0.2864
     13  CB       -12.9270   11.1070    5.1570 C.3    32  ARG32       0.0334
     14  CG       -11.7480   11.2930    4.1680 C.3    32  ARG32       0.0492
     15  CD       -12.2350   11.3910    2.7560 C.3    32  ARG32       0.2205
     16  NE       -12.8930   10.2410    2.2060 N.pl3  32  ARG32      -0.0865
     17  CZ       -12.3160    9.1940    1.5980 C.cat  32  ARG32       0.5346
     18  NH1      -11.0160    9.1530    1.4300 N.pl3  32  ARG32       0.1354
     19  NH2      -13.1070    8.2540    1.1440 N.pl3  32  ARG32       0.1354
     20  N        -10.8380    0.2490    1.8250 N.3    36  ASP36      -0.1239
     21  CA       -11.4530   -0.2510    0.6000 C.3    36  ASP36       0.1674
     22  C        -10.9090   -1.6180    0.2980 C.2    36  ASP36       0.2266
     23  O         -9.7810   -1.7500   -0.2000 O.2    36  ASP36      -0.2867
     24  CB       -11.1910    0.7270   -0.5650 C.3    36  ASP36       0.1410
     25  CG       -11.9780    1.9830   -0.4150 C.2    36  ASP36       0.3668
     26  OD1      -13.1840    1.9750   -0.7100 O.co2  36  ASP36      -0.2456
     27  OD2      -11.4050    3.0430    0.0030 O.co2  36  ASP36      -0.2456
     28  N        -16.3230   -1.0630    1.5450 N.3    46  HIS46      -0.1241
     29  CA       -15.8870    0.3130    1.8090 C.3    46  HIS46       0.1621
     30  C        -16.3170    0.6480    3.2200 C.2    46  HIS46       0.2264
     31  O        -17.5290    0.5420    3.5050 O.2    46  HIS46      -0.2867
     32  CB       -16.5480    1.2090    0.8230 C.3    46  HIS46       0.0745
     33  CG       -16.3250    2.6910    0.8980 C.ar   46  HIS46       0.0817
     34  ND1      -15.1710    3.3110    0.5430 N.ar   46  HIS46      -0.2268
     35  CD2      -17.1810    3.6770    1.2150 C.ar   46  HIS46       0.1154
     36  CE1      -15.3470    4.6440    0.6380 C.ar   46  HIS46       0.1986
     37  NE2      -16.5580    4.9080    1.0490 N.ar   46  HIS46      -0.2212
     38  N        -16.0230    3.7650    5.8090 N.3    48  ASN48      -0.1240
     39  CA       -15.7060    5.1810    5.6390 C.3    48  ASN48       0.1653
     40  C        -16.2350    6.0210    6.7840 C.2    48  ASN48       0.2266
     41  O        -17.2910    6.6270    6.7380 O.2    48  ASN48      -0.2867
     42  CB       -16.3690    5.6400    4.3070 C.3    48  ASN48       0.1155
     43  CG       -16.2250    7.1100    3.9590 C.2    48  ASN48       0.2627
     44  OD1      -17.1260    7.6280    3.2800 O.2    48  ASN48      -0.2716
     45  ND2      -15.1540    7.7820    4.3400 N.am   48  ASN48      -0.0877
     46  N        -16.7020    9.3450    8.5610 N.3    50  ARG50      -0.1245
     47  CA       -16.8530   10.7360    8.1960 C.3    50  ARG50       0.1563
     48  C        -16.9950   11.5620    9.4850 C.2    50  ARG50       0.2260
     49  O        -17.8860   11.3090   10.2770 O.2    50  ARG50      -0.2867
     50  CB       -18.1340   10.8940    7.3270 C.3    50  ARG50       0.0307
     51  CG       -18.0450   10.0480    6.0590 C.3    50  ARG50       0.0489
     52  CD       -19.2780   10.3150    5.1950 C.3    50  ARG50       0.2205
     53  NE       -19.1850    9.4770    4.0030 N.pl3  50  ARG50      -0.0865
     54  CZ       -20.0420    9.4200    3.0250 C.cat  50  ARG50       0.5346
     55  NH1      -21.1270   10.1950    3.0900 N.pl3  50  ARG50       0.1354
     56  NH2      -19.8560    8.6010    2.0080 N.pl3  50  ARG50       0.1354
     57  N        -20.1490   15.2360    8.5310 N.3    53  GLU53      -0.1231
     58  CA       -21.1730   15.1430    7.5330 C.3    53  GLU53       0.1699
     59  C        -22.3620   15.9270    8.1210 C.2    53  GLU53       0.2592
     60  O        -23.0500   15.4220    8.9910 O.2    53  GLU53      -0.2718
     61  CB       -21.5480   13.7190    7.1950 C.3    53  GLU53       0.0402
     62  CG       -22.5840   13.6830    6.0580 C.3    53  GLU53       0.1161
     63  CD       -23.1440   12.2950    5.8240 C.2    53  GLU53       0.3649
     64  OE1      -23.8370   11.7770    6.7360 O.co2  53  GLU53      -0.2457
     65  OE2      -22.8310   11.7210    4.7830 O.co2  53  GLU53      -0.2457
     66  N        -22.5870   17.1550    7.6570 N.am   54  ASN54      -0.1974
     67  CA       -23.5990   18.0070    8.2810 C.3    54  ASN54       0.1688
     68  C        -23.4350   18.1090    9.7840 C.2    54  ASN54       0.2292
     69  O        -24.4000   18.0700   10.5330 O.2    54  ASN54      -0.2864
     70  CB       -24.9840   17.5040    7.8870 C.3    54  ASN54       0.1181
     71  CG       -25.0890   17.4990    6.3770 C.2    54  ASN54       0.2629
     72  OD1      -25.5550   16.4970    5.8080 O.2    54  ASN54      -0.2716
     73  ND2      -24.7040   18.5640    5.6600 N.am   54  ASN54      -0.0877
     74  N        -19.9320    5.2280    7.2130 N.3    60  VAL60      -0.1245
     75  CA       -20.6730    4.7700    6.0410 C.3    60  VAL60       0.1561
     76  C        -19.9750    3.5310    5.4730 C.2    60  VAL60       0.2260
     77  O        -18.7640    3.5460    5.2320 O.2    60  VAL60      -0.2867
     78  CB       -20.7200    5.8400    4.9740 C.3    60  VAL60       0.0252
     79  CG1      -21.3350    5.3310    3.7020 C.3    60  VAL60       0.0019
     80  CG2      -21.4670    7.0710    5.4810 C.3    60  VAL60       0.0019
     81  N        -20.3120    0.4910    2.3080 N.3    62  ASN62      -0.1240
     82  CA       -20.9700    0.2440    1.0300 C.3    62  ASN62       0.1653
     83  C        -20.1080   -0.6770    0.1680 C.2    62  ASN62       0.2266
     84  O        -18.9770   -1.0580    0.5700 O.2    62  ASN62      -0.2867
     85  CB       -21.2800    1.5640    0.3340 C.3    62  ASN62       0.1155
     86  CG       -22.4820    1.5510   -0.5920 C.2    62  ASN62       0.2627
     87  OD1      -23.0190    0.4940   -0.9560 O.2    62  ASN62      -0.2716
     88  ND2      -22.8750    2.7400   -1.0510 N.am   62  ASN62      -0.0877
     89  N        -19.0570   -1.0670   -4.1670 N.3    64  LYS64      -0.1245
     90  CA       -19.0720   -0.4380   -5.5020 C.3    64  LYS64       0.1561
     91  C        -18.8740   -1.5420   -6.5290 C.2    64  LYS64       0.2260
     92  O        -17.9160   -2.3270   -6.4800 O.2    64  LYS64      -0.2867
     93  CB       -17.9980    0.6170   -5.6330 C.3    64  LYS64       0.0271
     94  CG       -18.2570    1.5980   -6.7720 C.3    64  LYS64       0.0035
     95  CD       -17.2170    2.7070   -6.8760 C.3    64  LYS64       0.0206
     96  CE       -15.8490    2.1670   -7.2590 C.3    64  LYS64       0.1093
     97  NZ       -14.6980    3.0070   -6.7990 N.3    64  LYS64      -0.1314
     98  N        -21.8760    2.8200   -6.6740 N.3    69  TRP69      -0.1241
     99  CA       -22.1230    2.5800   -5.2850 C.3    69  TRP69       0.1605
    100  C        -23.5290    2.0230   -5.0400 C.2    69  TRP69       0.2264
    101  O        -24.4920    2.4860   -5.6920 O.2    69  TRP69      -0.2867
    102  CB       -21.9510    3.8520   -4.4610 C.3    69  TRP69       0.0550
    103  CG       -20.5410    4.2840   -4.3650 C.ar   69  TRP69       0.0003
    104  CD1      -19.9830    5.3580   -4.9450 C.ar   69  TRP69       0.0946
    105  CD2      -19.5070    3.6410   -3.6220 C.ar   69  TRP69       0.0152
    106  NE1      -18.6600    5.4360   -4.6370 N.ar   69  TRP69      -0.2442
    107  CE2      -18.3400    4.3780   -3.8090 C.ar   69  TRP69       0.0810
    108  CE3      -19.4570    2.4850   -2.8180 C.ar   69  TRP69       0.0012
    109  CZ2      -17.1350    4.0020   -3.2080 C.ar   69  TRP69       0.0191
    110  CZ3      -18.2840    2.1120   -2.2210 C.ar   69  TRP69       0.0001
    111  CH2      -17.1420    2.8790   -2.4430 C.ar   69  TRP69       0.0015
    112  N        -26.0570    2.2770    1.1060 N.3    72  GLU72      -0.1245
    113  CA       -25.2050    2.4540    2.2450 C.3    72  GLU72       0.1567
    114  C        -25.7800    1.7920    3.4880 C.2    72  GLU72       0.2260
    115  O        -27.0110    1.7400    3.6880 O.2    72  GLU72      -0.2867
    116  CB       -25.0150    3.9450    2.5960 C.3    72  GLU72       0.0388
    117  CG       -24.2240    4.6840    1.5250 C.3    72  GLU72       0.1160
    118  CD       -24.0080    6.1490    1.7590 C.2    72  GLU72       0.3649
    119  OE1      -24.5860    6.7110    2.7110 O.co2  72  GLU72      -0.2457
    120  OE2      -23.1930    6.7400    1.0160 O.co2  72  GLU72      -0.2457
    121  N        -25.3500    2.6360    7.2210 N.3    74  ARG74      -0.1245
    122  CA       -24.9430    3.5760    8.2240 C.3    74  ARG74       0.1563
    123  C        -25.3980    3.1790    9.6480 C.2    74  ARG74       0.2260
    124  O        -26.5810    2.8240    9.7710 O.2    74  ARG74      -0.2867
    125  CB       -25.5620    4.9500    7.9390 C.3    74  ARG74       0.0307
    126  CG       -25.1080    5.4890    6.6010 C.3    74  ARG74       0.0489
    127  CD       -26.1150    6.5410    6.1280 C.3    74  ARG74       0.2205
    128  NE       -25.4780    7.4590    5.2120 N.pl3  74  ARG74      -0.0865
    129  CZ       -24.9300    8.6250    5.5310 C.cat  74  ARG74       0.5346
    130  NH1      -24.9150    9.1200    6.7640 N.pl3  74  ARG74       0.1354
    131  NH2      -24.3930    9.2850    4.5260 N.pl3  74  ARG74       0.1354
    132  N         -6.7760    4.7940    3.2900 N.3   125  SER125     -0.1217
    133  CA        -6.6390    6.1640    2.8690 C.3   125  SER125      0.1889
    134  C         -7.3140    7.0870    3.8840 C.2   125  SER125      0.2288
    135  O         -8.0120    6.6700    4.8120 O.2   125  SER125     -0.2866
    136  CB        -7.2170    6.3720    1.4740 C.3   125  SER125      0.2089
    137  OG        -8.6080    6.0520    1.4450 O.3   125  SER125     -0.2183
@<TRIPOS>BOND
     1    96    95    1
     2    96    97    1
     3    95    94    1
     4    94    93    1
     5    98    99    1
     6    91    92    2
     7    91    90    1
     8   101   100    2
     9    93    90    1
    10    90    89    1
    11    99   100    1
    12    99   102    1
    13   104   106   ar
    14   104   103   ar
    15   106   107   ar
    16   102   103    1
    17   103   105   ar
    18   107   105   ar
    19   107   109   ar
    20   105   108   ar
    21   109   111   ar
    22   108   110   ar
    23   111   110   ar
    24    88    86   am
    25    87    86    2
    26    26    25   ar
    27    86    85    1
    28    24    25    1
    29    24    21    1
    30    25    27   ar
    31    23    22    2
    32    83    84    2
    33    83    82    1
    34    22    21    1
    35    85    82    1
    36    34    36   ar
    37    34    33   ar
    38    21    20    1
    39    36    37   ar
    40    32    33    1
    41    32    29    1
    42    33    35   ar
    43   120   118   ar
    44    82    81    1
    45    37    35   ar
    46   112   113    1
    47    19    17    1
    48    18    17    1
    49   137   136    1
    50   136   133    1
    51   117   118    1
    52   117   116    1
    53    28    29    1
    54    17    16    2
    55   118   119   ar
    56    29    30    1
    57    56    54    1
    58    16    15    1
    59   113   116    1
    60   113   114    1
    61    15    14    1
    62   133   132    1
    63   133   134    1
    64    54    55    1
    65    54    53    2
    66    30    31    2
    67    44    43    2
    68   114   115    2
    69    79    78    1
    70   134   135    2
    71    43    42    1
    72    43    45   am
    73    53    52    1
    74    14    13    1
    75    42    39    1
    76   131   129    1
    77     8     6   am
    78    65    63   ar
    79    78    80    1
    80    78    75    1
    81    13    10    1
    82    52    51    1
    83   128   129    2
    84   128   127    1
    85    77    76    2
    86    76    75    1
    87   129   130    1
    88    39    38    1
    89    39    40    1
    90    73    71   am
    91     6     7    2
    92     6     5    1
    93    72    71    2
    94    63    62    1
    95    63    64   ar
    96    75    74    1
    97    62    61    1
    98    51    50    1
    99   127   126    1
   100    71    70    1
   101     5     2    1
   102   126   125    1
   103    10    11    1
   104    10     9    1
   105    12    11    2
   106    41    40    2
   107     9     3   am
   108    61    58    1
   109   121   122    1
   110    50    47    1
   111     3     4    2
   112     3     2    1
   113    58    59    1
   114    58    57    1
   115    66    59   am
   116    66    67    1
   117     2     1    1
   118    70    67    1
   119   125   122    1
   120    59    60    2
   121    47    46    1
   122    47    48    1
   123   122   123    1
   124    67    68    1
   125    48    49    2
   126   123   124    2
   127    68    69    2
