@<TRIPOS>MOLECULE
tmp/4bljA00.pdb
 137 127 0 0 0
SMALL
GASTEIGER

@<TRIPOS>ATOM
      1  N        -11.3240   14.8310    8.5140 N.3    31  ASN31      -0.1225
      2  CA       -12.5960   14.7890    7.8120 C.3    31  ASN31       0.1785
      3  C        -13.0600   13.3600    7.5110 C.2    31  ASN31       0.2597
      4  O        -14.2580   13.0860    7.6420 O.2    31  ASN31      -0.2718
      5  CB       -12.5320   15.5810    6.5050 C.3    31  ASN31       0.1169
      6  CG       -13.8610   15.7200    5.8020 C.2    31  ASN31       0.2627
      7  OD1      -14.8260   16.2350    6.3740 O.2    31  ASN31      -0.2716
      8  ND2      -13.8910   15.2690    4.5430 N.am   31  ASN31      -0.0877
      9  N        -12.1640   12.4750    7.0990 N.am   32  ARG32      -0.1979
     10  CA       -12.5830   11.1360    6.7380 C.3    32  ARG32       0.1597
     11  C        -11.4670   10.1130    6.8780 C.2    32  ARG32       0.2287
     12  O        -10.2770   10.4900    6.8790 O.2    32  ARG32      -0.2864
     13  CB       -13.0650   11.1180    5.2870 C.3    32  ARG32       0.0334
     14  CG       -11.8840   11.3230    4.3170 C.3    32  ARG32       0.0492
     15  CD       -12.3400   11.4430    2.9050 C.3    32  ARG32       0.2205
     16  NE       -13.0190   10.2960    2.3420 N.pl3  32  ARG32      -0.0865
     17  CZ       -12.4180    9.2490    1.7780 C.cat  32  ARG32       0.5346
     18  NH1      -11.0990    9.1570    1.6980 N.pl3  32  ARG32       0.1354
     19  NH2      -13.1870    8.3390    1.2780 N.pl3  32  ARG32       0.1354
     20  N        -10.9130    0.2770    1.8710 N.3    36  ASP36      -0.1239
     21  CA       -11.5430   -0.2120    0.6400 C.3    36  ASP36       0.1674
     22  C        -10.9860   -1.5970    0.3260 C.2    36  ASP36       0.2266
     23  O         -9.8760   -1.7130   -0.1800 O.2    36  ASP36      -0.2867
     24  CB       -11.2970    0.7630   -0.5090 C.3    36  ASP36       0.1410
     25  CG       -12.0750    2.0320   -0.3650 C.2    36  ASP36       0.3668
     26  OD1      -13.2770    1.9960   -0.6450 O.co2  36  ASP36      -0.2456
     27  OD2      -11.5200    3.0840    0.0120 O.co2  36  ASP36      -0.2456
     28  N        -16.3950   -1.0330    1.5390 N.3    46  HIS46      -0.1241
     29  CA       -15.9590    0.3100    1.8290 C.3    46  HIS46       0.1621
     30  C        -16.4020    0.6700    3.2310 C.2    46  HIS46       0.2264
     31  O        -17.5870    0.5740    3.5150 O.2    46  HIS46      -0.2867
     32  CB       -16.6290    1.2550    0.8580 C.3    46  HIS46       0.0745
     33  CG       -16.4180    2.7310    0.9450 C.ar   46  HIS46       0.0817
     34  ND1      -15.2710    3.3690    0.6030 N.ar   46  HIS46      -0.2268
     35  CD2      -17.3240    3.6940    1.2540 C.ar   46  HIS46       0.1154
     36  CE1      -15.4720    4.6680    0.7100 C.ar   46  HIS46       0.1986
     37  NE2      -16.7120    4.9180    1.1190 N.ar   46  HIS46      -0.2212
     38  N        -16.1300    3.7220    5.8530 N.3    48  ASN48      -0.1240
     39  CA       -15.8180    5.1500    5.7070 C.3    48  ASN48       0.1653
     40  C        -16.3290    5.9890    6.8680 C.2    48  ASN48       0.2266
     41  O        -17.4050    6.5980    6.7990 O.2    48  ASN48      -0.2867
     42  CB       -16.4750    5.5840    4.3860 C.3    48  ASN48       0.1155
     43  CG       -16.3900    7.0510    4.0390 C.2    48  ASN48       0.2627
     44  OD1      -17.2820    7.6000    3.3890 O.2    48  ASN48      -0.2716
     45  ND2      -15.3170    7.7470    4.4270 N.am   48  ASN48      -0.0877
     46  N        -16.8130    9.2840    8.6340 N.3    50  ARG50      -0.1245
     47  CA       -16.9890   10.6970    8.2870 C.3    50  ARG50       0.1563
     48  C        -17.1170   11.5010    9.5690 C.2    50  ARG50       0.2260
     49  O        -18.0130   11.2470   10.3820 O.2    50  ARG50      -0.2867
     50  CB       -18.2280   10.8490    7.4160 C.3    50  ARG50       0.0307
     51  CG       -18.1320   10.0850    6.0990 C.3    50  ARG50       0.0489
     52  CD       -19.3810   10.3220    5.2830 C.3    50  ARG50       0.2205
     53  NE       -19.3000    9.4630    4.0850 N.pl3  50  ARG50      -0.0865
     54  CZ       -20.2130    9.4050    3.1320 C.cat  50  ARG50       0.5346
     55  NH1      -21.3020   10.1640    3.2060 N.pl3  50  ARG50       0.1354
     56  NH2      -20.0340    8.5640    2.1060 N.pl3  50  ARG50       0.1354
     57  N        -20.3310   15.1600    8.6760 N.3    53  GLU53      -0.1231
     58  CA       -21.3780   15.0770    7.6620 C.3    53  GLU53       0.1699
     59  C        -22.5720   15.8360    8.2440 C.2    53  GLU53       0.2592
     60  O        -23.2060   15.3140    9.1610 O.2    53  GLU53      -0.2718
     61  CB       -21.7730   13.6430    7.3300 C.3    53  GLU53       0.0402
     62  CG       -22.8020   13.6050    6.1910 C.3    53  GLU53       0.1161
     63  CD       -23.3700   12.2150    5.9730 C.2    53  GLU53       0.3649
     64  OE1      -24.0360   11.7200    6.9070 O.co2  53  GLU53      -0.2457
     65  OE2      -23.0910   11.6730    4.8540 O.co2  53  GLU53      -0.2457
     66  N        -22.8060   17.0720    7.8250 N.am   54  ASN54      -0.1974
     67  CA       -23.8500   17.9250    8.4170 C.3    54  ASN54       0.1688
     68  C        -23.6660   18.0020    9.9390 C.2    54  ASN54       0.2292
     69  O        -24.6470   17.9350   10.6820 O.2    54  ASN54      -0.2864
     70  CB       -25.2250   17.3950    8.0090 C.3    54  ASN54       0.1181
     71  CG       -25.3570   17.4930    6.4990 C.2    54  ASN54       0.2629
     72  OD1      -25.0580   18.5540    5.9080 O.2    54  ASN54      -0.2716
     73  ND2      -25.8240   16.4030    5.8900 N.am   54  ASN54      -0.0877
     74  N        -20.0470    5.1920    7.2770 N.3    60  VAL60      -0.1245
     75  CA       -20.7660    4.7230    6.0980 C.3    60  VAL60       0.1561
     76  C        -20.0750    3.5050    5.5330 C.2    60  VAL60       0.2260
     77  O        -18.8400    3.5270    5.2930 O.2    60  VAL60      -0.2867
     78  CB       -20.8200    5.8510    5.0400 C.3    60  VAL60       0.0252
     79  CG1      -21.4070    5.3200    3.7380 C.3    60  VAL60       0.0019
     80  CG2      -21.5740    7.0630    5.5250 C.3    60  VAL60       0.0019
     81  N        -20.4110    0.4930    2.3390 N.3    62  ASN62      -0.1240
     82  CA       -21.0650    0.2580    1.0570 C.3    62  ASN62       0.1653
     83  C        -20.1760   -0.6440    0.1940 C.2    62  ASN62       0.2266
     84  O        -19.0680   -1.0070    0.5950 O.2    62  ASN62      -0.2867
     85  CB       -21.3760    1.6020    0.3870 C.3    62  ASN62       0.1155
     86  CG       -22.5560    1.5690   -0.5600 C.2    62  ASN62       0.2627
     87  OD1      -23.0750    0.5160   -0.9360 O.2    62  ASN62      -0.2716
     88  ND2      -22.9590    2.7370   -1.0180 N.am   62  ASN62      -0.0877
     89  N        -19.1210   -1.0430   -4.1430 N.3    64  LYS64      -0.1245
     90  CA       -19.1250   -0.3880   -5.4610 C.3    64  LYS64       0.1561
     91  C        -18.9480   -1.4770   -6.5060 C.2    64  LYS64       0.2260
     92  O        -17.9590   -2.2250   -6.4880 O.2    64  LYS64      -0.2867
     93  CB       -18.0080    0.6600   -5.5520 C.3    64  LYS64       0.0271
     94  CG       -18.2130    1.6270   -6.7090 C.3    64  LYS64       0.0035
     95  CD       -17.2220    2.7770   -6.7340 C.3    64  LYS64       0.0206
     96  CE       -15.8290    2.3460   -7.0700 C.3    64  LYS64       0.1093
     97  NZ       -14.7850    3.4350   -7.0850 N.3    64  LYS64      -0.1314
     98  N        -22.0300    2.8650   -6.6510 N.3    69  TRP69      -0.1241
     99  CA       -22.2740    2.6040   -5.2390 C.3    69  TRP69       0.1605
    100  C        -23.6670    2.0390   -5.0390 C.2    69  TRP69       0.2264
    101  O        -24.6490    2.4480   -5.6660 O.2    69  TRP69      -0.2867
    102  CB       -22.1590    3.8990   -4.4070 C.3    69  TRP69       0.0550
    103  CG       -20.7200    4.3510   -4.3090 C.ar   69  TRP69       0.0003
    104  CD1      -20.1780    5.4600   -4.8780 C.ar   69  TRP69       0.0946
    105  CD2      -19.6470    3.7300   -3.5910 C.ar   69  TRP69       0.0152
    106  NE1      -18.8520    5.5430   -4.5590 N.ar   69  TRP69      -0.2442
    107  CE2      -18.4810    4.4950   -3.7690 C.ar   69  TRP69       0.0810
    108  CE3      -19.5730    2.5770   -2.8170 C.ar   69  TRP69       0.0012
    109  CZ2      -17.2670    4.1270   -3.1830 C.ar   69  TRP69       0.0191
    110  CZ3      -18.3680    2.2180   -2.2400 C.ar   69  TRP69       0.0001
    111  CH2      -17.2440    2.9960   -2.4360 C.ar   69  TRP69       0.0015
    112  N        -26.1750    2.2440    1.1580 N.3    72  GLU72      -0.1196
    113  CA       -25.3300    2.4040    2.3210 C.3    72  GLU72       0.1783
    114  C        -25.9060    1.7150    3.5480 C.2    72  GLU72       0.2306
    115  O        -27.1230    1.6800    3.7680 O.2    72  GLU72      -0.2863
    116  CB       -25.1340    3.8890    2.6300 C.2    72  GLU72       0.0071
    117  CG       -24.4050    4.6670    1.5800 C.2    72  GLU72       0.0834
    118  CD       -24.1620    6.1300    1.8250 C.2    72  GLU72       0.3877
    119  OE1      -24.7550    6.6970    2.7700 O.co2  72  GLU72      -0.2406
    120  OE2      -23.3410    6.7360    1.1170 O.co2  72  GLU72      -0.2406
    121  N        -25.3570    2.4060    7.5850 N.3    74  ARG74      -0.1245
    122  CA       -24.8300    3.4590    8.4330 C.3    74  ARG74       0.1563
    123  C        -24.8280    3.0360    9.9040 C.2    74  ARG74       0.2260
    124  O        -25.7690    2.4190   10.3560 O.2    74  ARG74      -0.2867
    125  CB       -25.6380    4.7470    8.2730 C.3    74  ARG74       0.0307
    126  CG       -25.2230    5.4040    6.9740 C.3    74  ARG74       0.0489
    127  CD       -26.1950    6.4980    6.5790 C.3    74  ARG74       0.2205
    128  NE       -25.5450    7.2690    5.4860 N.pl3  74  ARG74      -0.0865
    129  CZ       -25.0340    8.4670    5.5810 C.cat  74  ARG74       0.5346
    130  NH1      -25.0480    9.1970    6.7060 N.pl3  74  ARG74       0.1354
    131  NH2      -24.4710    9.0210    4.5380 N.pl3  74  ARG74       0.1354
    132  N         -6.8780    4.8210    3.3290 N.3   125  SER125     -0.1217
    133  CA        -6.7400    6.2100    2.9580 C.3   125  SER125      0.1889
    134  C         -7.4420    7.1170    3.9680 C.2   125  SER125      0.2288
    135  O         -8.1330    6.6670    4.8770 O.2   125  SER125     -0.2866
    136  CB        -7.3110    6.4150    1.5620 C.3   125  SER125      0.2089
    137  OG        -8.6950    6.0950    1.5230 O.3   125  SER125     -0.2183
@<TRIPOS>BOND
     1    97    96    1
     2    96    95    1
     3    95    94    1
     4    94    93    1
     5    98    99    1
     6    91    92    2
     7    91    90    1
     8   101   100    2
     9    93    90    1
    10    90    89    1
    11    99   100    1
    12    99   102    1
    13   104   106   ar
    14   104   103   ar
    15   106   107   ar
    16   102   103    1
    17   103   105   ar
    18   107   105   ar
    19   107   109   ar
    20   105   108   ar
    21   109   111   ar
    22   108   110   ar
    23   111   110   ar
    24    88    86   am
    25    87    86    2
    26    26    25   ar
    27    86    85    1
    28    24    25    1
    29    24    21    1
    30    25    27   ar
    31    23    22    2
    32    83    84    2
    33    83    82    1
    34    22    21    1
    35    85    82    1
    36    34    36   ar
    37    34    33   ar
    38    21    20    1
    39    36    37   ar
    40    32    33    1
    41    32    29    1
    42    33    35   ar
    43    82    81    1
    44   120   118   ar
    45    37    35   ar
    46   112   113    1
    47    19    17    1
    48   137   136    1
    49    28    29    1
    50   136   133    1
    51   117   118    1
    52   117   116    2
    53    18    17    1
    54    17    16    2
    55   118   119   ar
    56    29    30    1
    57    56    54    1
    58   113   116    1
    59   113   114    1
    60    16    15    1
    61    15    14    1
    62   133   132    1
    63   133   134    1
    64    54    55    1
    65    54    53    2
    66    30    31    2
    67    44    43    2
    68   114   115    2
    69    79    78    1
    70   134   135    2
    71    43    42    1
    72    43    45   am
    73    53    52    1
    74    14    13    1
    75    42    39    1
    76   131   129    1
    77     8     6   am
    78    65    63   ar
    79    78    80    1
    80    78    75    1
    81    52    51    1
    82    13    10    1
    83    77    76    2
    84   128   129    2
    85   128   127    1
    86    76    75    1
    87   129   130    1
    88    39    38    1
    89    39    40    1
    90     6     7    2
    91     6     5    1
    92    73    71   am
    93    72    71    2
    94    63    62    1
    95    63    64   ar
    96    75    74    1
    97    51    50    1
    98    62    61    1
    99    71    70    1
   100     5     2    1
   101   127   126    1
   102    10    11    1
   103    10     9    1
   104    41    40    2
   105    11    12    2
   106   126   125    1
   107     9     3   am
   108    61    58    1
   109    50    47    1
   110     3     4    2
   111     3     2    1
   112   121   122    1
   113    58    59    1
   114    58    57    1
   115     2     1    1
   116    66    59   am
   117    66    67    1
   118    70    67    1
   119    59    60    2
   120   125   122    1
   121    47    46    1
   122    47    48    1
   123    67    68    1
   124   122   123    1
   125    48    49    2
   126   123   124    2
   127    68    69    2
