@<TRIPOS>MOLECULE
tmp/4blrA02.pdb
 89 84 0 0 0
SMALL
GASTEIGER

@<TRIPOS>ATOM
      1  N         68.6580   49.3280   17.6930 N.3   234  ARG234     -0.1231
      2  CA        67.9530   49.7650   18.8960 C.3   234  ARG234      0.1694
      3  C         67.7100   48.6140   19.8670 C.2   234  ARG234      0.2592
      4  O         67.9850   48.7400   21.0600 O.2   234  ARG234     -0.2718
      5  CB        66.6120   50.4180   18.5300 C.3   234  ARG234      0.0321
      6  CG        65.8370   50.9670   19.7220 C.3   234  ARG234      0.0489
      7  CD        64.4260   51.3920   19.3450 C.3   234  ARG234      0.2205
      8  NE        64.4180   52.5680   18.4720 N.pl3 234  ARG234     -0.0865
      9  CZ        64.2320   52.5530   17.1510 C.cat 234  ARG234      0.5346
     10  NH1       64.0330   51.4160   16.4870 N.pl3 234  ARG234      0.1354
     11  NH2       64.2470   53.7010   16.4790 N.pl3 234  ARG234      0.1354
     12  N         67.1930   47.5010   19.3560 N.am  235  SER235     -0.1952
     13  CA        66.6150   46.4640   20.2130 C.3   235  SER235      0.1924
     14  C         67.3260   45.1100   20.2010 C.2   235  SER235      0.2314
     15  O         67.1250   44.3160   21.1220 O.2   235  SER235     -0.2863
     16  CB        65.1420   46.2640   19.8470 C.3   235  SER235      0.2116
     17  OG        65.0100   45.7660   18.5300 O.3   235  SER235     -0.2180
     18  N         74.4520   49.0400   26.8160 N.3   255  ARG255     -0.1245
     19  CA        73.4850   48.5590   27.8070 C.3   255  ARG255      0.1563
     20  C         74.2500   47.7720   28.8620 C.2   255  ARG255      0.2260
     21  O         74.8270   46.7280   28.5550 O.2   255  ARG255     -0.2867
     22  CB        72.4170   47.6690   27.1630 C.3   255  ARG255      0.0307
     23  CG        71.5470   48.3850   26.1430 C.3   255  ARG255      0.0489
     24  CD        70.4980   47.4620   25.5290 C.3   255  ARG255      0.2205
     25  NE        69.5400   46.9740   26.5180 N.pl3 255  ARG255     -0.0865
     26  CZ        68.4350   46.2890   26.2290 C.cat 255  ARG255      0.5346
     27  NH1       68.1210   46.0000   24.9690 N.pl3 255  ARG255      0.1354
     28  NH2       67.6330   45.8900   27.2100 N.pl3 255  ARG255      0.1354
     29  N         73.1090   46.3550   31.6450 N.3   257  GLY257     -0.1225
     30  CA        72.3790   45.2360   32.2170 C.3   257  GLY257      0.1811
     31  C         70.8910   45.4930   32.2620 C.2   257  GLY257      0.2280
     32  O         70.4200   46.5800   31.9200 O.2   257  GLY257     -0.2866
     33  N         67.5190   46.6120   33.1500 N.3   259  GLY259     -0.1210
     34  CA        67.0100   47.7540   33.9070 C.3   259  GLY259      0.1956
     35  C         68.0580   48.7520   34.3670 C.2   259  GLY259      0.2612
     36  O         67.7360   49.6820   35.1120 O.2   259  GLY259     -0.2717
     37  N         69.3040   48.5800   33.9250 N.am  260  LEU260     -0.1965
     38  CA        70.3920   49.4520   34.3550 C.3   260  LEU260      0.1728
     39  C         70.6120   50.5660   33.3360 C.2   260  LEU260      0.2616
     40  O         70.0200   50.5710   32.2570 O.2   260  LEU260     -0.2715
     41  CB        71.6770   48.6500   34.5730 C.3   260  LEU260      0.0311
     42  CG        71.6010   47.4660   35.5450 C.3   260  LEU260      0.0022
     43  CD1       72.9790   46.8450   35.7170 C.3   260  LEU260      0.0001
     44  CD2       71.0300   47.8640   36.8990 C.3   260  LEU260      0.0001
     45  N         71.4660   51.5170   33.6870 N.am  261  GLN261     -0.1963
     46  CA        71.6680   52.6930   32.8470 C.3   261  GLN261      0.1733
     47  C         72.4530   52.3580   31.5820 C.2   261  GLN261      0.2616
     48  O         73.3430   51.5040   31.6040 O.2   261  GLN261     -0.2715
     49  CB        72.3770   53.7860   33.6420 C.3   261  GLN261      0.0408
     50  CG        71.5290   54.3250   34.7810 C.3   261  GLN261      0.0908
     51  CD        72.2370   55.3920   35.5840 C.2   261  GLN261      0.2608
     52  OE1       73.3590   55.1840   36.0470 O.2   261  GLN261     -0.2717
     53  NE2       71.5880   56.5400   35.7580 N.am  261  GLN261     -0.0878
     54  N         72.0920   53.0060   30.4770 N.am  262  ARG262     -0.1977
     55  CA        72.8870   52.9430   29.2600 C.3   262  ARG262      0.1597
     56  C         73.9870   53.9970   29.3740 C.2   262  ARG262      0.2287
     57  O         73.7140   55.1570   29.7010 O.2   262  ARG262     -0.2864
     58  CB        72.0340   53.1810   28.0040 C.3   262  ARG262      0.0334
     59  CG        72.7490   52.8070   26.7050 C.3   262  ARG262      0.0492
     60  CD        71.9950   53.2360   25.4480 C.3   262  ARG262      0.2205
     61  NE        71.0540   52.2250   24.9560 N.pl3 262  ARG262     -0.0865
     62  CZ        71.3480   51.2200   24.1240 C.cat 262  ARG262      0.5346
     63  NH1       72.5880   51.0230   23.6580 N.pl3 262  ARG262      0.1354
     64  NH2       70.3800   50.3860   23.7560 N.pl3 262  ARG262      0.1354
     65  N         73.3340   57.9790   29.1410 N.3   285  ILE285     -0.1231
     66  CA        72.5540   58.4740   28.0040 C.3   285  ILE285      0.1692
     67  C         71.1020   58.0020   28.1230 C.2   285  ILE285      0.2592
     68  O         70.8400   56.8140   28.3240 O.2   285  ILE285     -0.2718
     69  CB        73.1760   58.0670   26.6410 C.3   285  ILE285      0.0266
     70  CG1       72.4280   58.7440   25.4870 C.3   285  ILE285      0.0019
     71  CG2       73.1960   56.5530   26.4520 C.3   285  ILE285      0.0020
     72  CD1       73.1960   58.7620   24.1830 C.3   285  ILE285      0.0001
     73  N         70.1660   58.9430   28.0130 N.am  286  LYS286     -0.1966
     74  CA        68.7420   58.6460   28.1740 C.3   286  LYS286      0.1728
     75  C         68.1160   58.2130   26.8490 C.2   286  LYS286      0.2616
     76  O         68.7450   58.3140   25.7930 O.2   286  LYS286     -0.2715
     77  CB        67.9950   59.8580   28.7370 C.3   286  LYS286      0.0311
     78  CG        68.6390   60.4780   29.9710 C.3   286  LYS286      0.0038
     79  CD        67.5920   60.9820   30.9540 C.3   286  LYS286      0.0206
     80  CE        68.1570   62.0120   31.9200 C.3   286  LYS286      0.1093
     81  NZ        68.1120   63.3860   31.3470 N.3   286  LYS286     -0.1314
     82  N         66.8730   57.7420   26.9150 N.am  287  ASN287     -0.1972
     83  CA        66.1860   57.1870   25.7440 C.3   287  ASN287      0.1688
     84  C         65.9760   58.2000   24.6130 C.2   287  ASN287      0.2292
     85  O         66.0840   57.8420   23.4410 O.2   287  ASN287     -0.2864
     86  CB        64.8320   56.5730   26.1410 C.3   287  ASN287      0.1181
     87  CG        64.9560   55.4140   27.1330 C.2   287  ASN287      0.2629
     88  OD1       63.9630   55.0150   27.7440 O.2   287  ASN287     -0.2716
     89  ND2       66.1620   54.8700   27.2980 N.am  287  ASN287     -0.0877
@<TRIPOS>BOND
     1    11     9    1
     2    10     9    1
     3     9     8    2
     4     1     2    1
     5     8     7    1
     6    17    16    1
     7     5     2    1
     8     5     6    1
     9     2     3    1
    10     7     6    1
    11    12     3   am
    12    12    13    1
    13    16    13    1
    14     3     4    2
    15    14    13    1
    16    14    15    2
    17    85    84    2
    18    63    62    1
    19    64    62    1
    20    62    61    2
    21    72    70    1
    22    84    83    1
    23    61    60    1
    24    27    26    1
    25    60    59    1
    26    70    69    1
    27    24    23    1
    28    24    25    1
    29    83    86    1
    30    83    82    1
    31    76    75    2
    32    86    87    1
    33    23    22    1
    34    26    25    2
    35    26    28    1
    36    71    69    1
    37    69    66    1
    38    59    58    1
    39    18    19    1
    40    75    82   am
    41    75    74    1
    42    87    89   am
    43    87    88    2
    44    22    19    1
    45    19    20    1
    46    66    67    1
    47    66    65    1
    48    58    55    1
    49    73    67   am
    50    73    74    1
    51    67    68    2
    52    74    77    1
    53    21    20    2
    54    77    78    1
    55    55    56    1
    56    55    54    1
    57    56    57    2
    58    78    79    1
    59    54    47   am
    60    79    80    1
    61    81    80    1
    62    47    48    2
    63    47    46    1
    64    29    30    1
    65    32    31    2
    66    30    31    1
    67    40    39    2
    68    46    49    1
    69    46    45    1
    70    33    34    1
    71    39    45   am
    72    39    38    1
    73    49    50    1
    74    34    35    1
    75    37    38    1
    76    37    35   am
    77    38    41    1
    78    35    36    2
    79    41    42    1
    80    50    51    1
    81    42    43    1
    82    42    44    1
    83    51    53   am
    84    51    52    2
