@<TRIPOS>MOLECULE
tmp/4blrA00.pdb
 99 93 0 0 0
SMALL
GASTEIGER

@<TRIPOS>ATOM
      1  N         81.8500   59.2480    6.3290 N.3   133  ASN133     -0.1225
      2  CA        83.0550   58.6990    5.6970 C.3   133  ASN133      0.1785
      3  C         83.8790   57.7370    6.5540 C.2   133  ASN133      0.2598
      4  O         84.7790   57.0720    6.0360 O.2   133  ASN133     -0.2718
      5  CB        83.9480   59.8430    5.2130 C.3   133  ASN133      0.1169
      6  CG        83.3050   60.6540    4.1040 C.2   133  ASN133      0.2627
      7  OD1       82.4890   60.1390    3.3380 O.2   133  ASN133     -0.2716
      8  ND2       83.6740   61.9290    4.0090 N.am  133  ASN133     -0.0877
      9  N         83.5840   57.6600    7.8510 N.am  134  SER134     -0.1938
     10  CA        84.3230   56.7670    8.7470 C.3   134  SER134      0.2055
     11  C         84.0020   55.3030    8.4260 C.2   134  SER134      0.2644
     12  O         82.8500   54.8860    8.4900 O.2   134  SER134     -0.2714
     13  CB        84.0060   57.0880   10.2090 C.3   134  SER134      0.2130
     14  OG        84.4320   58.4020   10.5320 O.3   134  SER134     -0.2179
     15  N         85.0300   54.5360    8.0690 N.am  135  GLY135     -0.1939
     16  CA        84.8540   53.1650    7.5990 C.3   135  GLY135      0.2014
     17  C         84.5290   52.1700    8.6990 C.2   135  GLY135      0.2639
     18  O         85.1750   52.1570    9.7470 O.2   135  GLY135     -0.2714
     19  N         83.5450   51.3100    8.4510 N.am  136  LYS136     -0.1963
     20  CA        83.1070   50.3380    9.4580 C.3   136  LYS136      0.1728
     21  C         84.0490   49.1380    9.5530 C.2   136  LYS136      0.2617
     22  O         84.3390   48.6610   10.6490 O.2   136  LYS136     -0.2715
     23  CB        81.6810   49.8460    9.1770 C.3   136  LYS136      0.0311
     24  CG        80.5640   50.8350    9.4790 C.3   136  LYS136      0.0038
     25  CD        80.6730   52.1430    8.7260 C.3   136  LYS136      0.0206
     26  CE        79.4620   53.0180    8.9490 C.3   136  LYS136      0.1093
     27  NZ        78.5130   52.9360    7.8160 N.3   136  LYS136     -0.1314
     28  N         84.5170   48.6440    8.4100 N.am  137  THR137     -0.1937
     29  CA        85.3920   47.4660    8.3930 C.3   137  THR137      0.2013
     30  C         86.6910   47.6830    9.2010 C.2   137  THR137      0.2484
     31  O         87.0610   46.8280   10.0090 O.2   137  THR137     -0.2729
     32  CB        85.6690   46.9860    6.9470 C.3   137  THR137      0.1807
     33  OG1       84.4720   46.4070    6.4110 O.3   137  THR137     -0.2208
     34  CG2       86.7760   45.9350    6.9050 C.3   137  THR137      0.0379
     35  N         87.3730   48.8270    9.0100 N.am  138  PRO138     -0.2726
     36  CA        88.5650   49.0690    9.8280 C.3   138  PRO138      0.1402
     37  C         88.2630   49.2060   11.3180 C.2   138  PRO138      0.2269
     38  O         89.0720   48.7840   12.1410 O.2   138  PRO138     -0.2865
     39  CB        89.1310   50.3770    9.2550 C.3   138  PRO138      0.0296
     40  CG        88.6240   50.4200    7.8560 C.3   138  PRO138      0.0237
     41  CD        87.2570   49.8050    7.9170 C.3   138  PRO138      0.0939
     42  N         80.3530   39.8030    1.2090 N.3   160  GLU160     -0.1245
     43  CA        81.0110   40.9080    0.5070 C.3   160  GLU160      0.1567
     44  C         81.6140   40.3790   -0.7940 C.2   160  GLU160      0.2260
     45  O         82.0280   39.2220   -0.8510 O.2   160  GLU160     -0.2867
     46  CB        82.1010   41.5390    1.3740 C.3   160  GLU160      0.0388
     47  CG        81.5970   42.1550    2.6760 C.3   160  GLU160      0.1160
     48  CD        80.8430   43.4580    2.4660 C.2   160  GLU160      0.3649
     49  OE1       81.3310   44.3180    1.7150 O.co2 160  GLU160     -0.2457
     50  OE2       79.7550   43.6280    3.0520 O.co2 160  GLU160     -0.2457
     51  N         81.9740   40.5100    9.5480 N.3   189  ASP189     -0.1239
     52  CA        81.9560   41.4330    8.4150 C.3   189  ASP189      0.1674
     53  C         81.3810   40.6680    7.2140 C.2   189  ASP189      0.2266
     54  O         82.0800   39.8450    6.6340 O.2   189  ASP189     -0.2867
     55  CB        83.3760   41.9380    8.1170 C.3   189  ASP189      0.1410
     56  CG        83.3900   43.2220    7.2950 C.2   189  ASP189      0.3668
     57  OD1       82.3040   43.7430    6.9570 O.co2 189  ASP189     -0.2456
     58  OD2       84.4950   43.7190    6.9860 O.co2 189  ASP189     -0.2456
     59  N         75.2000   42.8950    6.3320 N.3   192  LYS192     -0.1245
     60  CA        74.4020   43.4640    5.2310 C.3   192  LYS192      0.1561
     61  C         73.4420   42.4760    4.5730 C.2   192  LYS192      0.2260
     62  O         72.2770   42.8070    4.3430 O.2   192  LYS192     -0.2867
     63  CB        75.2970   44.0760    4.1410 C.3   192  LYS192      0.0271
     64  CG        75.4240   45.5890    4.2240 C.3   192  LYS192      0.0035
     65  CD        76.0860   46.1830    3.0000 C.3   192  LYS192      0.0206
     66  CE        77.5740   45.8460    2.9010 C.3   192  LYS192      0.1093
     67  NZ        78.3980   46.1660    4.1070 N.3   192  LYS192     -0.1314
     68  N         79.6330   44.5740   11.7040 N.3   221  SER221     -0.1217
     69  CA        79.4530   45.7510   10.8610 C.3   221  SER221      0.1889
     70  C         78.1090   45.6810   10.1540 C.2   221  SER221      0.2288
     71  O         77.6960   44.6160    9.6780 O.2   221  SER221     -0.2866
     72  CB        80.5780   45.8830    9.8320 C.3   221  SER221      0.2089
     73  OG        80.6770   44.7290    9.0220 O.3   221  SER221     -0.2183
     74  N         76.1510   48.3160    7.4200 N.3   223  ASN223     -0.1240
     75  CA        75.9730   49.5440    6.6490 C.3   223  ASN223      0.1653
     76  C         74.4960   49.7750    6.3320 C.2   223  ASN223      0.2266
     77  O         73.8400   48.8880    5.7840 O.2   223  ASN223     -0.2867
     78  CB        76.8000   49.5060    5.3590 C.3   223  ASN223      0.1155
     79  CG        77.9440   50.5030    5.3700 C.2   223  ASN223      0.2627
     80  OD1       79.0870   50.1510    5.6460 O.2   223  ASN223     -0.2716
     81  ND2       77.6320   51.7590    5.0820 N.am  223  ASN223     -0.0877
     82  N         94.3630   56.2210   11.0030 N.3   271  TYR271     -0.1241
     83  CA        94.9090   55.1690   10.1470 C.3   271  TYR271      0.1605
     84  C         96.4340   55.1820   10.1380 C.2   271  TYR271      0.2264
     85  O         97.0590   56.2490   10.1730 O.2   271  TYR271     -0.2867
     86  CB        94.3970   55.3270    8.7110 C.3   271  TYR271      0.0534
     87  CG        92.9420   54.9660    8.5260 C.ar  271  TYR271     -0.0201
     88  CD1       92.5470   53.6400    8.4050 C.ar  271  TYR271     -0.0009
     89  CD2       91.9590   55.9510    8.4570 C.ar  271  TYR271     -0.0009
     90  CE1       91.2150   53.3000    8.2300 C.ar  271  TYR271      0.0417
     91  CE2       90.6250   55.6190    8.2810 C.ar  271  TYR271      0.0417
     92  CZ        90.2590   54.2910    8.1700 C.ar  271  TYR271      0.1957
     93  OH        88.9390   53.9530    7.9930 O.3   271  TYR271     -0.2866
     94  N         95.8250   50.9560    5.7410 N.3   275  SER275     -0.1217
     95  CA        94.5110   51.2030    6.3250 C.3   275  SER275      0.1889
     96  C         94.2550   50.5070    7.6640 C.2   275  SER275      0.2288
     97  O         93.1050   50.3000    8.0300 O.2   275  SER275     -0.2866
     98  CB        93.4140   50.8290    5.3260 C.3   275  SER275      0.2089
     99  OG        93.6720   51.4340    4.0690 O.3   275  SER275     -0.2183
@<TRIPOS>BOND
     1    45    44    2
     2    44    43    1
     3    43    42    1
     4    43    46    1
     5    46    47    1
     6    49    48   ar
     7    48    47    1
     8    48    50   ar
     9    66    65    1
    10    66    67    1
    11    65    64    1
    12     7     6    2
    13     8     6   am
    14    99    98    1
    15     6     5    1
    16    63    64    1
    17    63    60    1
    18    62    61    2
    19    61    60    1
    20    81    79   am
    21     5     2    1
    22    60    59    1
    23    98    95    1
    24    78    79    1
    25    78    75    1
    26    79    80    2
    27     2     1    1
    28     2     3    1
    29    94    95    1
    30    77    76    2
    31     4     3    2
    32    95    96    1
    33    76    75    1
    34    33    32    1
    35     3     9   am
    36    54    53    2
    37    75    74    1
    38    34    32    1
    39    32    29    1
    40    57    56   ar
    41    58    56   ar
    42    53    52    1
    43    56    55    1
    44    16    15    1
    45    16    17    1
    46    96    97    2
    47    27    26    1
    48     9    10    1
    49    40    41    1
    50    40    39    1
    51    41    35    1
    52    93    92    1
    53    15    11   am
    54    55    52    1
    55    92    90   ar
    56    92    91   ar
    57    90    88   ar
    58    91    89   ar
    59    29    28    1
    60    29    30    1
    61    88    87   ar
    62    28    21   am
    63    52    51    1
    64    11    12    2
    65    11    10    1
    66    19    17   am
    67    19    20    1
    68    89    87   ar
    69    87    86    1
    70    17    18    2
    71    86    83    1
    72    25    26    1
    73    25    24    1
    74    10    13    1
    75    35    30   am
    76    35    36    1
    77    73    72    1
    78    23    20    1
    79    23    24    1
    80    30    31    2
    81    39    36    1
    82    20    21    1
    83    21    22    2
    84    71    70    2
    85    36    37    1
    86    72    69    1
    87    84    83    1
    88    84    85    2
    89    83    82    1
    90    70    69    1
    91    13    14    1
    92    69    68    1
    93    37    38    2
