@<TRIPOS>MOLECULE
tmp/4blvA01.pdb
 80 76 0 0 0
SMALL
GASTEIGER

@<TRIPOS>ATOM
      1  N         21.8800  -15.5090   -8.1560 N.3   198  VAL198     -0.1231
      2  CA        21.9360  -14.9010   -9.4800 C.3   198  VAL198      0.1692
      3  C         22.9340  -15.6980  -10.3160 C.2   198  VAL198      0.2592
      4  O         24.1320  -15.5080  -10.1940 O.2   198  VAL198     -0.2718
      5  CB        22.3160  -13.4000   -9.4050 C.3   198  VAL198      0.0266
      6  CG1       22.4340  -12.7840  -10.8170 C.3   198  VAL198      0.0020
      7  CG2       21.2940  -12.6420   -8.5810 C.3   198  VAL198      0.0020
      8  N         22.4340  -16.6160  -11.1330 N.am  199  VAL199     -0.1966
      9  CA        23.2610  -17.3180  -12.1070 C.3   199  VAL199      0.1727
     10  C         22.9980  -16.7000  -13.4700 C.2   199  VAL199      0.2616
     11  O         23.9210  -16.2680  -14.1620 O.2   199  VAL199     -0.2715
     12  CB        22.9760  -18.8220  -12.1370 C.3   199  VAL199      0.0290
     13  CG1       23.7610  -19.4770  -13.2680 C.3   199  VAL199      0.0023
     14  CG2       23.3420  -19.4530  -10.7930 C.3   199  VAL199      0.0023
     15  N         21.7270  -16.6750  -13.8480 N.am  200  LEU200     -0.1963
     16  CA        21.2760  -15.9260  -15.0140 C.3   200  LEU200      0.1728
     17  C         20.3280  -14.8160  -14.5710 C.2   200  LEU200      0.2616
     18  O         19.2360  -15.0940  -14.0760 O.2   200  LEU200     -0.2715
     19  CB        20.5700  -16.8450  -16.0180 C.3   200  LEU200      0.0311
     20  CG        21.4460  -17.8410  -16.7840 C.3   200  LEU200      0.0022
     21  CD1       20.5920  -18.7430  -17.6570 C.3   200  LEU200      0.0001
     22  CD2       22.4710  -17.1100  -17.6310 C.3   200  LEU200      0.0001
     23  N         20.7380  -13.5620  -14.7580 N.am  201  ARG201     -0.1963
     24  CA        19.9310  -12.4170  -14.3400 C.3   201  ARG201      0.1729
     25  C         18.5230  -12.5500  -14.9090 C.2   201  ARG201      0.2616
     26  O         17.5570  -12.1490  -14.2550 O.2   201  ARG201     -0.2715
     27  CB        20.5770  -11.0950  -14.7600 C.3   201  ARG201      0.0348
     28  CG        19.7600   -9.8410  -14.4520 C.3   201  ARG201      0.0492
     29  CD        19.4940   -9.6890  -12.9580 C.3   201  ARG201      0.2205
     30  NE        20.7080   -9.4790  -12.1680 N.pl3 201  ARG201     -0.0865
     31  CZ        20.7150   -9.3120  -10.8440 C.cat 201  ARG201      0.5346
     32  NH1       19.5820   -9.3310  -10.1420 N.pl3 201  ARG201      0.1354
     33  NH2       21.8560   -9.1350  -10.2110 N.pl3 201  ARG201      0.1354
     34  N         18.4200  -13.1910  -16.0780 N.am  202  GLN202     -0.1977
     35  CA        17.1520  -13.3890  -16.7940 C.3   202  GLN202      0.1601
     36  C         16.0930  -14.0080  -15.9230 C.2   202  GLN202      0.2287
     37  O         14.9520  -13.5510  -15.8670 O.2   202  GLN202     -0.2864
     38  CB        17.3190  -14.3850  -17.9490 C.3   202  GLN202      0.0394
     39  CG        16.1730  -14.6010  -18.8630 C.3   202  GLN202      0.0908
     40  CD        16.5440  -15.4610  -20.0190 C.2   202  GLN202      0.2608
     41  OE1       17.7110  -15.8280  -20.1820 O.2   202  GLN202     -0.2717
     42  NE2       15.5610  -15.8150  -20.8410 N.am  202  GLN202     -0.0878
     43  N         14.8230  -11.7240  -13.1020 N.3   205  LYS205     -0.1245
     44  CA        13.8920  -10.7010  -13.5820 C.3   205  LYS205      0.1561
     45  C         12.4950  -11.2790  -13.7440 C.2   205  LYS205      0.2260
     46  O         11.5090  -10.6890  -13.3000 O.2   205  LYS205     -0.2867
     47  CB        14.3610  -10.0960  -14.9010 C.3   205  LYS205      0.0271
     48  CG        15.5610   -9.1910  -14.7680 C.3   205  LYS205      0.0035
     49  CD        15.8810   -8.5130  -16.0890 C.3   205  LYS205      0.0206
     50  CE        17.0990   -7.6090  -15.9600 C.3   205  LYS205      0.1093
     51  NZ        17.5520   -7.1050  -17.2850 N.3   205  LYS205     -0.1314
     52  N         27.0920   -9.1660  -13.1440 N.3   229  ASP229     -0.1225
     53  CA        26.3170  -10.1800  -13.8430 C.3   229  ASP229      0.1805
     54  C         27.0810  -10.8000  -15.0160 C.2   229  ASP229      0.2598
     55  O         27.7710  -10.1320  -15.7430 O.2   229  ASP229     -0.2718
     56  CB        25.0020   -9.6400  -14.4220 C.3   229  ASP229      0.1424
     57  CG        23.9550   -9.2260  -13.3710 C.2   229  ASP229      0.3668
     58  OD1       24.1440   -9.4060  -12.1750 O.co2 229  ASP229     -0.2456
     59  OD2       22.9540   -8.6870  -13.8020 O.co2 229  ASP229     -0.2456
     60  N         26.9600  -12.0970  -15.1760 N.am  230  SER230     -0.1938
     61  CA        27.4630  -12.7480  -16.3500 C.3   230  SER230      0.2055
     62  C         26.7000  -14.0170  -16.6580 C.2   230  SER230      0.2643
     63  O         25.8850  -14.4320  -15.9330 O.2   230  SER230     -0.2714
     64  CB        28.9810  -12.9530  -16.2810 C.3   230  SER230      0.2130
     65  OG        29.3850  -14.1020  -16.9310 O.3   230  SER230     -0.2179
     66  N         26.9870  -14.6000  -17.8180 N.am  231  ASP231     -0.1971
     67  CA        26.2860  -15.7980  -18.2700 C.3   231  ASP231      0.1709
     68  C         27.2490  -16.9700  -18.4080 C.2   231  ASP231      0.2293
     69  O         26.9660  -17.9500  -19.0980 O.2   231  ASP231     -0.2864
     70  CB        25.5800  -15.5370  -19.6020 C.3   231  ASP231      0.1436
     71  CG        26.5050  -14.9390  -20.6440 C.2   231  ASP231      0.3671
     72  OD1       27.7210  -14.8460  -20.3780 O.co2 231  ASP231     -0.2456
     73  OD2       26.0150  -14.5610  -21.7290 O.co2 231  ASP231     -0.2456
     74  N         27.0840  -15.1880   -9.3440 N.3   236  THR236     -0.1218
     75  CA        27.8340  -13.9530   -9.1650 C.3   236  THR236      0.1862
     76  C         27.2590  -13.0780   -8.0440 C.2   236  THR236      0.2287
     77  O         27.8520  -12.0690   -7.6640 O.2   236  THR236     -0.2866
     78  CB        27.8510  -13.1600  -10.4720 C.3   236  THR236      0.1770
     79  OG1       26.5030  -12.9140  -10.8740 O.3   236  THR236     -0.2211
     80  CG2       28.5720  -13.9790  -11.5710 C.3   236  THR236      0.0375
@<TRIPOS>BOND
     1    73    71   ar
     2    42    40   am
     3    71    72   ar
     4    71    70    1
     5    41    40    2
     6    40    39    1
     7    70    67    1
     8    69    68    2
     9    39    38    1
    10    68    67    1
    11    67    66    1
    12    38    35    1
    13    66    62   am
    14    21    20    1
    15    22    20    1
    16    51    50    1
    17    65    64    1
    18    35    34    1
    19    35    36    1
    20    20    19    1
    21    62    61    1
    22    62    63    2
    23    61    64    1
    24    61    60    1
    25    49    50    1
    26    49    48    1
    27    34    25   am
    28    19    16    1
    29    36    37    2
    30    55    54    2
    31    60    54   am
    32    54    53    1
    33    16    17    1
    34    16    15    1
    35    25    24    1
    36    25    26    2
    37    47    48    1
    38    47    44    1
    39    27    28    1
    40    27    24    1
    41    23    17   am
    42    23    24    1
    43    17    18    2
    44    28    29    1
    45    56    53    1
    46    56    57    1
    47    11    10    2
    48    15    10   am
    49    53    52    1
    50    59    57   ar
    51    45    44    1
    52    45    46    2
    53    44    43    1
    54    10     9    1
    55    57    58   ar
    56    13    12    1
    57    29    30    1
    58    30    31    2
    59    12     9    1
    60    12    14    1
    61     9     8    1
    62    80    78    1
    63     8     3   am
    64    79    78    1
    65    31    33    1
    66    31    32    1
    67     6     5    1
    68    78    75    1
    69     3     4    2
    70     3     2    1
    71     2     5    1
    72     2     1    1
    73     5     7    1
    74    74    75    1
    75    75    76    1
    76    76    77    2
