@<TRIPOS>MOLECULE
tmp/4blwA00.pdb
 160 158 0 0 0
SMALL
GASTEIGER

@<TRIPOS>ATOM
      1  N         21.6440  -32.2900   -4.9130 N.3     4  TYR4       -0.1241
      2  CA        22.2650  -31.1280   -4.2810 C.3     4  TYR4        0.1605
      3  C         22.7220  -31.4390   -2.8680 C.2     4  TYR4        0.2264
      4  O         21.9870  -32.0330   -2.0850 O.2     4  TYR4       -0.2867
      5  CB        21.2860  -29.9370   -4.2850 C.3     4  TYR4        0.0534
      6  CG        21.7720  -28.6880   -3.5540 C.ar    4  TYR4       -0.0201
      7  CD1       21.5830  -28.5440   -2.1840 C.ar    4  TYR4       -0.0009
      8  CD2       22.4160  -27.6580   -4.2360 C.ar    4  TYR4       -0.0009
      9  CE1       22.0110  -27.3980   -1.5060 C.ar    4  TYR4        0.0417
     10  CE2       22.8580  -26.5090   -3.5670 C.ar    4  TYR4        0.0417
     11  CZ        22.6490  -26.3910   -2.2100 C.ar    4  TYR4        0.1957
     12  OH        23.0770  -25.2720   -1.5450 O.3     4  TYR4       -0.2866
     13  N         24.2670  -29.3080    0.3880 N.3     6  HIS6       -0.1241
     14  CA        24.5920  -27.9630    0.8660 C.3     6  HIS6        0.1621
     15  C         26.0000  -27.8450    1.4280 C.2     6  HIS6        0.2264
     16  O         26.5640  -26.7480    1.4650 O.2     6  HIS6       -0.2867
     17  CB        23.5810  -27.4340    1.8770 C.3     6  HIS6        0.0745
     18  CG        23.6680  -25.9520    2.0700 C.ar    6  HIS6        0.0817
     19  ND1       23.4560  -25.0650    1.0370 N.ar    6  HIS6       -0.2268
     20  CD2       23.9560  -25.2010    3.1610 C.ar    6  HIS6        0.1154
     21  CE1       23.6050  -23.8250    1.4840 C.ar    6  HIS6        0.1986
     22  NE2       23.9050  -23.8820    2.7720 N.ar    6  HIS6       -0.2212
     23  N         28.5130  -25.6330   -0.0990 N.3     9  HIS9       -0.1241
     24  CA        28.3190  -24.1960   -0.1110 C.3     9  HIS9        0.1621
     25  C         28.1620  -23.6140    1.2770 C.2     9  HIS9        0.2264
     26  O         28.1270  -22.3940    1.4290 O.2     9  HIS9       -0.2867
     27  CB        27.0670  -23.8480   -0.9220 C.3     9  HIS9        0.0745
     28  CG        27.1100  -24.3410   -2.3310 C.ar    9  HIS9        0.0817
     29  ND1       28.0180  -23.8670   -3.2540 N.ar    9  HIS9       -0.2268
     30  CD2       26.3570  -25.2620   -2.9790 C.ar    9  HIS9        0.1154
     31  CE1       27.8230  -24.4750   -4.4110 C.ar    9  HIS9        0.1986
     32  NE2       26.8170  -25.3210   -4.2730 N.ar    9  HIS9       -0.2212
     33  N         29.2630  -20.0230    2.8110 N.3    12  ASN12      -0.1225
     34  CA        29.7500  -19.1240    1.7690 C.3    12  ASN12       0.1785
     35  C         29.0990  -17.7400    1.8710 C.2    12  ASN12       0.2597
     36  O         28.3350  -17.4850    2.8060 O.2    12  ASN12      -0.2718
     37  CB        29.5860  -19.7410    0.3770 C.3    12  ASN12       0.1169
     38  CG        28.1250  -19.8400   -0.0630 C.2    12  ASN12       0.2627
     39  OD1       27.2110  -19.3820    0.6340 O.2    12  ASN12      -0.2716
     40  ND2       27.9040  -20.4340   -1.2300 N.am   12  ASN12      -0.0877
     41  N         29.3820  -16.8520    0.9170 N.am   13  HIS13      -0.1961
     42  CA        28.8760  -15.4870    1.0130 C.3    13  HIS13       0.1787
     43  C         27.3360  -15.4520    0.9870 C.2    13  HIS13       0.2620
     44  O         26.7290  -14.5620    1.5930 O.2    13  HIS13      -0.2715
     45  CB        29.4500  -14.6040   -0.1060 C.3    13  HIS13       0.0785
     46  CG        29.0030  -15.0080   -1.4750 C.ar   13  HIS13       0.0821
     47  ND1       27.8590  -14.5110   -2.0640 N.ar   13  HIS13      -0.2267
     48  CD2       29.5250  -15.8960   -2.3550 C.ar   13  HIS13       0.1154
     49  CE1       27.7130  -15.0540   -3.2590 C.ar   13  HIS13       0.1986
     50  NE2       28.7120  -15.8980   -3.4590 N.ar   13  HIS13      -0.2212
     51  N         26.7060  -16.4030    0.2910 N.am   14  ALA14      -0.1963
     52  CA        25.2250  -16.4410    0.2300 C.3    14  ALA14       0.1728
     53  C         24.6430  -16.8040    1.5960 C.2    14  ALA14       0.2616
     54  O         23.6680  -16.2210    2.0450 O.2    14  ALA14      -0.2715
     55  CB        24.7420  -17.4470   -0.8330 C.3    14  ALA14       0.0334
     56  N         25.2580  -17.7790    2.2580 N.am   15  ASP15      -0.1971
     57  CA        24.8370  -18.1610    3.6020 C.3    15  ASP15       0.1709
     58  C         25.0220  -17.0150    4.5940 C.2    15  ASP15       0.2293
     59  O         24.1560  -16.7790    5.4380 O.2    15  ASP15      -0.2864
     60  CB        25.6070  -19.4030    4.0770 C.3    15  ASP15       0.1436
     61  CG        24.8990  -20.7170    3.7290 C.2    15  ASP15       0.3671
     62  OD1       23.8460  -20.7000    3.0390 O.co2  15  ASP15      -0.2456
     63  OD2       25.4090  -21.7850    4.1550 O.co2  15  ASP15      -0.2456
     64  N         22.1530  -14.6130    3.9140 N.3    18  LYS18      -0.1245
     65  CA        20.8890  -15.2710    4.2620 C.3    18  LYS18       0.1561
     66  C         20.6920  -15.3210    5.7790 C.2    18  LYS18       0.2260
     67  O         19.6330  -14.9920    6.2980 O.2    18  LYS18      -0.2867
     68  CB        20.8960  -16.6950    3.7040 C.3    18  LYS18       0.0271
     69  CG        19.6620  -17.5190    4.0060 C.3    18  LYS18       0.0035
     70  CD        19.9670  -19.0240    3.8170 C.3    18  LYS18       0.0206
     71  CE        20.5960  -19.3110    2.4530 C.3    18  LYS18       0.1093
     72  NZ        21.0080  -20.7520    2.3010 N.3    18  LYS18      -0.1314
     73  N         34.4640  -22.6340   -0.3350 N.3    60  GLU60      -0.1245
     74  CA        33.6310  -21.4270   -0.3900 C.3    60  GLU60       0.1567
     75  C         33.4670  -20.7240    0.9550 C.2    60  GLU60       0.2260
     76  O         33.4070  -19.5070    1.0030 O.2    60  GLU60      -0.2867
     77  CB        32.2650  -21.7090   -1.0370 C.3    60  GLU60       0.0388
     78  CG        32.3290  -21.9310   -2.5530 C.3    60  GLU60       0.1160
     79  CD        30.9550  -22.2090   -3.1900 C.2    60  GLU60       0.3649
     80  OE1       29.9100  -22.0270   -2.5220 O.co2  60  GLU60      -0.2457
     81  OE2       30.9210  -22.6420   -4.3560 O.co2  60  GLU60      -0.2457
     82  N         17.2830  -25.1640   -3.2400 N.3   166  PRO166     -0.2102
     83  CA        18.5820  -25.2020   -3.9140 C.3   166  PRO166      0.1504
     84  C         18.4630  -24.8050   -5.3810 C.2   166  PRO166      0.2576
     85  O         19.4770  -24.5330   -5.9810 O.2   166  PRO166     -0.2718
     86  CB        18.9840  -26.6820   -3.8130 C.3   166  PRO166      0.0282
     87  CG        17.6420  -27.4050   -3.8780 C.3   166  PRO166      0.0208
     88  CD        16.6920  -26.5110   -3.0830 C.3   166  PRO166      0.0893
     89  N         17.2490  -24.7720   -5.9390 N.am  167  TYR167     -0.1963
     90  CA        17.0610  -24.4920   -7.3730 C.3   167  TYR167      0.1771
     91  C         17.8140  -25.4940   -8.2680 C.2   167  TYR167      0.2619
     92  O         18.2590  -25.1650   -9.3690 O.2   167  TYR167     -0.2715
     93  CB        17.4270  -23.0390   -7.7270 C.3   167  TYR167      0.0574
     94  CG        16.6590  -22.0050   -6.9170 C.ar  167  TYR167     -0.0198
     95  CD1       17.0660  -21.6560   -5.6410 C.ar  167  TYR167     -0.0009
     96  CD2       15.5310  -21.3940   -7.4300 C.ar  167  TYR167     -0.0009
     97  CE1       16.3690  -20.7220   -4.8940 C.ar  167  TYR167      0.0417
     98  CE2       14.8210  -20.4580   -6.6910 C.ar  167  TYR167      0.0417
     99  CZ        15.2540  -20.1220   -5.4250 C.ar  167  TYR167      0.1957
    100  OH        14.5610  -19.1910   -4.6810 O.3   167  TYR167     -0.2866
    101  N         17.9670  -26.7180   -7.7770 N.am  168  GLU168     -0.1977
    102  CA        18.4480  -27.8100   -8.6120 C.3   168  GLU168      0.1602
    103  C         17.4200  -28.1050   -9.7230 C.2   168  GLU168      0.2287
    104  O         17.7760  -28.2470  -10.8900 O.2   168  GLU168     -0.2864
    105  CB        18.6830  -29.0530   -7.7570 C.3   168  GLU168      0.0415
    106  CG        19.0900  -30.2900   -8.5420 C.3   168  GLU168      0.1163
    107  CD        19.3360  -31.5040   -7.6540 C.2   168  GLU168      0.3649
    108  OE1       19.2760  -31.3800   -6.4100 O.co2 168  GLU168     -0.2457
    109  OE2       19.5770  -32.5910   -8.2080 O.co2 168  GLU168     -0.2457
    110  N         15.1790  -16.9100   -0.2130 N.3   195  TRP195     -0.1241
    111  CA        16.5570  -16.8360   -0.7230 C.3   195  TRP195      0.1605
    112  C         16.5740  -17.2400   -2.1890 C.2   195  TRP195      0.2264
    113  O         15.8390  -18.1700   -2.6000 O.2   195  TRP195     -0.2867
    114  CB        17.4970  -17.7610    0.0550 C.3   195  TRP195      0.0550
    115  CG        18.9110  -17.7080   -0.4720 C.ar  195  TRP195      0.0003
    116  CD1       19.8800  -16.7990   -0.1320 C.ar  195  TRP195      0.0946
    117  CD2       19.5100  -18.5850   -1.4380 C.ar  195  TRP195      0.0152
    118  NE1       21.0390  -17.0620   -0.8180 N.ar  195  TRP195     -0.2442
    119  CE2       20.8400  -18.1540   -1.6290 C.ar  195  TRP195      0.0810
    120  CE3       19.0460  -19.6800   -2.1740 C.ar  195  TRP195      0.0012
    121  CZ2       21.7120  -18.7770   -2.5200 C.ar  195  TRP195      0.0191
    122  CZ3       19.9240  -20.3180   -3.0440 C.ar  195  TRP195      0.0001
    123  CH2       21.2410  -19.8570   -3.2140 C.ar  195  TRP195      0.0015
    124  N         19.5000  -17.5400   -5.7620 N.3   197  PRO197     -0.2116
    125  CA        20.8160  -17.4480   -6.3770 C.3   197  PRO197      0.1372
    126  C         20.7260  -16.6460   -7.6770 C.2   197  PRO197      0.2244
    127  O         19.6880  -16.6630   -8.3450 O.2   197  PRO197     -0.2868
    128  CB        21.1260  -18.9100   -6.7110 C.3   197  PRO197      0.0268
    129  CG        19.7820  -19.4690   -7.0700 C.3   197  PRO197      0.0207
    130  CD        18.7780  -18.7530   -6.2060 C.3   197  PRO197      0.0892
    131  N         22.3500  -17.0720  -10.8780 N.3   199  VAL199     -0.1245
    132  CA        23.1290  -17.8020  -11.8710 C.3   199  VAL199      0.1561
    133  C         22.8080  -17.2310  -13.2400 C.2   199  VAL199      0.2260
    134  O         23.6890  -16.9980  -14.0580 O.2   199  VAL199     -0.2867
    135  CB        22.8520  -19.3220  -11.8330 C.3   199  VAL199      0.0252
    136  CG1       23.5310  -20.0220  -13.0030 C.3   199  VAL199      0.0019
    137  CG2       23.3380  -19.9120  -10.5220 C.3   199  VAL199      0.0019
    138  N         28.8950  -20.1440  -16.1870 N.3   233  ARG233     -0.1231
    139  CA        28.2170  -21.1450  -15.3560 C.3   233  ARG233      0.1694
    140  C         27.7850  -20.6860  -13.9530 C.2   233  ARG233      0.2593
    141  O         26.6610  -20.9610  -13.5290 O.2   233  ARG233     -0.2718
    142  CB        29.0140  -22.4600  -15.2880 C.3   233  ARG233      0.0321
    143  CG        28.7770  -23.3910  -16.4800 C.3   233  ARG233      0.0489
    144  CD        29.2260  -24.8250  -16.1870 C.3   233  ARG233      0.2205
    145  NE        30.1430  -25.3270  -17.2080 N.pl3 233  ARG233     -0.0865
    146  CZ        30.4880  -26.6060  -17.3520 C.cat 233  ARG233      0.5346
    147  NH1       30.0130  -27.5270  -16.5220 N.pl3 233  ARG233      0.1354
    148  NH2       31.3230  -26.9640  -18.3200 N.pl3 233  ARG233      0.1354
    149  N         28.6870  -20.0290  -13.2280 N.am  234  GLY234     -0.1942
    150  CA        28.5430  -19.8180  -11.7950 C.3   234  GLY234      0.2014
    151  C         27.5530  -18.8070  -11.2350 C.2   234  GLY234      0.2638
    152  O         27.0100  -17.9690  -11.9540 O.2   234  GLY234     -0.2714
    153  N         27.3340  -18.9030   -9.9220 N.am  235  MET235     -0.1976
    154  CA        26.4960  -17.9860   -9.1690 C.3   235  MET235      0.1605
    155  C         27.3620  -16.7720   -8.7930 C.2   235  MET235      0.2287
    156  O         28.3540  -16.8970   -8.0810 O.2   235  MET235     -0.2864
    157  CB        25.9540  -18.6800   -7.9210 C.3   235  MET235      0.0413
    158  CG        24.8870  -17.8880   -7.1570 C.3   235  MET235      0.0598
    159  SD        24.5240  -18.5940   -5.5360 S.3   235  MET235     -0.1393
    160  CE        25.7370  -17.7660   -4.5000 C.3   235  MET235      0.0692
@<TRIPOS>BOND
     1   148   146    1
     2   146   145    2
     3   146   147    1
     4   145   144    1
     5   143   144    1
     6   143   142    1
     7   138   139    1
     8   139   142    1
     9   139   140    1
    10   134   133    2
    11   140   141    2
    12   140   149   am
    13   133   132    1
    14   149   150    1
    15   136   135    1
    16   152   151    2
    17   132   135    1
    18   132   131    1
    19   135   137    1
    20   150   151    1
    21   151   153   am
    22   104   103    2
    23   153   154    1
    24   103   102    1
    25    92    91    2
    26   154   155    1
    27   154   157    1
    28   155   156    2
    29   102   101    1
    30   102   105    1
    31   106   105    1
    32   106   107    1
    33   127   126    2
    34    91   101   am
    35    91    90    1
    36   109   107   ar
    37   157   158    1
    38    93    90    1
    39    93    94    1
    40   126   125    1
    41   107   108   ar
    42    96    94   ar
    43    96    98   ar
    44    90    89    1
    45   158   159    1
    46   129   128    1
    47   129   130    1
    48    94    95   ar
    49   128   125    1
    50    98    99   ar
    51   125   124    1
    52   130   124    1
    53    85    84    2
    54    89    84   am
    55    95    97   ar
    56   159   160    1
    57    99    97   ar
    58    99   100    1
    59    84    83    1
    60     1     2    1
    61    31    32   ar
    62    31    29   ar
    63    81    79   ar
    64     5     2    1
    65     5     6    1
    66     2     3    1
    67    32    30   ar
    68     8    10   ar
    69     8     6   ar
    70    83    86    1
    71    83    82    1
    72    87    86    1
    73    87    88    1
    74    10    11   ar
    75     6     7   ar
    76    50    49   ar
    77    50    48   ar
    78    49    47   ar
    79    29    28   ar
    80    82    88    1
    81   123   122   ar
    82   123   121   ar
    83    79    78    1
    84    79    80   ar
    85   122   120   ar
    86    30    28   ar
    87     3     4    2
    88   113   112    2
    89    78    77    1
    90   121   119   ar
    91    48    46   ar
    92    28    27    1
    93    11    12    1
    94    11     9   ar
    95   112   111    1
    96     7     9   ar
    97   120   117   ar
    98    47    46   ar
    99   119   117   ar
   100   119   118   ar
   101    46    45    1
   102   117   115   ar
   103    40    38   am
   104    77    74    1
   105    27    24    1
   106    55    52    1
   107   118   116   ar
   108   111   110    1
   109   111   114    1
   110   115   116   ar
   111   115   114    1
   112    74    73    1
   113    74    75    1
   114    24    23    1
   115    24    25    1
   116    45    42    1
   117    38    37    1
   118    38    39    2
   119    52    51    1
   120    52    53    1
   121    51    43   am
   122    37    34    1
   123    13    14    1
   124    14    15    1
   125    14    17    1
   126    41    42    1
   127    41    35   am
   128    75    76    2
   129    43    42    1
   130    43    44    2
   131    19    21   ar
   132    19    18   ar
   133    25    26    2
   134    15    16    2
   135    21    22   ar
   136    53    54    2
   137    53    56   am
   138    34    35    1
   139    34    33    1
   140    35    36    2
   141    17    18    1
   142    18    20   ar
   143    56    57    1
   144    72    71    1
   145    71    70    1
   146    22    20   ar
   147    62    61   ar
   148    57    60    1
   149    57    58    1
   150    68    69    1
   151    68    65    1
   152    61    60    1
   153    61    63   ar
   154    70    69    1
   155    64    65    1
   156    65    66    1
   157    58    59    2
   158    66    67    2
