@<TRIPOS>MOLECULE
tmp/4blwA01.pdb
 222 218 0 0 0
SMALL
GASTEIGER

@<TRIPOS>ATOM
      1  N         17.1460  -34.7610   -5.9290 N.3     2  LEU2       -0.1245
      2  CA        17.8900  -34.3960   -4.7290 C.3     2  LEU2        0.1561
      3  C         19.3880  -34.7340   -4.7410 C.2     2  LEU2        0.2260
      4  O         19.9130  -35.3030   -3.7850 O.2     2  LEU2       -0.2867
      5  CB        17.2480  -35.0990   -3.5320 C.3     2  LEU2        0.0270
      6  CG        15.7820  -34.7100   -3.3280 C.3     2  LEU2        0.0019
      7  CD1       15.0450  -35.7360   -2.4450 C.3     2  LEU2        0.0001
      8  CD2       15.6740  -33.3050   -2.7570 C.3     2  LEU2        0.0001
      9  N         21.6440  -32.2900   -4.9130 N.3     4  TYR4       -0.1241
     10  CA        22.2650  -31.1280   -4.2810 C.3     4  TYR4        0.1605
     11  C         22.7220  -31.4390   -2.8680 C.2     4  TYR4        0.2264
     12  O         21.9870  -32.0330   -2.0850 O.2     4  TYR4       -0.2867
     13  CB        21.2860  -29.9370   -4.2850 C.3     4  TYR4        0.0534
     14  CG        21.7720  -28.6880   -3.5540 C.ar    4  TYR4       -0.0201
     15  CD1       21.5830  -28.5440   -2.1840 C.ar    4  TYR4       -0.0009
     16  CD2       22.4160  -27.6580   -4.2360 C.ar    4  TYR4       -0.0009
     17  CE1       22.0110  -27.3980   -1.5060 C.ar    4  TYR4        0.0417
     18  CE2       22.8580  -26.5090   -3.5670 C.ar    4  TYR4        0.0417
     19  CZ        22.6490  -26.3910   -2.2100 C.ar    4  TYR4        0.1957
     20  OH        23.0770  -25.2720   -1.5450 O.3     4  TYR4       -0.2866
     21  N         24.2670  -29.3080    0.3880 N.3     6  HIS6       -0.1241
     22  CA        24.5920  -27.9630    0.8660 C.3     6  HIS6        0.1621
     23  C         26.0000  -27.8450    1.4280 C.2     6  HIS6        0.2264
     24  O         26.5640  -26.7480    1.4650 O.2     6  HIS6       -0.2867
     25  CB        23.5810  -27.4340    1.8770 C.3     6  HIS6        0.0745
     26  CG        23.6680  -25.9520    2.0700 C.ar    6  HIS6        0.0817
     27  ND1       23.4560  -25.0650    1.0370 N.ar    6  HIS6       -0.2268
     28  CD2       23.9560  -25.2010    3.1610 C.ar    6  HIS6        0.1154
     29  CE1       23.6050  -23.8250    1.4840 C.ar    6  HIS6        0.1986
     30  NE2       23.9050  -23.8820    2.7720 N.ar    6  HIS6       -0.2212
     31  N         22.1530  -14.6130    3.9140 N.3    18  LYS18      -0.1231
     32  CA        20.8890  -15.2710    4.2620 C.3    18  LYS18       0.1693
     33  C         20.6920  -15.3210    5.7790 C.2    18  LYS18       0.2592
     34  O         19.6330  -14.9920    6.2980 O.2    18  LYS18      -0.2718
     35  CB        20.8960  -16.6950    3.7040 C.3    18  LYS18       0.0285
     36  CG        19.6620  -17.5190    4.0060 C.3    18  LYS18       0.0035
     37  CD        19.9670  -19.0240    3.8170 C.3    18  LYS18       0.0206
     38  CE        20.5960  -19.3110    2.4530 C.3    18  LYS18       0.1093
     39  NZ        21.0080  -20.7520    2.3010 N.3    18  LYS18      -0.1314
     40  N         21.7420  -15.7150    6.4820 N.am   19  HIS19      -0.1976
     41  CA        21.6700  -15.9110    7.9150 C.3    19  HIS19       0.1656
     42  C         21.7490  -14.6040    8.6810 C.2    19  HIS19       0.2291
     43  O         21.2350  -14.5100    9.7940 O.2    19  HIS19      -0.2864
     44  CB        22.7240  -16.9080    8.3750 C.3    19  HIS19       0.0771
     45  CG        22.5060  -18.2910    7.8300 C.ar   19  HIS19       0.0820
     46  ND1       23.5380  -19.1830    7.6230 N.ar   19  HIS19      -0.2267
     47  CD2       21.3740  -18.9210    7.4350 C.ar   19  HIS19       0.1154
     48  CE1       23.0460  -20.3100    7.1310 C.ar   19  HIS19       0.1986
     49  NE2       21.7410  -20.1770    7.0060 N.ar   19  HIS19      -0.2212
     50  N         10.8080  -23.5000    8.3380 N.3    40  ASP40      -0.1225
     51  CA        11.9420  -23.6100    7.4180 C.3    40  ASP40       0.1805
     52  C         11.6040  -24.7160    6.4070 C.2    40  ASP40       0.2598
     53  O         11.6440  -25.8920    6.7450 O.2    40  ASP40      -0.2718
     54  CB        13.1820  -23.9730    8.2330 C.3    40  ASP40       0.1424
     55  CG        14.4860  -23.7210    7.5010 C.2    40  ASP40       0.3668
     56  OD1       14.5210  -23.8020    6.2610 O.co2  40  ASP40      -0.2456
     57  OD2       15.4980  -23.4510    8.1840 O.co2  40  ASP40      -0.2456
     58  N         11.2510  -24.3410    5.1760 N.am   41  THR41      -0.1939
     59  CA        10.6970  -25.3110    4.2200 C.3    41  THR41       0.2028
     60  C         11.7680  -26.2780    3.6870 C.2    41  THR41       0.2642
     61  O         11.5120  -27.4740    3.4930 O.2    41  THR41      -0.2714
     62  CB        10.0310  -24.6040    3.0290 C.3    41  THR41       0.1808
     63  OG1       10.9980  -23.7910    2.3600 O.3    41  THR41      -0.2208
     64  CG2        8.8430  -23.7030    3.4960 C.3    41  THR41       0.0379
     65  N         12.9650  -25.7470    3.4520 N.am   42  HIS42      -0.1959
     66  CA        14.0710  -26.5440    2.9530 C.3    42  HIS42       0.1787
     67  C         15.1980  -26.4360    3.9620 C.2    42  HIS42       0.2620
     68  O         16.1170  -25.6420    3.7920 O.2    42  HIS42      -0.2715
     69  CB        14.5240  -26.0120    1.6010 C.3    42  HIS42       0.0785
     70  CG        13.4930  -26.1290    0.5260 C.ar   42  HIS42       0.0821
     71  ND1       12.2730  -25.4770    0.5820 N.ar   42  HIS42      -0.2267
     72  CD2       13.5190  -26.7780   -0.6610 C.ar   42  HIS42       0.1154
     73  CE1       11.5880  -25.7420   -0.5140 C.ar   42  HIS42       0.1986
     74  NE2       12.3220  -26.5270   -1.2850 N.ar   42  HIS42      -0.2212
     75  N         15.1350  -27.2600    5.0000 N.am   43  ALA43      -0.1963
     76  CA        15.9030  -27.0150    6.2050 C.3    43  ALA43       0.1728
     77  C         17.3640  -27.4740    6.1660 C.2    43  ALA43       0.2616
     78  O         18.1820  -26.9680    6.9320 O.2    43  ALA43      -0.2715
     79  CB        15.1840  -27.6220    7.4110 C.3    43  ALA43       0.0334
     80  N         17.7110  -28.4340    5.3120 N.am   44  GLY44      -0.1955
     81  CA        19.0930  -28.9140    5.3150 C.3    44  GLY44       0.1869
     82  C         19.3880  -29.8610    6.4730 C.2    44  GLY44       0.2309
     83  O         18.4630  -30.3360    7.1370 O.2    44  GLY44      -0.2863
     84  N         27.0140  -28.1760    9.3910 N.3    48  TYR48      -0.1241
     85  CA        27.8680  -28.6250    8.3160 C.3    48  TYR48       0.1605
     86  C         29.3190  -28.6520    8.7640 C.2    48  TYR48       0.2264
     87  O         29.7650  -27.7800    9.5000 O.2    48  TYR48      -0.2867
     88  CB        27.6820  -27.7390    7.0860 C.3    48  TYR48       0.0534
     89  CG        26.2590  -27.7770    6.6110 C.ar   48  TYR48      -0.0201
     90  CD1       25.8200  -28.8030    5.7880 C.ar   48  TYR48      -0.0009
     91  CD2       25.3430  -26.8270    7.0250 C.ar   48  TYR48      -0.0009
     92  CE1       24.5160  -28.8720    5.3740 C.ar   48  TYR48       0.0417
     93  CE2       24.0230  -26.8910    6.6130 C.ar   48  TYR48       0.0417
     94  CZ        23.6220  -27.9070    5.7870 C.ar   48  TYR48       0.1957
     95  OH        22.3020  -27.9830    5.3790 O.3    48  TYR48      -0.2866
     96  N         23.5090  -24.3020   10.1640 N.3    99  GLY99      -0.1210
     97  CA        22.5240  -23.9670    9.1600 C.3    99  GLY99       0.1956
     98  C         21.3840  -23.1620    9.7520 C.2    99  GLY99       0.2613
     99  O         21.3200  -22.9310   10.9710 O.2    99  GLY99      -0.2717
    100  N         20.4850  -22.7160    8.8810 N.am  100  SER100     -0.1938
    101  CA        19.3010  -21.9670    9.3260 C.3   100  SER100      0.2040
    102  C         18.5480  -22.5860   10.5200 C.2   100  SER100      0.2485
    103  O         18.1440  -21.8600   11.4260 O.2   100  SER100     -0.2729
    104  CB        18.3520  -21.6520    8.1500 C.3   100  SER100      0.2129
    105  OG        17.8470  -22.8370    7.5220 O.3   100  SER100     -0.2179
    106  N         18.3700  -23.9240   10.5450 N.am  101  PRO101     -0.2726
    107  CA        17.6400  -24.4510   11.7060 C.3   101  PRO101      0.1402
    108  C         18.3460  -24.2630   13.0500 C.2   101  PRO101      0.2269
    109  O         17.6570  -24.0480   14.0540 O.2   101  PRO101     -0.2865
    110  CB        17.4920  -25.9470   11.3830 C.3   101  PRO101      0.0296
    111  CG        17.5860  -26.0370    9.9190 C.3   101  PRO101      0.0237
    112  CD        18.6090  -24.9810    9.5440 C.3   101  PRO101      0.0939
    113  N         12.8690  -31.4950    5.4000 N.3   118  GLU118     -0.1231
    114  CA        14.0140  -31.7890    4.5490 C.3   118  GLU118      0.1699
    115  C         13.7440  -33.1510    3.9030 C.2   118  GLU118      0.2592
    116  O         13.3380  -34.0880    4.5890 O.2   118  GLU118     -0.2718
    117  CB        15.3130  -31.8320    5.3810 C.3   118  GLU118      0.0402
    118  CG        16.5170  -32.4230    4.6450 C.3   118  GLU118      0.1161
    119  CD        16.9120  -31.6280    3.4080 C.2   118  GLU118      0.3649
    120  OE1       17.0200  -30.3970    3.5150 O.co2 118  GLU118     -0.2457
    121  OE2       17.1050  -32.2190    2.3220 O.co2 118  GLU118     -0.2457
    122  N         13.9050  -33.2450    2.5910 N.am  119  LEU119     -0.1966
    123  CA        13.6150  -34.4910    1.8720 C.3   119  LEU119      0.1728
    124  C         14.8140  -35.4500    1.7370 C.2   119  LEU119      0.2616
    125  O         14.6230  -36.6580    1.5740 O.2   119  LEU119     -0.2715
    126  CB        13.0380  -34.1740    0.4890 C.3   119  LEU119      0.0311
    127  CG        11.5440  -33.8040    0.4600 C.3   119  LEU119      0.0022
    128  CD1       11.1190  -33.4080   -0.9300 C.3   119  LEU119      0.0001
    129  CD2       10.7370  -35.0230    0.9020 C.3   119  LEU119      0.0001
    130  N         16.0390  -34.9150    1.7560 N.am  120  HIS120     -0.1973
    131  CA        17.2370  -35.7290    1.4980 C.3   120  HIS120      0.1656
    132  C         17.5000  -36.8230    2.5500 C.2   120  HIS120      0.2291
    133  O         17.5180  -36.5470    3.7480 O.2   120  HIS120     -0.2864
    134  CB        18.4800  -34.8330    1.3640 C.3   120  HIS120      0.0771
    135  CG        19.6240  -35.4990    0.6640 C.ar  120  HIS120      0.0820
    136  ND1       20.4820  -36.3690    1.3050 N.ar  120  HIS120     -0.2267
    137  CD2       20.0330  -35.4460   -0.6260 C.ar  120  HIS120      0.1154
    138  CE1       21.3800  -36.8110    0.4410 C.ar  120  HIS120      0.1986
    139  NE2       21.1300  -36.2670   -0.7360 N.ar  120  HIS120     -0.2212
    140  N         20.4530  -35.9310    4.8480 N.3   123  ASP123     -0.1239
    141  CA        20.2790  -34.7180    5.6590 C.3   123  ASP123      0.1674
    142  C         19.1130  -34.7610    6.6430 C.2   123  ASP123      0.2266
    143  O         19.2100  -34.2260    7.7450 O.2   123  ASP123     -0.2867
    144  CB        20.1660  -33.4830    4.7650 C.3   123  ASP123      0.1410
    145  CG        21.4030  -33.2590    3.9350 C.2   123  ASP123      0.3668
    146  OD1       22.4990  -33.7070    4.3460 O.co2 123  ASP123     -0.2456
    147  OD2       21.2790  -32.6190    2.8670 O.co2 123  ASP123     -0.2456
    148  N          9.4110  -34.3190    4.3720 N.3   142  ALA142     -0.1231
    149  CA         8.3490  -34.0380    3.4120 C.3   142  ALA142      0.1694
    150  C          8.6650  -32.8200    2.5520 C.2   142  ALA142      0.2592
    151  O          9.6140  -32.0850    2.8230 O.2   142  ALA142     -0.2718
    152  CB         7.0210  -33.8510    4.1320 C.3   142  ALA142      0.0304
    153  N          7.8600  -32.6130    1.5150 N.am  143  ASP143     -0.1960
    154  CA         8.0420  -31.4810    0.6150 C.3   143  ASP143      0.1840
    155  C          7.8150  -30.1620    1.3450 C.2   143  ASP143      0.2623
    156  O          6.7480  -29.9300    1.9130 O.2   143  ASP143     -0.2715
    157  CB         7.0950  -31.5890   -0.5810 C.3   143  ASP143      0.1450
    158  CG         7.2350  -30.4260   -1.5430 C.2   143  ASP143      0.3671
    159  OD1        8.3220  -30.2720   -2.1380 O.co2 143  ASP143     -0.2456
    160  OD2        6.2580  -29.6650   -1.7040 O.co2 143  ASP143     -0.2456
    161  N          8.8270  -29.3010    1.3260 N.am  144  GLY144     -0.1940
    162  CA         8.7470  -28.0090    1.9930 C.3   144  GLY144      0.2014
    163  C          7.6510  -27.1070    1.4380 C.2   144  GLY144      0.2638
    164  O          7.0050  -26.3850    2.1780 O.2   144  GLY144     -0.2714
    165  N          7.4610  -27.1160    0.1270 N.am  145  PHE145     -0.1973
    166  CA         6.4670  -26.2450   -0.4700 C.3   145  PHE145      0.1639
    167  C          5.0670  -26.5650    0.0490 C.2   145  PHE145      0.2290
    168  O          4.2430  -25.6680    0.2150 O.2   145  PHE145     -0.2864
    169  CB         6.5140  -26.3050   -1.9950 C.3   145  PHE145      0.0560
    170  CG         7.7760  -25.7350   -2.5780 C.ar  145  PHE145     -0.0200
    171  CD1        8.0540  -24.3850   -2.4630 C.ar  145  PHE145     -0.0042
    172  CD2        8.6770  -26.5480   -3.2510 C.ar  145  PHE145     -0.0042
    173  CE1        9.2170  -23.8530   -3.0050 C.ar  145  PHE145     -0.0003
    174  CE2        9.8460  -26.0250   -3.7820 C.ar  145  PHE145     -0.0003
    175  CZ        10.1140  -24.6780   -3.6610 C.ar  145  PHE145     -0.0000
    176  N         11.0810  -19.1310    6.2590 N.3   162  LEU162     -0.1245
    177  CA        12.2540  -19.1060    5.4020 C.3   162  LEU162      0.1561
    178  C         12.0450  -20.1190    4.2880 C.2   162  LEU162      0.2260
    179  O         11.7640  -21.2810    4.5380 O.2   162  LEU162     -0.2867
    180  CB        13.5350  -19.4410    6.1850 C.3   162  LEU162      0.0270
    181  CG        14.7830  -19.5390    5.3040 C.3   162  LEU162      0.0019
    182  CD1       15.2240  -18.1580    4.8210 C.3   162  LEU162      0.0001
    183  CD2       15.9550  -20.2250    6.0150 C.3   162  LEU162      0.0001
    184  N         14.1350  -21.5490    1.2840 N.3   164  ASP164     -0.1225
    185  CA        15.5250  -21.5490    0.8430 C.3   164  ASP164      0.1790
    186  C         15.8410  -22.7800   -0.0180 C.2   164  ASP164      0.2440
    187  O         16.6580  -23.6190    0.3600 O.2   164  ASP164     -0.2733
    188  CB        16.4140  -21.4990    2.0850 C.3   164  ASP164      0.1423
    189  CG        17.8870  -21.4750    1.7740 C.2   164  ASP164      0.3668
    190  OD1       18.2800  -21.0490    0.6760 O.co2 164  ASP164     -0.2456
    191  OD2       18.6490  -21.9050    2.6580 O.co2 164  ASP164     -0.2456
    192  N         15.1700  -22.9050   -1.1790 N.am  165  PRO165     -0.2718
    193  CA        15.4350  -24.0890   -2.0080 C.3   165  PRO165      0.1520
    194  C         16.8160  -24.0280   -2.6970 C.2   165  PRO165      0.2440
    195  O         17.4620  -22.9770   -2.7180 O.2   165  PRO165     -0.2731
    196  CB        14.2900  -24.0720   -3.0280 C.3   165  PRO165      0.0310
    197  CG        13.8610  -22.6200   -3.1130 C.3   165  PRO165      0.0237
    198  CD        14.1730  -21.9930   -1.7820 C.3   165  PRO165      0.0939
    199  N         17.2830  -25.1640   -3.2400 N.am  166  PRO166     -0.2727
    200  CA        18.5820  -25.2020   -3.9140 C.3   166  PRO166      0.1402
    201  C         18.4630  -24.8050   -5.3810 C.2   166  PRO166      0.2269
    202  O         19.4770  -24.5330   -5.9810 O.2   166  PRO166     -0.2865
    203  CB        18.9840  -26.6820   -3.8130 C.3   166  PRO166      0.0296
    204  CG        17.6420  -27.4050   -3.8780 C.3   166  PRO166      0.0237
    205  CD        16.6920  -26.5110   -3.0830 C.3   166  PRO166      0.0939
    206  N         17.9670  -26.7180   -7.7770 N.3   168  GLU168     -0.1245
    207  CA        18.4480  -27.8100   -8.6120 C.3   168  GLU168      0.1567
    208  C         17.4200  -28.1050   -9.7230 C.2   168  GLU168      0.2260
    209  O         17.7760  -28.2470  -10.8900 O.2   168  GLU168     -0.2867
    210  CB        18.6830  -29.0530   -7.7570 C.3   168  GLU168      0.0388
    211  CG        19.0900  -30.2900   -8.5420 C.3   168  GLU168      0.1160
    212  CD        19.3360  -31.5040   -7.6540 C.2   168  GLU168      0.3649
    213  OE1       19.2760  -31.3800   -6.4100 O.co2 168  GLU168     -0.2457
    214  OE2       19.5770  -32.5910   -8.2080 O.co2 168  GLU168     -0.2457
    215  N         11.6850  -24.7680   -9.3200 N.3   172  ASP172     -0.1239
    216  CA        11.7860  -24.0040   -8.0730 C.3   172  ASP172      0.1674
    217  C         11.4890  -22.5260   -8.2900 C.2   172  ASP172      0.2266
    218  O         10.9320  -21.8770   -7.4140 O.2   172  ASP172     -0.2867
    219  CB        13.1660  -24.1470   -7.4300 C.3   172  ASP172      0.1410
    220  CG        13.2970  -25.4120   -6.5750 C.2   172  ASP172      0.3668
    221  OD1       12.3060  -26.1340   -6.3940 O.co2 172  ASP172     -0.2456
    222  OD2       14.4010  -25.6710   -6.0630 O.co2 172  ASP172     -0.2456
@<TRIPOS>BOND
     1   209   208    2
     2   208   207    1
     3   215   216    1
     4   207   206    1
     5   207   210    1
     6   211   210    1
     7   211   212    1
     8   217   216    1
     9   217   218    2
    10   214   212   ar
    11   216   219    1
    12   212   213   ar
    13   219   220    1
    14   220   221   ar
    15   220   222   ar
    16   202   201    2
    17     1     2    1
    18   201   200    1
    19     9    10    1
    20     3     2    1
    21     3     4    2
    22     2     5    1
    23    13    10    1
    24    13    14    1
    25    10    11    1
    26    16    18   ar
    27    16    14   ar
    28   200   203    1
    29   200   199    1
    30   204   203    1
    31   204   205    1
    32   174   175   ar
    33   174   172   ar
    34   175   173   ar
    35    18    19   ar
    36    14    15   ar
    37     5     6    1
    38     6     8    1
    39     6     7    1
    40   172   170   ar
    41   199   205    1
    42   199   194   am
    43   197   196    1
    44   197   198    1
    45   196   193    1
    46   173   171   ar
    47    11    12    2
    48   195   194    2
    49   194   193    1
    50   170   171   ar
    51   170   169    1
    52    19    20    1
    53    19    17   ar
    54    15    17   ar
    55   159   158   ar
    56   193   192    1
    57   169   166    1
    58   198   192    1
    59   160   158   ar
    60   158   157    1
    61    74    72   ar
    62    74    73   ar
    63   192   186   am
    64   128   127    1
    65   139   137   ar
    66   139   138   ar
    67    72    70   ar
    68   137   135   ar
    69   157   154    1
    70    73    71   ar
    71   166   167    1
    72   166   165    1
    73   186   187    2
    74   186   185    1
    75   167   168    2
    76   165   163   am
    77    21    22    1
    78   138   136   ar
    79   127   126    1
    80   127   129    1
    81   126   123    1
    82    70    71   ar
    83    70    69    1
    84   154   155    1
    85   154   153    1
    86   135   136   ar
    87   135   134    1
    88   190   189   ar
    89   185   184    1
    90   185   188    1
    91    22    23    1
    92    22    25    1
    93    27    29   ar
    94    27    26   ar
    95   161   155   am
    96   161   162    1
    97   155   156    2
    98   134   131    1
    99    23    24    2
   100   163   162    1
   101   163   164    2
   102    29    30   ar
   103   131   130    1
   104   131   132    1
   105   153   150   am
   106   125   124    2
   107    69    66    1
   108   124   130   am
   109   124   123    1
   110   189   188    1
   111   189   191   ar
   112   123   122    1
   113    25    26    1
   114    26    28   ar
   115    39    38    1
   116   121   119   ar
   117    63    62    1
   118    38    37    1
   119   132   133    2
   120   150   151    2
   121   150   149    1
   122   122   115   am
   123    30    28   ar
   124   147   145   ar
   125    66    65    1
   126    66    67    1
   127    62    64    1
   128    62    59    1
   129   119   120   ar
   130   119   118    1
   131   149   152    1
   132   149   148    1
   133    65    60   am
   134    61    60    2
   135    60    59    1
   136    35    36    1
   137    35    32    1
   138    68    67    2
   139    37    36    1
   140   115   114    1
   141   115   116    2
   142    31    32    1
   143   145   146   ar
   144   145   144    1
   145    67    75   am
   146    59    58    1
   147    32    33    1
   148   178   179    2
   149   178   177    1
   150   114   117    1
   151   114   113    1
   152   118   117    1
   153   144   141    1
   154   182   181    1
   155   140   141    1
   156    75    76    1
   157    58    52   am
   158   181   183    1
   159   181   180    1
   160    80    81    1
   161    80    77   am
   162    81    82    1
   163    92    94   ar
   164    92    90   ar
   165    95    94    1
   166   177   180    1
   167   177   176    1
   168   141   142    1
   169    33    34    2
   170    33    40   am
   171    94    93   ar
   172    90    89   ar
   173    77    76    1
   174    77    78    2
   175    76    79    1
   176    56    55   ar
   177    52    53    2
   178    52    51    1
   179    82    83    2
   180    40    41    1
   181    89    91   ar
   182    89    88    1
   183    93    91   ar
   184   142   143    2
   185    49    48   ar
   186    49    47   ar
   187    88    85    1
   188    48    46   ar
   189    51    54    1
   190    51    50    1
   191    47    45   ar
   192    55    57   ar
   193    55    54    1
   194   105   104    1
   195    46    45   ar
   196    45    44    1
   197    41    44    1
   198    41    42    1
   199   104   101    1
   200    85    86    1
   201    85    84    1
   202    42    43    2
   203    86    87    2
   204   100   101    1
   205   100    98   am
   206    97    98    1
   207    97    96    1
   208   101   102    1
   209   112   111    1
   210   112   106    1
   211    98    99    2
   212   111   110    1
   213   102   106   am
   214   102   103    2
   215   106   107    1
   216   110   107    1
   217   107   108    1
   218   108   109    2
