@<TRIPOS>MOLECULE
tmp/4bm1A01.pdb
 72 69 0 0 0
SMALL
GASTEIGER

@<TRIPOS>ATOM
      1  N         13.6990  -13.6560   -2.4510 N.3   187  LEU187     -0.1245
      2  CA        13.6700  -12.2780   -2.9050 C.3   187  LEU187      0.1561
      3  C         12.9550  -11.4040   -1.9030 C.2   187  LEU187      0.2260
      4  O         12.4030  -10.3340   -2.2470 O.2   187  LEU187     -0.2867
      5  CB        12.9320  -12.1640   -4.2260 C.3   187  LEU187      0.0270
      6  CG        13.5610  -12.8620   -5.4200 C.3   187  LEU187      0.0019
      7  CD1       12.6240  -12.6610   -6.5870 C.3   187  LEU187      0.0001
      8  CD2       14.9630  -12.3820   -5.6990 C.3   187  LEU187      0.0001
      9  N         12.1640   -7.2720   -1.9170 N.3   190  HIS190     -0.1241
     10  CA        12.1240   -6.6380   -3.2500 C.3   190  HIS190      0.1621
     11  C         10.7840   -5.9190   -3.3830 C.2   190  HIS190      0.2264
     12  O          9.7350   -6.5410   -3.1500 O.2   190  HIS190     -0.2867
     13  CB        12.3060   -7.6940   -4.3530 C.3   190  HIS190      0.0745
     14  CG        13.7090   -8.1880   -4.4390 C.ar  190  HIS190      0.0817
     15  ND1       14.3170   -8.4620   -5.6420 N.ar  190  HIS190     -0.2268
     16  CD2       14.6060   -8.4820   -3.4690 C.ar  190  HIS190      0.1154
     17  CE1       15.5440   -8.8950   -5.3960 C.ar  190  HIS190      0.1986
     18  NE2       15.7440   -8.8920   -4.0930 N.ar  190  HIS190     -0.2212
     19  N         10.9490  -10.3070  -16.7970 N.3   213  LEU213     -0.1231
     20  CA        11.9900  -10.9200  -15.9800 C.3   213  LEU213      0.1693
     21  C         11.4340  -11.8520  -14.9500 C.2   213  LEU213      0.2592
     22  O         10.4220  -11.5300  -14.2910 O.2   213  LEU213     -0.2718
     23  CB        12.7730   -9.8220  -15.2050 C.3   213  LEU213      0.0284
     24  CG        13.4790   -8.8080  -16.0620 C.3   213  LEU213      0.0019
     25  CD1       13.9640   -7.6300  -15.2260 C.3   213  LEU213      0.0001
     26  CD2       14.6330   -9.4670  -16.8530 C.3   213  LEU213      0.0001
     27  N         12.0870  -12.9920  -14.7420 N.am  214  ILE214     -0.1966
     28  CA        11.8750  -13.8250  -13.5600 C.3   214  ILE214      0.1712
     29  C         12.9850  -13.4200  -12.6130 C.2   214  ILE214      0.2458
     30  O         14.1490  -13.6680  -12.8860 O.2   214  ILE214     -0.2730
     31  CB        11.9540  -15.3270  -13.8740 C.3   214  ILE214      0.0289
     32  CG1       10.8930  -15.7130  -14.8920 C.3   214  ILE214      0.0022
     33  CG2       11.7970  -16.1110  -12.5750 C.3   214  ILE214      0.0023
     34  CD1       10.8690  -17.1840  -15.2900 C.3   214  ILE214      0.0001
     35  N         12.6640  -12.7720  -11.4980 N.am  215  PRO215     -0.2727
     36  CA        13.7670  -12.1960  -10.7030 C.3   215  PRO215      0.1402
     37  C         14.6110  -13.2360   -9.9470 C.2   215  PRO215      0.2269
     38  O         15.8210  -13.0290   -9.7940 O.2   215  PRO215     -0.2865
     39  CB        13.0430  -11.1670   -9.8060 C.3   215  PRO215      0.0296
     40  CG        11.5990  -11.5320   -9.8150 C.3   215  PRO215      0.0237
     41  CD        11.3220  -12.2550  -11.1080 C.3   215  PRO215      0.0939
     42  N          8.3270   -9.6210  -13.6240 N.3   226  SER226     -0.1217
     43  CA         8.5210   -8.2240  -13.3670 C.3   226  SER226      0.1889
     44  C          9.1400   -7.5060  -14.5450 C.2   226  SER226      0.2288
     45  O          9.7220   -8.1260  -15.4200 O.2   226  SER226     -0.2866
     46  CB         9.4670   -7.9560  -12.2310 C.3   226  SER226      0.2089
     47  OG         9.8400   -8.9930  -11.5160 O.3   226  SER226     -0.2183
     48  N         11.4920   -4.8660  -14.2920 N.3   228  LEU228     -0.1231
     49  CA        12.6910   -4.1190  -13.9110 C.3   228  LEU228      0.1678
     50  C         13.4680   -4.9510  -12.9270 C.2   228  LEU228      0.2434
     51  O         12.8730   -5.4920  -11.9910 O.2   228  LEU228     -0.2733
     52  CB        12.3070   -2.7790  -13.2830 C.3   228  LEU228      0.0284
     53  CG        11.5890   -1.7720  -14.1330 C.3   228  LEU228      0.0019
     54  CD1       10.9340   -0.7100  -13.2800 C.3   228  LEU228      0.0001
     55  CD2       12.5130   -1.1630  -15.1700 C.3   228  LEU228      0.0001
     56  N         14.8060   -4.9520  -12.9910 N.am  229  PRO229     -0.2718
     57  CA        15.6210   -5.6470  -11.9920 C.3   229  PRO229      0.1535
     58  C         15.3700   -5.0290  -10.6220 C.2   229  PRO229      0.2599
     59  O         15.3610   -3.8080  -10.4510 O.2   229  PRO229     -0.2715
     60  CB        17.0790   -5.3840  -12.4480 C.3   229  PRO229      0.0310
     61  CG        17.0020   -4.3390  -13.3890 C.3   229  PRO229      0.0237
     62  CD        15.6330   -4.3730  -14.0700 C.3   229  PRO229      0.0939
     63  N         15.2030   -5.9000   -9.6490 N.am  230  GLY230     -0.1955
     64  CA        14.9780   -5.5360   -8.2720 C.3   230  GLY230      0.1869
     65  C         13.5150   -5.4060   -7.8770 C.2   230  GLY230      0.2309
     66  O         13.1920   -5.4160   -6.6970 O.2   230  GLY230     -0.2863
     67  N         19.4020   -1.4970  -10.9760 N.3   330  SER330     -0.1217
     68  CA        18.5550   -2.3830  -10.2000 C.3   330  SER330      0.1889
     69  C         18.0710   -1.7140   -8.9030 C.2   330  SER330      0.2288
     70  O         18.8490   -1.0200   -8.2110 O.2   330  SER330     -0.2866
     71  CB        19.3430   -3.6420   -9.8670 C.3   330  SER330      0.2089
     72  OG        18.5510   -4.5310   -9.1210 O.3   330  SER330     -0.2183
@<TRIPOS>BOND
     1    26    24    1
     2    19    20    1
     3    24    25    1
     4    24    23    1
     5    20    23    1
     6    20    21    1
     7    45    44    2
     8    34    32    1
     9    55    53    1
    10    21    27   am
    11    21    22    2
    12    32    31    1
    13    27    28    1
    14    44    43    1
    15    48    49    1
    16    53    52    1
    17    53    54    1
    18    62    61    1
    19    62    56    1
    20    49    52    1
    21    49    50    1
    22    31    28    1
    23    31    33    1
    24    42    43    1
    25    28    29    1
    26    61    60    1
    27    43    46    1
    28    56    50   am
    29    56    57    1
    30    50    51    2
    31    30    29    2
    32    29    35   am
    33    60    57    1
    34    46    47    1
    35    57    58    1
    36    35    41    1
    37    35    36    1
    38    41    40    1
    39    67    68    1
    40    36    37    1
    41    36    39    1
    42    58    59    2
    43    58    63   am
    44    68    71    1
    45    68    69    1
    46    37    38    2
    47    71    72    1
    48    40    39    1
    49    63    64    1
    50    69    70    2
    51    64    65    1
    52    65    66    2
    53     7     6    1
    54     8     6    1
    55    15    17   ar
    56    15    14   ar
    57     6     5    1
    58    17    18   ar
    59    14    13    1
    60    14    16   ar
    61    13    10    1
    62     5     2    1
    63    18    16   ar
    64    11    10    1
    65    11    12    2
    66    10     9    1
    67     2     1    1
    68     2     3    1
    69     4     3    2
