@<TRIPOS>MOLECULE
tmp/4bm7A00.pdb
 137 129 0 0 0
SMALL
GASTEIGER

@<TRIPOS>ATOM
      1  N          9.8560   -7.2030   -0.2400 N.3     3  SER3       -0.1202
      2  CA         9.9630   -6.0840    0.6950 C.3     3  SER3        0.2020
      3  C         10.5100   -6.5790    2.0480 C.2     3  SER3        0.2619
      4  O         10.2750   -7.7190    2.4420 O.2     3  SER3       -0.2717
      5  CB         8.6100   -5.3750    0.8580 C.3     3  SER3        0.2103
      6  OG         7.7750   -6.0290    1.7970 O.3     3  SER3       -0.2182
      7  N         11.2420   -5.7140    2.7430 N.am    4  VAL4       -0.1965
      8  CA        11.9730   -6.1000    3.9500 C.3     4  VAL4        0.1727
      9  C         11.5200   -5.2650    5.1430 C.2     4  VAL4        0.2616
     10  O         11.2300   -4.0750    5.0000 O.2     4  VAL4       -0.2715
     11  CB        13.5060   -5.9310    3.7590 C.3     4  VAL4        0.0290
     12  CG1       14.2750   -6.4640    4.9660 C.3     4  VAL4        0.0023
     13  CG2       13.9750   -6.6200    2.4860 C.3     4  VAL4        0.0023
     14  N         11.4300   -5.9210    6.3020 N.am    5  ALA5       -0.1977
     15  CA        11.1780   -5.2810    7.5940 C.3     5  ALA5        0.1597
     16  C         12.2350   -5.7760    8.5780 C.2     5  ALA5        0.2287
     17  O         12.5400   -6.9670    8.6190 O.2     5  ALA5       -0.2864
     18  CB         9.7870   -5.6280    8.0990 C.3     5  ALA5        0.0319
     19  N         13.3690   -5.7990   12.5890 N.3     7  PHE7       -0.1228
     20  CA        12.7710   -5.6240   13.9200 C.3     7  PHE7        0.1721
     21  C         13.7930   -5.6880   15.0370 C.2     7  PHE7        0.2437
     22  O         14.6850   -6.5370   15.0090 O.2     7  PHE7       -0.2733
     23  CB        11.7280   -6.6920   14.1850 C.3     7  PHE7        0.0547
     24  CG        10.5580   -6.6160   13.2720 C.ar    7  PHE7       -0.0202
     25  CD1        9.5200   -5.7190   13.5240 C.ar    7  PHE7       -0.0042
     26  CD2       10.4810   -7.4330   12.1500 C.ar    7  PHE7       -0.0042
     27  CE1        8.4340   -5.6420   12.6740 C.ar    7  PHE7       -0.0003
     28  CE2        9.3870   -7.3650   11.3000 C.ar    7  PHE7       -0.0003
     29  CZ         8.3630   -6.4680   11.5670 C.ar    7  PHE7       -0.0000
     30  N         13.6250   -4.8150   16.0530 N.am    8  PRO8       -0.2729
     31  CA        14.5900   -4.7650   17.1110 C.3     8  PRO8        0.1401
     32  C         14.3560   -5.8800   18.1290 C.2     8  PRO8        0.2269
     33  O         13.2920   -6.4960   18.1380 O.2     8  PRO8       -0.2865
     34  CB        14.3300   -3.3850   17.7570 C.3     8  PRO8        0.0296
     35  CG        12.8810   -3.1560   17.5720 C.3     8  PRO8        0.0237
     36  CD        12.5050   -3.8710   16.2770 C.3     8  PRO8        0.0939
     37  N         13.4690   -7.3220   21.8940 N.3    10  LYS10      -0.1245
     38  CA        12.6360   -6.8620   22.9930 C.3    10  LYS10       0.1561
     39  C         13.5170   -6.2330   24.0480 C.2    10  LYS10       0.2260
     40  O         14.5810   -6.7830   24.3860 O.2    10  LYS10      -0.2867
     41  CB        11.8650   -8.0210   23.6380 C.3    10  LYS10       0.0271
     42  CG        10.9660   -8.8090   22.6920 C.3    10  LYS10       0.0035
     43  CD        10.0070   -7.9140   21.9430 C.3    10  LYS10       0.0206
     44  CE         9.0550   -8.7110   21.0550 C.3    10  LYS10       0.1093
     45  NZ         9.6010   -8.9190   19.6810 N.3    10  LYS10      -0.1314
     46  N         15.6210   -9.3120   13.8680 N.3    24  THR24      -0.1218
     47  CA        14.8890  -10.1680   12.9660 C.3    24  THR24       0.1862
     48  C         14.6460   -9.4360   11.6530 C.2    24  THR24       0.2287
     49  O         14.0060   -8.3790   11.6480 O.2    24  THR24      -0.2866
     50  CB        13.5360  -10.5670   13.5730 C.3    24  THR24       0.1770
     51  OG1       13.7330  -11.0600   14.8950 O.3    24  THR24      -0.2211
     52  CG2       12.8780  -11.6410   12.7520 C.3    24  THR24       0.0375
     53  N         12.8890   -9.6740    8.0580 N.3    26  VAL26      -0.1245
     54  CA        11.7690  -10.4090    7.4720 C.3    26  VAL26       0.1561
     55  C         11.5350   -9.9720    6.0250 C.2    26  VAL26       0.2260
     56  O         11.3320   -8.7830    5.7480 O.2    26  VAL26      -0.2867
     57  CB        10.4870  -10.2180    8.2960 C.3    26  VAL26       0.0252
     58  CG1        9.3200  -10.9720    7.6740 C.3    26  VAL26       0.0019
     59  CG2       10.7130  -10.6940    9.7270 C.3    26  VAL26       0.0019
     60  N          9.0830  -10.4740    2.7660 N.3    28  VAL28      -0.1231
     61  CA         7.8000  -10.9750    2.2650 C.3    28  VAL28       0.1692
     62  C          7.6600  -10.7120    0.7690 C.2    28  VAL28       0.2592
     63  O          8.4570   -9.9720    0.1870 O.2    28  VAL28      -0.2718
     64  CB         6.5980  -10.3990    3.0460 C.3    28  VAL28       0.0266
     65  CG1        6.4880  -11.0900    4.3920 C.3    28  VAL28       0.0020
     66  CG2        6.7080   -8.8860    3.2040 C.3    28  VAL28       0.0020
     67  N          6.6520  -11.3330    0.1570 N.am   29  ASP29      -0.1974
     68  CA         6.4550  -11.2820   -1.2970 C.3    29  ASP29       0.1709
     69  C          7.6660  -11.8180   -2.0590 C.2    29  ASP29       0.2293
     70  O          8.0300  -11.2870   -3.1090 O.2    29  ASP29      -0.2864
     71  CB         6.0900   -9.8580   -1.7700 C.3    29  ASP29       0.1436
     72  CG         4.7790   -9.3610   -1.1730 C.2    29  ASP29       0.3671
     73  OD1        3.9170  -10.2100   -0.8520 O.co2  29  ASP29      -0.2456
     74  OD2        4.6050   -8.1300   -1.0390 O.co2  29  ASP29      -0.2456
     75  N          2.9520  -18.6540    2.2020 N.3    59  GLN59      -0.1231
     76  CA         1.7250  -17.9680    2.5820 C.3    59  GLN59       0.1698
     77  C          0.5260  -18.5170    1.7990 C.2    59  GLN59       0.2592
     78  O          0.6800  -19.3590    0.9090 O.2    59  GLN59      -0.2718
     79  CB         1.8880  -16.4730    2.3140 C.3    59  GLN59       0.0381
     80  CG         3.1710  -15.8890    2.8880 C.3    59  GLN59       0.0905
     81  CD         3.3700  -16.2620    4.3430 C.2    59  GLN59       0.2608
     82  OE1        2.5830  -15.8700    5.1990 O.2    59  GLN59      -0.2717
     83  NE2        4.4170  -17.0280    4.6300 N.am   59  GLN59      -0.0878
     84  N         -0.6670  -18.0360    2.1390 N.am   60  TYR60      -0.1962
     85  CA        -1.8930  -18.4430    1.4440 C.3    60  TYR60       0.1771
     86  C         -2.0600  -17.7350    0.0900 C.2    60  TYR60       0.2619
     87  O         -2.8400  -18.1870   -0.7510 O.2    60  TYR60      -0.2715
     88  CB        -3.1300  -18.2440    2.3370 C.3    60  TYR60       0.0574
     89  CG        -3.4440  -19.4500    3.1960 C.ar   60  TYR60      -0.0198
     90  CD1       -4.0780  -20.5450    2.6490 C.ar   60  TYR60      -0.0009
     91  CD2       -3.1020  -19.5010    4.5480 C.ar   60  TYR60      -0.0009
     92  CE1       -4.3700  -21.6680    3.4000 C.ar   60  TYR60       0.0417
     93  CE2       -3.3940  -20.6250    5.3190 C.ar   60  TYR60       0.0417
     94  CZ        -4.0290  -21.7120    4.7290 C.ar   60  TYR60       0.1957
     95  OH        -4.3450  -22.8520    5.4350 O.3    60  TYR60      -0.2866
     96  N         -1.3060  -16.6540   -0.1280 N.am   61  ASN61      -0.1972
     97  CA        -1.3650  -15.8910   -1.3850 C.3    61  ASN61       0.1688
     98  C         -0.2170  -16.1940   -2.3630 C.2    61  ASN61       0.2292
     99  O          0.1700  -15.3380   -3.1520 O.2    61  ASN61      -0.2864
    100  CB        -1.4280  -14.3830   -1.0850 C.3    61  ASN61       0.1181
    101  CG        -0.2620  -13.8930   -0.2420 C.2    61  ASN61       0.2629
    102  OD1        0.6170  -14.6670    0.1370 O.2    61  ASN61      -0.2716
    103  ND2       -0.2530  -12.5970    0.0540 N.am   61  ASN61      -0.0877
    104  N          3.0400  -16.4870   -2.1040 N.3    63  THR63      -0.1218
    105  CA         4.3620  -15.9020   -1.9250 C.3    63  THR63       0.1862
    106  C          5.0050  -16.6030   -0.7350 C.2    63  THR63       0.2287
    107  O          4.3420  -17.3740   -0.0390 O.2    63  THR63      -0.2866
    108  CB         4.2980  -14.3940   -1.6340 C.3    63  THR63       0.1770
    109  OG1        3.5660  -14.1650   -0.4230 O.3    63  THR63      -0.2211
    110  CG2        3.6470  -13.6540   -2.7730 C.3    63  THR63       0.0375
    111  N          7.5180  -16.1490    2.9130 N.3    65  ARG65      -0.1245
    112  CA         8.0410  -15.2950    3.9600 C.3    65  ARG65       0.1563
    113  C          9.3620  -15.9370    4.3700 C.2    65  ARG65       0.2260
    114  O          9.4010  -17.1370    4.6520 O.2    65  ARG65      -0.2867
    115  CB         7.0470  -15.2770    5.1100 C.3    65  ARG65       0.0307
    116  CG         7.3400  -14.3110    6.2350 C.3    65  ARG65       0.0489
    117  CD         6.1470  -14.3050    7.1690 C.3    65  ARG65       0.2205
    118  NE         6.3110  -13.3750    8.2750 N.pl3  65  ARG65      -0.0865
    119  CZ         7.0020  -13.6160    9.3860 C.cat  65  ARG65       0.5346
    120  NH1        7.6290  -14.7750    9.5770 N.pl3  65  ARG65       0.1354
    121  NH2        7.0640  -12.6810   10.3110 N.pl3  65  ARG65       0.1354
    122  N         12.7800  -15.4120    6.8760 N.3    67  VAL67      -0.1245
    123  CA        13.1990  -14.7480    8.0990 C.3    67  VAL67       0.1561
    124  C         14.6470  -15.1020    8.3880 C.2    67  VAL67       0.2260
    125  O         15.0100  -16.2930    8.3730 O.2    67  VAL67      -0.2867
    126  CB        12.3510  -15.2700    9.2670 C.3    67  VAL67       0.0252
    127  CG1       12.7580  -14.5970   10.5790 C.3    67  VAL67       0.0019
    128  CG2       10.8690  -15.0860    8.9580 C.3    67  VAL67       0.0019
    129  N         18.3000   -2.5400    5.0560 N.3    98  LYS98      -0.1245
    130  CA        17.7180   -1.7930    6.1620 C.3    98  LYS98       0.1561
    131  C         18.6930   -1.8060    7.3320 C.2    98  LYS98       0.2260
    132  O         19.4500   -2.7730    7.5150 O.2    98  LYS98      -0.2867
    133  CB        16.3670   -2.3730    6.5800 C.3    98  LYS98       0.0271
    134  CG        15.2850   -2.1740    5.5200 C.3    98  LYS98       0.0035
    135  CD        13.9010   -2.5750    6.0380 C.3    98  LYS98       0.0206
    136  CE        13.1170   -1.4220    6.6530 C.3    98  LYS98       0.1093
    137  NZ        11.6650   -1.4490    6.2780 N.3    98  LYS98      -0.1314
@<TRIPOS>BOND
     1    99    98    2
     2    70    69    2
     3   110   108    1
     4    98    97    1
     5   104   105    1
     6    69    68    1
     7   105   108    1
     8   105   106    1
     9    71    68    1
    10    71    72    1
    11   108   109    1
    12    97   100    1
    13    97    96    1
    14    68    67    1
    15    72    74   ar
    16    72    73   ar
    17   100   101    1
    18    87    86    2
    19   106   107    2
    20   101   103   am
    21   101   102    2
    22     1     2    1
    23    96    86   am
    24    86    85    1
    25    67    62   am
    26    63    62    2
    27     2     5    1
    28     2     3    1
    29    62    61    1
    30     5     6    1
    31    78    77    2
    32    85    84    1
    33    85    88    1
    34    77    84   am
    35    77    76    1
    36     3     4    2
    37     3     7   am
    38    75    76    1
    39    61    60    1
    40    61    64    1
    41    79    76    1
    42    79    80    1
    43    88    89    1
    44    13    11    1
    45    90    89   ar
    46    90    92   ar
    47     7     8    1
    48    80    81    1
    49   111   112    1
    50    64    66    1
    51    64    65    1
    52    89    91   ar
    53    92    94   ar
    54    11     8    1
    55    11    12    1
    56     8     9    1
    57   112   113    1
    58   112   115    1
    59    81    83   am
    60    81    82    2
    61   113   114    2
    62    91    93   ar
    63    94    93   ar
    64    94    95    1
    65    10     9    2
    66   129   130    1
    67   115   116    1
    68     9    14   am
    69   134   135    1
    70   134   133    1
    71    56    55    2
    72    55    54    1
    73   135   136    1
    74   130   133    1
    75   130   131    1
    76   116   117    1
    77   137   136    1
    78    14    15    1
    79   122   123    1
    80   117   118    1
    81   131   132    2
    82    54    53    1
    83    54    57    1
    84    15    18    1
    85    15    16    1
    86    58    57    1
    87   123   124    1
    88   123   126    1
    89   118   119    2
    90    57    59    1
    91   125   124    2
    92    16    17    2
    93   128   126    1
    94   126   127    1
    95   119   120    1
    96   119   121    1
    97    28    29   ar
    98    28    26   ar
    99    29    27   ar
   100    49    48    2
   101    48    47    1
   102    26    24   ar
   103    19    20    1
   104    27    25   ar
   105    52    50    1
   106    47    50    1
   107    47    46    1
   108    24    25   ar
   109    24    23    1
   110    50    51    1
   111    20    23    1
   112    20    21    1
   113    22    21    2
   114    21    30   am
   115    30    36    1
   116    30    31    1
   117    36    35    1
   118    31    34    1
   119    31    32    1
   120    35    34    1
   121    32    33    2
   122    45    44    1
   123    44    43    1
   124    37    38    1
   125    43    42    1
   126    42    41    1
   127    38    41    1
   128    38    39    1
   129    39    40    2
