@<TRIPOS>MOLECULE
tmp/4bm8A00.pdb
 148 138 0 0 0
SMALL
GASTEIGER

@<TRIPOS>ATOM
      1  N        -11.8700   12.5530    7.0300 N.3    32  ARG32      -0.1231
      2  CA       -12.3600   11.2050    6.7320 C.3    32  ARG32       0.1694
      3  C        -11.2000   10.2200    6.6810 C.2    32  ARG32       0.2592
      4  O        -10.0430   10.6060    6.5310 O.2    32  ARG32      -0.2718
      5  CB       -13.1800   11.1960    5.4570 C.3    32  ARG32       0.0321
      6  CG       -12.4820   11.6340    4.2070 C.3    32  ARG32       0.0489
      7  CD       -13.5330   11.7620    3.0860 C.3    32  ARG32       0.2205
      8  NE       -12.8430   12.3270    1.9470 N.pl3  32  ARG32      -0.0865
      9  CZ       -13.2890   12.3790    0.7040 C.cat  32  ARG32       0.5346
     10  NH1      -14.4790   11.8730    0.4170 N.pl3  32  ARG32       0.1354
     11  NH2      -12.5180   12.9310   -0.2150 N.pl3  32  ARG32       0.1354
     12  N        -11.5710    8.9510    6.8350 N.am   33  ILE33      -0.1966
     13  CA       -10.6980    7.7980    6.7270 C.3    33  ILE33       0.1727
     14  C        -11.3800    6.8000    5.8060 C.2    33  ILE33       0.2616
     15  O        -12.6240    6.7450    5.8200 O.2    33  ILE33      -0.2715
     16  CB       -10.4430    7.1590    8.0950 C.3    33  ILE33       0.0290
     17  CG1       -9.8910    8.1570    9.1190 C.3    33  ILE33       0.0022
     18  CG2       -9.5260    5.9500    7.9870 C.3    33  ILE33       0.0023
     19  CD1       -9.9230    7.6950   10.5460 C.3    33  ILE33       0.0001
     20  N        -10.6660    6.0110    5.0180 N.am   34  ALA34      -0.1977
     21  CA       -11.3000    4.9650    4.2360 C.3    34  ALA34       0.1597
     22  C        -10.4530    3.6850    4.2310 C.2    34  ALA34       0.2287
     23  O         -9.2340    3.7240    4.0330 O.2    34  ALA34      -0.2864
     24  CB       -11.5550    5.3940    2.8070 C.3    34  ALA34       0.0319
     25  N        -10.7310    0.2710    1.8600 N.3    36  ASP36      -0.1239
     26  CA       -11.3340   -0.2380    0.6360 C.3    36  ASP36       0.1674
     27  C        -10.8050   -1.6370    0.3540 C.2    36  ASP36       0.2266
     28  O         -9.6770   -1.7970   -0.1040 O.2    36  ASP36      -0.2867
     29  CB       -11.0180    0.6950   -0.5380 C.3    36  ASP36       0.1410
     30  CG       -11.7850    1.9970   -0.4220 C.2    36  ASP36       0.3668
     31  OD1      -12.9940    1.9730   -0.6930 O.co2  36  ASP36      -0.2456
     32  OD2      -11.2030    3.0380   -0.0700 O.co2  36  ASP36      -0.2456
     33  N        -16.2460   -1.0230    1.5790 N.3    46  HIS46      -0.1241
     34  CA       -15.7950    0.3350    1.8600 C.3    46  HIS46       0.1621
     35  C        -16.2340    0.6920    3.2690 C.2    46  HIS46       0.2264
     36  O        -17.4500    0.6160    3.5400 O.2    46  HIS46      -0.2867
     37  CB       -16.3940    1.2820    0.8360 C.3    46  HIS46       0.0745
     38  CG       -16.1610    2.7390    0.9520 C.ar   46  HIS46       0.0817
     39  ND1      -14.9700    3.3450    0.6050 N.ar   46  HIS46      -0.2268
     40  CD2      -16.9740    3.7470    1.3440 C.ar   46  HIS46       0.1154
     41  CE1      -15.0780    4.6580    0.7860 C.ar   46  HIS46       0.1986
     42  NE2      -16.2950    4.9440    1.2360 N.ar   46  HIS46      -0.2212
     43  N        -15.9290    3.8210    5.8900 N.3    48  ASN48      -0.1240
     44  CA       -15.6000    5.2310    5.7260 C.3    48  ASN48       0.1653
     45  C        -16.0780    6.0870    6.8990 C.2    48  ASN48       0.2266
     46  O        -17.1640    6.6820    6.8440 O.2    48  ASN48      -0.2867
     47  CB       -16.2080    5.7410    4.4210 C.3    48  ASN48       0.1155
     48  CG       -16.0130    7.1960    4.0820 C.2    48  ASN48       0.2627
     49  OD1      -16.8720    7.7990    3.4260 O.2    48  ASN48      -0.2716
     50  ND2      -14.9090    7.8010    4.4690 N.am   48  ASN48      -0.0877
     51  N        -16.5320    9.3840    8.6520 N.3    50  ARG50      -0.1245
     52  CA       -16.6950   10.7740    8.2950 C.3    50  ARG50       0.1563
     53  C        -16.8120   11.5910    9.5810 C.2    50  ARG50       0.2260
     54  O        -17.6990   11.3690   10.3950 O.2    50  ARG50      -0.2867
     55  CB       -17.9380   10.9690    7.4270 C.3    50  ARG50       0.0307
     56  CG       -17.8730   10.1860    6.1210 C.3    50  ARG50       0.0489
     57  CD       -19.1450   10.3240    5.3150 C.3    50  ARG50       0.2205
     58  NE       -19.0850    9.4810    4.1190 N.pl3  50  ARG50      -0.0865
     59  CZ       -19.9500    9.5080    3.1180 C.cat  50  ARG50       0.5346
     60  NH1      -20.9910   10.3390    3.1470 N.pl3  50  ARG50       0.1354
     61  NH2      -19.8050    8.6970    2.0710 N.pl3  50  ARG50       0.1354
     62  N        -19.9810   15.1930    8.5940 N.3    53  GLU53      -0.1231
     63  CA       -21.0640   15.1430    7.6140 C.3    53  GLU53       0.1699
     64  C        -22.2310   15.9370    8.2080 C.2    53  GLU53       0.2592
     65  O        -22.9210   15.4570    9.1000 O.2    53  GLU53      -0.2718
     66  CB       -21.4790   13.7190    7.2630 C.3    53  GLU53       0.0402
     67  CG       -22.5340   13.6820    6.1700 C.3    53  GLU53       0.1161
     68  CD       -23.1200   12.3100    5.9250 C.2    53  GLU53       0.3649
     69  OE1      -23.9000   11.8350    6.7820 O.co2  53  GLU53      -0.2457
     70  OE2      -22.7990   11.7040    4.8830 O.co2  53  GLU53      -0.2457
     71  N        -22.4230   17.1710    7.7600 N.am   54  ASN54      -0.1974
     72  CA       -23.4190   18.0580    8.3390 C.3    54  ASN54       0.1688
     73  C        -23.2560   18.1520    9.8560 C.2    54  ASN54       0.2292
     74  O        -24.2140   18.1290   10.6240 O.2    54  ASN54      -0.2864
     75  CB       -24.8370   17.6180    7.9490 C.3    54  ASN54       0.1181
     76  CG       -25.0380   17.4490    6.4600 C.2    54  ASN54       0.2629
     77  OD1      -25.6640   16.4840    5.9950 O.2    54  ASN54      -0.2716
     78  ND2      -24.5130   18.3720    5.6580 N.am   54  ASN54      -0.0877
     79  N        -22.0340   16.0620   11.9570 N.3    56  ARG56      -0.1245
     80  CA       -22.1910   14.7850   12.6150 C.3    56  ARG56       0.1563
     81  C        -21.0250   13.8680   12.2590 C.2    56  ARG56       0.2260
     82  O        -20.4380   13.9860   11.1740 O.2    56  ARG56      -0.2867
     83  CB       -23.4960   14.1320   12.1740 C.3    56  ARG56       0.0307
     84  CG       -24.6750   15.0860   12.1760 C.3    56  ARG56       0.0489
     85  CD       -25.3180   15.0820   13.5320 C.3    56  ARG56       0.2205
     86  NE       -26.4890   15.9280   13.6200 N.pl3  56  ARG56      -0.0865
     87  CZ       -27.7710   15.6710   13.4390 C.cat  56  ARG56       0.5346
     88  NH1      -28.2290   14.4690   13.1090 N.pl3  56  ARG56       0.1354
     89  NH2      -28.6670   16.6470   13.5880 N.pl3  56  ARG56       0.1354
     90  N        -19.8200    5.3500    7.2280 N.3    60  VAL60      -0.1245
     91  CA       -20.5730    4.8920    6.0600 C.3    60  VAL60       0.1561
     92  C        -19.8820    3.6600    5.4970 C.2    60  VAL60       0.2260
     93  O        -18.6620    3.6850    5.2760 O.2    60  VAL60      -0.2867
     94  CB       -20.6640    5.9890    4.9910 C.3    60  VAL60       0.0252
     95  CG1      -21.3560    5.5030    3.7210 C.3    60  VAL60       0.0019
     96  CG2      -21.3820    7.2240    5.5390 C.3    60  VAL60       0.0019
     97  N        -20.2450    0.6210    2.2980 N.3    62  ASN62      -0.1240
     98  CA       -20.8840    0.3790    1.0120 C.3    62  ASN62       0.1653
     99  C        -20.0080   -0.5490    0.1660 C.2    62  ASN62       0.2266
    100  O        -18.9100   -0.9470    0.5720 O.2    62  ASN62      -0.2867
    101  CB       -21.1510    1.7010    0.2850 C.3    62  ASN62       0.1155
    102  CG       -22.3480    1.6890   -0.6400 C.2    62  ASN62       0.2627
    103  OD1      -22.9150    0.6420   -0.9630 O.2    62  ASN62      -0.2716
    104  ND2      -22.7230    2.8810   -1.0890 N.am   62  ASN62      -0.0877
    105  N        -21.7320    3.0050   -6.7120 N.3    69  TRP69      -0.1241
    106  CA       -21.9760    2.7630   -5.2970 C.3    69  TRP69       0.1605
    107  C        -23.3810    2.2080   -5.0740 C.2    69  TRP69       0.2264
    108  O        -24.3600    2.6240   -5.7030 O.2    69  TRP69      -0.2867
    109  CB       -21.8140    4.0300   -4.4690 C.3    69  TRP69       0.0550
    110  CG       -20.3990    4.4770   -4.3410 C.ar   69  TRP69       0.0003
    111  CD1      -19.8370    5.5810   -4.9000 C.ar   69  TRP69       0.0946
    112  CD2      -19.3760    3.8170   -3.5990 C.ar   69  TRP69       0.0152
    113  NE1      -18.5140    5.6540   -4.5520 N.ar   69  TRP69      -0.2442
    114  CE2      -18.2060    4.5810   -3.7500 C.ar   69  TRP69       0.0810
    115  CE3      -19.3460    2.6490   -2.8160 C.ar   69  TRP69       0.0012
    116  CZ2      -17.0110    4.2050   -3.1440 C.ar   69  TRP69       0.0191
    117  CZ3      -18.1560    2.2950   -2.2220 C.ar   69  TRP69       0.0001
    118  CH2      -17.0010    3.0660   -2.3870 C.ar   69  TRP69       0.0015
    119  N        -25.9900    2.5110    0.9890 N.3    72  GLU72      -0.1245
    120  CA       -25.1190    2.6910    2.1430 C.3    72  GLU72       0.1567
    121  C        -25.7010    2.0120    3.3730 C.2    72  GLU72       0.2260
    122  O        -26.9290    1.9630    3.5250 O.2    72  GLU72      -0.2867
    123  CB       -24.9410    4.1920    2.4070 C.3    72  GLU72       0.0388
    124  CG       -24.0940    4.8960    1.3660 C.3    72  GLU72       0.1160
    125  CD       -23.9070    6.3730    1.5960 C.2    72  GLU72       0.3649
    126  OE1      -24.5410    6.9750    2.4990 O.co2  72  GLU72      -0.2457
    127  OE2      -23.0710    6.9580    0.8650 O.co2  72  GLU72      -0.2457
    128  N        -25.3910    2.5440    7.3590 N.3    74  ARG74      -0.1245
    129  CA       -25.0360    3.4990    8.3880 C.3    74  ARG74       0.1563
    130  C        -25.5500    3.0920    9.7620 C.2    74  ARG74       0.2260
    131  O        -26.7260    2.7690    9.9080 O.2    74  ARG74      -0.2867
    132  CB       -25.6300    4.8810    8.1000 C.3    74  ARG74       0.0307
    133  CG       -24.9960    5.5610    6.9040 C.3    74  ARG74       0.0489
    134  CD       -25.9640    6.5840    6.3380 C.3    74  ARG74       0.2205
    135  NE       -25.3180    7.4060    5.3190 N.pl3  74  ARG74      -0.0865
    136  CZ       -24.7580    8.5920    5.4390 C.cat  74  ARG74       0.5346
    137  NH1      -24.7330    9.2170    6.6160 N.pl3  74  ARG74       0.1354
    138  NH2      -24.2120    9.1690    4.3720 N.pl3  74  ARG74       0.1354
    139  N         -6.6170    4.7990    3.3300 N.3   125  SER125     -0.1202
    140  CA        -6.4320    6.1720    2.8970 C.3   125  SER125      0.2020
    141  C         -7.1240    7.1240    3.8760 C.2   125  SER125      0.2619
    142  O         -7.8500    6.7180    4.7820 O.2   125  SER125     -0.2717
    143  CB        -6.9820    6.3650    1.4920 C.3   125  SER125      0.2103
    144  OG        -8.3680    6.0930    1.4390 O.3   125  SER125     -0.2182
    145  N         -6.8480    8.4010    3.6660 N.am  126  GLY126     -0.1956
    146  CA        -7.4160    9.4570    4.4500 C.3   126  GLY126      0.1869
    147  C         -6.5600    9.9960    5.5650 C.2   126  GLY126      0.2309
    148  O         -5.3240    9.9230    5.5250 O.2   126  GLY126     -0.2863
@<TRIPOS>BOND
     1   105   106    1
     2   108   107    2
     3   106   107    1
     4   106   109    1
     5   111   113   ar
     6   111   110   ar
     7   113   114   ar
     8   109   110    1
     9   110   112   ar
    10   114   112   ar
    11   114   116   ar
    12   112   115   ar
    13   116   118   ar
    14   115   117   ar
    15   118   117   ar
    16   104   102   am
    17   103   102    2
    18    31    30   ar
    19   102   101    1
    20    29    30    1
    21    29    26    1
    22    30    32   ar
    23    11     9    1
    24    28    27    2
    25    99   100    2
    26    99    98    1
    27   101    98    1
    28    27    26    1
    29    10     9    1
    30    39    41   ar
    31    39    38   ar
    32    26    25    1
    33     9     8    2
    34    41    42   ar
    35    37    38    1
    36    37    34    1
    37   127   125   ar
    38    38    40   ar
    39   119   120    1
    40    98    97    1
    41    42    40   ar
    42   124   125    1
    43   124   123    1
    44   144   143    1
    45   143   140    1
    46    33    34    1
    47   125   126   ar
    48    34    35    1
    49     8     7    1
    50    61    59    1
    51   120   123    1
    52   120   121    1
    53    24    21    1
    54   140   139    1
    55   140   141    1
    56     7     6    1
    57    59    60    1
    58    59    58    2
    59    35    36    2
    60   121   122    2
    61    49    48    2
    62   145   141   am
    63   145   146    1
    64    95    94    1
    65   141   142    2
    66    23    22    2
    67    48    47    1
    68    48    50   am
    69    58    57    1
    70     6     5    1
    71    22    21    1
    72    21    20    1
    73   138   136    1
    74    47    44    1
    75   146   147    1
    76    70    68   ar
    77    94    96    1
    78    94    91    1
    79    20    14   am
    80    93    92    2
    81    57    56    1
    82   135   136    2
    83   135   134    1
    84   136   137    1
    85     5     2    1
    86    92    91    1
    87   148   147    2
    88    78    76   am
    89    44    43    1
    90    44    45    1
    91    14    15    2
    92    14    13    1
    93    68    67    1
    94    68    69   ar
    95    77    76    2
    96    91    90    1
    97    56    55    1
    98    67    66    1
    99   134   133    1
   100    76    75    1
   101     4     3    2
   102     3     2    1
   103     3    12   am
   104    13    12    1
   105    13    16    1
   106     2     1    1
   107    46    45    2
   108   133   132    1
   109    66    63    1
   110   128   129    1
   111    55    52    1
   112    63    64    1
   113    63    62    1
   114    71    64   am
   115    71    72    1
   116    75    72    1
   117    18    16    1
   118    16    17    1
   119   132   129    1
   120    64    65    2
   121    52    51    1
   122    52    53    1
   123    72    73    1
   124   129   130    1
   125    17    19    1
   126    53    54    2
   127   130   131    2
   128    73    74    2
   129    82    81    2
   130    79    80    1
   131    83    84    1
   132    83    80    1
   133    84    85    1
   134    81    80    1
   135    88    87    1
   136    87    89    1
   137    87    86    2
   138    85    86    1
