@<TRIPOS>MOLECULE
tmp/4bmdA00.pdb
 99 96 0 0 0
SMALL
GASTEIGER

@<TRIPOS>ATOM
      1  N        -34.1780   45.8390    6.8110 N.3    80  ASP80      -0.1225
      2  CA       -34.6540   44.5400    7.2770 C.3    80  ASP80       0.1805
      3  C        -36.0410   44.1790    6.7450 C.2    80  ASP80       0.2598
      4  O        -36.5990   43.1420    7.1040 O.2    80  ASP80      -0.2718
      5  CB       -34.6510   44.4890    8.8070 C.3    80  ASP80       0.1424
      6  CG       -33.2560   44.6000    9.3900 C.2    80  ASP80       0.3668
      7  OD1      -32.3040   44.1020    8.7550 O.co2  80  ASP80      -0.2456
      8  OD2      -33.1110   45.1860   10.4840 O.co2  80  ASP80      -0.2456
      9  N        -36.5910   45.0290    5.8840 N.am   81  GLU81      -0.1965
     10  CA       -37.9420   44.8200    5.3710 C.3    81  GLU81       0.1733
     11  C        -38.0570   43.5970    4.4610 C.2    81  GLU81       0.2616
     12  O        -39.1290   43.0030    4.3470 O.2    81  GLU81      -0.2715
     13  CB       -38.4530   46.0710    4.6520 C.3    81  GLU81       0.0429
     14  CG       -38.6020   47.2830    5.5580 C.3    81  GLU81       0.1163
     15  CD       -39.3760   48.4090    4.9020 C.2    81  GLU81       0.3649
     16  OE1      -40.1140   48.1390    3.9310 O.co2  81  GLU81      -0.2457
     17  OE2      -39.2470   49.5650    5.3560 O.co2  81  GLU81      -0.2457
     18  N        -36.9570   43.2230    3.8140 N.am   82  HIS82      -0.1959
     19  CA       -36.9560   42.0410    2.9570 C.3    82  HIS82       0.1787
     20  C        -35.6580   41.2450    3.0770 C.2    82  HIS82       0.2620
     21  O        -34.5630   41.8040    3.0020 O.2    82  HIS82      -0.2715
     22  CB       -37.2200   42.4180    1.4990 C.3    82  HIS82       0.0785
     23  CG       -37.7300   41.2820    0.6690 C.ar   82  HIS82       0.0821
     24  ND1      -36.9060   40.3010    0.1610 N.ar   82  HIS82      -0.2267
     25  CD2      -38.9840   40.9640    0.2680 C.ar   82  HIS82       0.1154
     26  CE1      -37.6300   39.4310   -0.5210 C.ar   82  HIS82       0.1986
     27  NE2      -38.8940   39.8110   -0.4710 N.ar   82  HIS82      -0.2212
     28  N        -35.7950   39.9340    3.2510 N.am   83  ALA83      -0.1977
     29  CA       -34.6570   39.0560    3.5070 C.3    83  ALA83       0.1597
     30  C        -33.6680   38.9780    2.3450 C.2    83  ALA83       0.2287
     31  O        -32.4890   38.6870    2.5460 O.2    83  ALA83      -0.2864
     32  CB       -35.1450   37.6620    3.8810 C.3    83  ALA83       0.0319
     33  N        -40.1130   40.5650   -6.9130 N.3   111  GLU111     -0.1245
     34  CA       -39.9430   39.5550   -5.8770 C.3   111  GLU111      0.1567
     35  C        -39.7410   38.1820   -6.5030 C.2   111  GLU111      0.2260
     36  O        -38.8930   37.4090   -6.0590 O.2   111  GLU111     -0.2867
     37  CB       -41.1390   39.5320   -4.9230 C.3   111  GLU111      0.0388
     38  CG       -40.9210   38.6470   -3.7030 C.3   111  GLU111      0.1160
     39  CD       -42.1230   38.6040   -2.7820 C.2   111  GLU111      0.3649
     40  OE1      -43.2440   38.9010   -3.2480 O.co2 111  GLU111     -0.2457
     41  OE2      -41.9450   38.2750   -1.5900 O.co2 111  GLU111     -0.2457
     42  N        -47.5260   32.4430    0.5890 N.3   141  THR141     -0.1203
     43  CA       -48.6430   32.5150    1.5220 C.3   141  THR141      0.1994
     44  C        -48.8520   33.9250    2.0690 C.2   141  THR141      0.2617
     45  O        -49.7130   34.1460    2.9180 O.2   141  THR141     -0.2717
     46  CB       -48.4620   31.5350    2.6940 C.3   141  THR141      0.1784
     47  OG1      -47.1950   31.7660    3.3210 O.3   141  THR141     -0.2211
     48  CG2      -48.5190   30.0990    2.1950 C.3   141  THR141      0.0376
     49  N        -48.0630   34.8740    1.5760 N.am  142  ASN142     -0.1974
     50  CA       -48.2010   36.2690    1.9800 C.3   142  ASN142      0.1688
     51  C        -49.2170   37.0060    1.1130 C.2   142  ASN142      0.2292
     52  O        -49.4990   38.1860    1.3260 O.2   142  ASN142     -0.2864
     53  CB       -46.8450   36.9720    1.9560 C.3   142  ASN142      0.1181
     54  CG       -45.8630   36.3660    2.9400 C.2   142  ASN142      0.2629
     55  OD1      -46.2480   35.9190    4.0210 O.2   142  ASN142     -0.2716
     56  ND2      -44.5880   36.3390    2.5670 N.am  142  ASN142     -0.0877
     57  N        -43.8770   29.4670    1.7410 N.3   166  VAL166     -0.1231
     58  CA       -42.6300   30.1910    1.5080 C.3   166  VAL166      0.1692
     59  C        -41.8710   30.5070    2.8000 C.2   166  VAL166      0.2591
     60  O        -40.6510   30.6850    2.7810 O.2   166  VAL166     -0.2718
     61  CB       -42.8740   31.4920    0.7020 C.3   166  VAL166      0.0266
     62  CG1      -43.6160   32.5170    1.5460 C.3   166  VAL166      0.0020
     63  CG2      -41.5610   32.0640    0.1860 C.3   166  VAL166      0.0020
     64  N        -42.5910   30.5600    3.9200 N.am  167  ALA167     -0.1980
     65  CA       -41.9770   30.8460    5.2170 C.3   167  ALA167      0.1597
     66  C        -40.8150   29.8990    5.5030 C.2   167  ALA167      0.2287
     67  O        -39.8160   30.2900    6.1060 O.2   167  ALA167     -0.2864
     68  CB       -43.0140   30.7670    6.3290 C.3   167  ALA167      0.0319
     69  N        -37.8560   31.4490    3.7630 N.3   170  TRP170     -0.1227
     70  CA       -37.4190   32.6560    4.4580 C.3   170  TRP170      0.1737
     71  C        -36.6870   32.2990    5.7480 C.2   170  TRP170      0.2595
     72  O        -35.7110   32.9520    6.1170 O.2   170  TRP170     -0.2718
     73  CB       -38.5940   33.5920    4.7660 C.3   170  TRP170      0.0564
     74  CG       -39.3540   34.1010    3.5660 C.ar  170  TRP170      0.0003
     75  CD1      -40.7120   34.1660    3.4330 C.ar  170  TRP170      0.0946
     76  CD2      -38.8090   34.6210    2.3420 C.ar  170  TRP170      0.0152
     77  NE1      -41.0460   34.6940    2.2100 N.ar  170  TRP170     -0.2442
     78  CE2      -39.8970   34.9790    1.5200 C.ar  170  TRP170      0.0810
     79  CE3      -37.5100   34.8180    1.8610 C.ar  170  TRP170      0.0012
     80  CZ2      -39.7250   35.5190    0.2460 C.ar  170  TRP170      0.0191
     81  CZ3      -37.3420   35.3530    0.5950 C.ar  170  TRP170      0.0001
     82  CH2      -38.4440   35.6980   -0.1970 C.ar  170  TRP170      0.0015
     83  N        -37.1610   31.2590    6.4270 N.am  171  ASN171     -0.1974
     84  CA       -36.5200   30.7880    7.6500 C.3   171  ASN171      0.1688
     85  C        -35.1090   30.2740    7.3900 C.2   171  ASN171      0.2292
     86  O        -34.2060   30.4880    8.1950 O.2   171  ASN171     -0.2864
     87  CB       -37.3580   29.6990    8.3220 C.3   171  ASN171      0.1181
     88  CG       -38.6730   30.2260    8.8600 C.2   171  ASN171      0.2629
     89  OD1      -38.7940   31.4060    9.1910 O.2   171  ASN171     -0.2716
     90  ND2      -39.6690   29.3510    8.9500 N.am  171  ASN171     -0.0877
     91  N        -32.9380   33.4840    6.4870 N.3   174  GLN174     -0.1245
     92  CA       -32.6870   34.3220    7.6550 C.3   174  GLN174      0.1566
     93  C        -31.7860   33.6500    8.6880 C.2   174  GLN174      0.2260
     94  O        -30.8950   34.2890    9.2450 O.2   174  GLN174     -0.2867
     95  CB       -34.0070   34.7520    8.2980 C.3   174  GLN174      0.0367
     96  CG       -34.8030   35.7460    7.4650 C.3   174  GLN174      0.0905
     97  CD       -36.1380   36.0950    8.0910 C.2   174  GLN174      0.2608
     98  OE1      -37.0820   35.3050    8.0480 O.2   174  GLN174     -0.2717
     99  NE2      -36.2240   37.2820    8.6790 N.am  174  GLN174     -0.0878
@<TRIPOS>BOND
     1    33    34    1
     2    35    36    2
     3    35    34    1
     4    34    37    1
     5    37    38    1
     6    38    39    1
     7    40    39   ar
     8    39    41   ar
     9    26    27   ar
    10    26    24   ar
    11    27    25   ar
    12    82    80   ar
    13    82    81   ar
    14    24    23   ar
    15    63    61    1
    16    80    78   ar
    17    25    23   ar
    18    42    43    1
    19    81    79   ar
    20    23    22    1
    21    61    58    1
    22    61    62    1
    23    51    52    2
    24    51    50    1
    25    22    19    1
    26    58    57    1
    27    58    59    1
    28    78    77   ar
    29    78    76   ar
    30    43    44    1
    31    43    46    1
    32    49    50    1
    33    49    44   am
    34    79    76   ar
    35    53    50    1
    36    53    54    1
    37    44    45    2
    38    48    46    1
    39    77    75   ar
    40    76    74   ar
    41    30    31    2
    42    30    29    1
    43    56    54   am
    44    46    47    1
    45    60    59    2
    46    59    64   am
    47    54    55    2
    48    19    20    1
    49    19    18    1
    50    21    20    2
    51    20    28   am
    52    28    29    1
    53    75    74   ar
    54    29    32    1
    55    74    73    1
    56    69    70    1
    57    18    11   am
    58    64    65    1
    59    16    15   ar
    60    12    11    2
    61    70    73    1
    62    70    71    1
    63    11    10    1
    64    13    10    1
    65    13    14    1
    66    15    17   ar
    67    15    14    1
    68    65    66    1
    69    65    68    1
    70    10     9    1
    71    66    67    2
    72    71    72    2
    73    71    83   am
    74     9     3   am
    75    83    84    1
    76    91    92    1
    77     3     4    2
    78     3     2    1
    79     1     2    1
    80     2     5    1
    81    85    84    1
    82    85    86    2
    83    96    97    1
    84    96    95    1
    85    84    87    1
    86    92    95    1
    87    92    93    1
    88    98    97    2
    89    97    99   am
    90    87    88    1
    91    93    94    2
    92     7     6   ar
    93     5     6    1
    94    88    90   am
    95    88    89    2
    96     6     8   ar
