@<TRIPOS>MOLECULE
tmp/4bmoB00.pdb
 148 147 0 0 0
SMALL
GASTEIGER

@<TRIPOS>ATOM
      1  N         27.8930   18.1760  -23.0470 N.3     7  SER7       -0.1202
      2  CA        26.9400   18.3130  -22.0130 C.3     7  SER7        0.2020
      3  C         26.3210   16.9310  -21.8020 C.2     7  SER7        0.2619
      4  O         25.9060   16.3040  -22.7420 O.2     7  SER7       -0.2717
      5  CB        25.8560   19.2840  -22.4740 C.3     7  SER7        0.2103
      6  OG        24.9570   19.5840  -21.4180 O.3     7  SER7       -0.2182
      7  N         26.2990   16.4750  -20.5720 N.am    8  MET8       -0.1965
      8  CA        25.7260   15.1880  -20.2760 C.3     8  MET8        0.1736
      9  C         24.2780   15.4090  -19.8610 C.2     8  MET8        0.2617
     10  O         23.3930   14.8870  -20.5140 O.2     8  MET8       -0.2715
     11  CB        26.5220   14.4770  -19.1990 C.3     8  MET8        0.0427
     12  CG        26.0010   13.0770  -18.9580 C.3     8  MET8        0.0599
     13  SD        27.0050   12.0690  -17.8560 S.3     8  MET8       -0.1393
     14  CE        26.7760   12.9550  -16.3240 C.3     8  MET8        0.0692
     15  N         24.0310   16.2240  -18.8280 N.am    9  THR9       -0.1937
     16  CA        22.6720   16.4100  -18.2600 C.3     9  THR9        0.2028
     17  C         21.9620   17.7150  -18.6090 C.2     9  THR9        0.2643
     18  O         20.8830   18.0160  -18.0380 O.2     9  THR9       -0.2714
     19  CB        22.7010   16.2450  -16.7070 C.3     9  THR9        0.1808
     20  OG1       23.4910   17.2610  -16.1200 O.3     9  THR9       -0.2208
     21  CG2       23.3650   14.9270  -16.3000 C.3     9  THR9        0.0379
     22  N         22.5370   18.5040  -19.5210 N.am   10  GLY10      -0.1939
     23  CA        21.8290   19.6480  -20.0910 C.3    10  GLY10       0.2014
     24  C         22.3410   21.0160  -19.5980 C.2    10  GLY10       0.2639
     25  O         21.9470   22.0370  -20.1480 O.2    10  GLY10      -0.2714
     26  N         23.2050   21.0470  -18.5710 N.am   11  ASN11      -0.1958
     27  CA        23.6600   22.3010  -18.0120 C.3    11  ASN11       0.1819
     28  C         24.5660   23.0900  -18.9450 C.2    11  ASN11       0.2621
     29  O         24.3570   24.2990  -19.0920 O.2    11  ASN11      -0.2715
     30  CB        24.3940   22.0880  -16.6950 C.3    11  ASN11       0.1195
     31  CG        23.5320   21.4890  -15.6040 C.2    11  ASN11       0.2630
     32  OD1       22.2980   21.6170  -15.5930 O.2    11  ASN11      -0.2716
     33  ND2       24.2020   20.9360  -14.5780 N.am   11  ASN11      -0.0877
     34  N         25.5760   22.4420  -19.5210 N.am   12  VAL12      -0.1977
     35  CA        26.4650   23.1350  -20.4400 C.3    12  VAL12       0.1596
     36  C         25.6460   23.6120  -21.6660 C.2    12  VAL12       0.2287
     37  O         25.7840   24.7460  -22.1470 O.2    12  VAL12      -0.2864
     38  CB        27.6400   22.2620  -20.8930 C.3    12  VAL12       0.0276
     39  CG1       28.3680   22.9210  -22.0270 C.3    12  VAL12       0.0022
     40  CG2       28.6330   22.0190  -19.7590 C.3    12  VAL12       0.0022
     41  N         31.8850   19.7260  -19.2570 N.3    41  TYR41      -0.1227
     42  CA        31.4940   19.4610  -17.8620 C.3    41  TYR41       0.1736
     43  C         32.6370   18.6590  -17.2200 C.2    41  TYR41       0.2596
     44  O         33.6480   18.4190  -17.8540 O.2    41  TYR41      -0.2718
     45  CB        30.1350   18.7310  -17.7360 C.3    41  TYR41       0.0548
     46  CG        30.0830   17.3800  -18.3170 C.ar   41  TYR41      -0.0200
     47  CD1       29.9020   17.1990  -19.7110 C.ar   41  TYR41      -0.0009
     48  CD2       30.2800   16.2510  -17.5380 C.ar   41  TYR41      -0.0009
     49  CE1       29.8220   15.9380  -20.2740 C.ar   41  TYR41       0.0417
     50  CE2       30.1840   14.9890  -18.0950 C.ar   41  TYR41       0.0417
     51  CZ        29.9970   14.8370  -19.4620 C.ar   41  TYR41       0.1957
     52  OH        29.9270   13.5940  -20.0180 O.3    41  TYR41      -0.2866
     53  N         32.4950   18.3390  -15.9290 N.am   42  THR42      -0.1939
     54  CA        33.5440   17.7700  -15.1210 C.3    42  THR42       0.2028
     55  C         32.9420   16.4640  -14.5370 C.2    42  THR42       0.2643
     56  O         31.7580   16.4160  -14.0940 O.2    42  THR42      -0.2714
     57  CB        33.9760   18.7480  -13.9870 C.3    42  THR42       0.1808
     58  OG1       34.2690   20.0770  -14.4920 O.3    42  THR42      -0.2208
     59  CG2       35.1350   18.2470  -13.2780 C.3    42  THR42       0.0379
     60  N         33.7200   15.3900  -14.6510 N.am   43  THR43      -0.1936
     61  CA        33.3000   14.0760  -14.2320 C.3    43  THR43       0.2028
     62  C         34.1090   13.7900  -12.9420 C.2    43  THR43       0.2643
     63  O         34.9620   14.5860  -12.5490 O.2    43  THR43      -0.2714
     64  CB        33.6540   12.9410  -15.2560 C.3    43  THR43       0.1808
     65  OG1       35.0810   12.9150  -15.4060 O.3    43  THR43      -0.2208
     66  CG2       33.0090   13.1340  -16.5670 C.3    43  THR43       0.0379
     67  N         33.8360   12.6490  -12.2920 N.am   44  GLY44      -0.1939
     68  CA        34.2230   12.4860  -10.8610 C.3    44  GLY44       0.2014
     69  C         35.7130   12.6600  -10.6100 C.2    44  GLY44       0.2639
     70  O         36.5360   12.1810  -11.3380 O.2    44  GLY44      -0.2714
     71  N         36.0160   13.3420   -9.5360 N.am   45  PHE45      -0.1959
     72  CA        37.3590   13.6310   -9.0680 C.3    45  PHE45       0.1771
     73  C         38.0260   14.6480   -9.9700 C.2    45  PHE45       0.2620
     74  O         39.2190   14.6330  -10.1220 O.2    45  PHE45      -0.2715
     75  CB        38.2110   12.3560   -8.8370 C.3    45  PHE45       0.0574
     76  CG        37.5100   11.3360   -7.9670 C.ar   45  PHE45      -0.0200
     77  CD1       37.2520   11.6080   -6.6040 C.ar   45  PHE45      -0.0042
     78  CD2       37.1020   10.1190   -8.4920 C.ar   45  PHE45      -0.0042
     79  CE1       36.6080   10.6850   -5.8170 C.ar   45  PHE45      -0.0003
     80  CE2       36.4290    9.1990   -7.6890 C.ar   45  PHE45      -0.0003
     81  CZ        36.1880    9.4950   -6.3510 C.ar   45  PHE45      -0.0000
     82  N         37.2450   15.5630  -10.5320 N.am   46  GLY46      -0.1954
     83  CA        37.8380   16.5800  -11.2990 C.3    46  GLY46       0.1869
     84  C         38.3390   16.1370  -12.6570 C.2    46  GLY46       0.2309
     85  O         39.2660   16.7540  -13.1670 O.2    46  GLY46      -0.2863
     86  N         32.1230   23.7220  -16.6930 N.3    69  SER69      -0.1202
     87  CA        30.9770   23.6580  -15.8070 C.3    69  SER69       0.2020
     88  C         31.2860   22.5560  -14.7790 C.2    69  SER69       0.2619
     89  O         31.8230   21.4710  -15.1140 O.2    69  SER69      -0.2717
     90  CB        29.7550   23.2480  -16.5530 C.3    69  SER69       0.2103
     91  OG        28.6340   23.2630  -15.7350 O.3    69  SER69      -0.2182
     92  N         31.0090   22.8750  -13.5240 N.am   70  GLY70      -0.1942
     93  CA        31.0810   21.8730  -12.4600 C.3    70  GLY70       0.2014
     94  C         30.1690   22.3120  -11.3200 C.2    70  GLY70       0.2638
     95  O         29.1220   22.9510  -11.5300 O.2    70  GLY70      -0.2714
     96  N         30.5860   21.9920  -10.1180 N.am   71  ASN71      -0.1972
     97  CA        29.7970   22.3120   -8.9340 C.3    71  ASN71       0.1688
     98  C         30.8370   22.5240   -7.8340 C.2    71  ASN71       0.2292
     99  O         31.7450   21.6850   -7.6630 O.2    71  ASN71      -0.2864
    100  CB        28.8150   21.1640   -8.6260 C.3    71  ASN71       0.1181
    101  CG        27.9440   21.4330   -7.4480 C.2    71  ASN71       0.2629
    102  OD1       28.3060   22.2030   -6.5410 O.2    71  ASN71      -0.2716
    103  ND2       26.7690   20.8020   -7.4290 N.am   71  ASN71      -0.0877
    104  N         32.4710   20.2620   -5.0600 N.3    74  TRP74      -0.1241
    105  CA        33.6660   19.4210   -5.2900 C.3    74  TRP74       0.1605
    106  C         34.9710   20.0600   -4.8680 C.2    74  TRP74       0.2264
    107  O         36.0470   19.5030   -5.0590 O.2    74  TRP74      -0.2867
    108  CB        33.6680   19.0000   -6.7880 C.3    74  TRP74       0.0550
    109  CG        32.7040   17.8840   -7.0670 C.ar   74  TRP74       0.0003
    110  CD1       31.3730   17.9730   -7.4260 C.ar   74  TRP74       0.0946
    111  CD2       32.9890   16.4930   -6.9430 C.ar   74  TRP74       0.0152
    112  NE1       30.8300   16.6860   -7.5590 N.ar   74  TRP74      -0.2442
    113  CE2       31.8150   15.7820   -7.2580 C.ar   74  TRP74       0.0810
    114  CE3       34.1530   15.7850   -6.6300 C.ar   74  TRP74       0.0012
    115  CZ2       31.7710   14.3620   -7.2740 C.ar   74  TRP74       0.0191
    116  CZ3       34.1150   14.3420   -6.5970 C.ar   74  TRP74       0.0001
    117  CH2       32.9530   13.6600   -6.9670 C.ar   74  TRP74       0.0015
    118  N         38.4090   20.1970   -6.5450 N.3    77  MET77      -0.1230
    119  CA        38.1850   19.5450   -7.8390 C.3    77  MET77       0.1702
    120  C         37.1030   20.2620   -8.6710 C.2    77  MET77       0.2592
    121  O         36.6880   19.7590   -9.7270 O.2    77  MET77      -0.2718
    122  CB        37.8470   18.0790   -7.6240 C.3    77  MET77       0.0401
    123  CG        39.0200   17.2450   -7.0970 C.3    77  MET77       0.0596
    124  SD        38.4530   15.8500   -6.0870 S.3    77  MET77      -0.1393
    125  CE        39.9890   15.1460   -5.4530 C.3    77  MET77       0.0692
    126  N         36.6620   21.4370   -8.2140 N.am   78  PHE78      -0.1962
    127  CA        35.7050   22.2600   -8.9730 C.3    78  PHE78       0.1771
    128  C         36.2110   22.6220  -10.3600 C.2    78  PHE78       0.2620
    129  O         37.2200   23.3500  -10.5030 O.2    78  PHE78      -0.2715
    130  CB        35.3240   23.5420   -8.2420 C.3    78  PHE78       0.0574
    131  CG        34.5510   24.5060   -9.0820 C.ar   78  PHE78      -0.0200
    132  CD1       33.3590   24.1570   -9.6910 C.ar   78  PHE78      -0.0042
    133  CD2       35.0030   25.8430   -9.2060 C.ar   78  PHE78      -0.0042
    134  CE1       32.6330   25.1020  -10.4090 C.ar   78  PHE78      -0.0003
    135  CE2       34.2800   26.7710   -9.9500 C.ar   78  PHE78      -0.0003
    136  CZ        33.0830   26.4020  -10.5370 C.ar   78  PHE78      -0.0000
    137  N         35.4790   22.1710  -11.3600 N.am   79  GLY79      -0.1954
    138  CA        35.8390   22.3940  -12.7610 C.3    79  GLY79       0.1869
    139  C         37.2930   22.0710  -13.0870 C.2    79  GLY79       0.2309
    140  O         37.9170   22.6950  -13.9670 O.2    79  GLY79      -0.2863
    141  N         27.1960   24.4800  -12.9710 N.3    99  LEU99      -0.1245
    142  CA        25.9040   24.0620  -13.5700 C.3    99  LEU99       0.1561
    143  C         25.6350   24.9020  -14.8560 C.2    99  LEU99       0.2260
    144  O         26.5460   24.9820  -15.6460 O.2    99  LEU99      -0.2867
    145  CB        24.7770   24.0890  -12.5870 C.3    99  LEU99       0.0270
    146  CG        24.9290   23.2670  -11.2760 C.3    99  LEU99       0.0019
    147  CD1       23.5570   23.1090  -10.6050 C.3    99  LEU99       0.0001
    148  CD2       25.4180   21.9130  -11.5580 C.3    99  LEU99       0.0001
@<TRIPOS>BOND
     1     1     2    1
     2     4     3    2
     3     5     2    1
     4     5     6    1
     5    37    36    2
     6    39    38    1
     7     2     3    1
     8     3     7   am
     9    36    35    1
    10    38    35    1
    11    38    40    1
    12     7     8    1
    13    10     9    2
    14    35    34    1
    15     8     9    1
    16     8    11    1
    17    49    47   ar
    18    49    51   ar
    19    25    24    2
    20    23    24    1
    21    23    22    1
    22    52    51    1
    23     9    15   am
    24    47    46   ar
    25    24    26   am
    26    22    17   am
    27    34    28   am
    28    51    50   ar
    29    41    42    1
    30    11    12    1
    31    29    28    2
    32    12    13    1
    33    28    27    1
    34    15    16    1
    35    17    16    1
    36    17    18    2
    37    26    27    1
    38    46    45    1
    39    46    48   ar
    40    16    19    1
    41    50    48   ar
    42    27    30    1
    43    42    45    1
    44    42    43    1
    45    13    14    1
    46    44    43    2
    47    43    53   am
    48    19    21    1
    49    19    20    1
    50    30    31    1
    51    86    87    1
    52    66    64    1
    53    90    87    1
    54    90    91    1
    55    53    54    1
    56    87    88    1
    57   144   143    2
    58    31    32    2
    59    31    33   am
    60    65    64    1
    61    64    61    1
    62    54    55    1
    63    54    57    1
    64    89    88    2
    65   143   142    1
    66    88    92   am
    67    60    55   am
    68    60    61    1
    69    55    56    2
    70    58    57    1
    71    61    62    1
    72    57    59    1
    73   140   139    2
    74   142   141    1
    75   142   145    1
    76    92    93    1
    77    85    84    2
    78   139   138    1
    79    62    63    2
    80    62    67   am
    81   138   137    1
    82    84    83    1
    83   145   146    1
    84    93    94    1
    85    67    68    1
    86   148   146    1
    87    95    94    2
    88   137   128   am
    89    70    69    2
    90    94    96   am
    91    83    82    1
    92   146   147    1
    93    68    69    1
    94    69    71   am
    95   136   134   ar
    96   136   135   ar
    97    82    73   am
    98   129   128    2
    99   134   132   ar
   100   128   127    1
   101    74    73    2
   102    96    97    1
   103    73    72    1
   104   135   133   ar
   105   121   120    2
   106   132   131   ar
   107    71    72    1
   108   133   131   ar
   109   131   130    1
   110    72    75    1
   111   127   130    1
   112   127   126    1
   113    97   100    1
   114    97    98    1
   115    75    76    1
   116   120   126   am
   117   120   119    1
   118   100   101    1
   119    78    76   ar
   120    78    80   ar
   121    76    77   ar
   122   119   122    1
   123   119   118    1
   124    98    99    2
   125    80    81   ar
   126   122   123    1
   127   112   110   ar
   128   112   113   ar
   129   101   103   am
   130   101   102    2
   131   110   109   ar
   132   115   113   ar
   133   115   117   ar
   134   113   111   ar
   135   123   124    1
   136   109   111   ar
   137   109   108    1
   138   117   116   ar
   139   111   114   ar
   140   108   105    1
   141   114   116   ar
   142    77    79   ar
   143    81    79   ar
   144   124   125    1
   145   105   104    1
   146   105   106    1
   147   107   106    2
