@<TRIPOS>MOLECULE
tmp/4bmzB00.pdb
 141 133 0 0 0
SMALL
GASTEIGER

@<TRIPOS>ATOM
      1  N        -13.8910    7.7080  -18.1330 N.3    13  ALA13      -0.1231
      2  CA       -14.9770    8.6330  -18.4710 C.3    13  ALA13       0.1694
      3  C        -14.5170   10.0800  -18.6540 C.2    13  ALA13       0.2591
      4  O        -15.1200   10.7920  -19.4330 O.2    13  ALA13      -0.2718
      5  CB       -16.0990    8.5930  -17.4250 C.3    13  ALA13       0.0304
      6  N        -13.4690   10.4910  -17.9330 N.am   14  MET14      -0.1979
      7  CA       -12.9580   11.8290  -17.9970 C.3    14  MET14       0.1605
      8  C        -11.5110   11.8290  -18.4510 C.2    14  MET14       0.2287
      9  O        -10.7720   10.8500  -18.1920 O.2    14  MET14      -0.2864
     10  CB       -12.9830   12.4600  -16.6070 C.3    14  MET14       0.0413
     11  CG       -14.4280   12.6620  -16.0920 C.3    14  MET14       0.0598
     12  SD       -14.4740   13.1890  -14.3640 S.3    14  MET14      -0.1393
     13  CE       -13.3090   14.5610  -14.2590 C.3    14  MET14       0.0692
     14  N         -8.8180   10.5360  -16.2520 N.3    17  GLU17      -0.1245
     15  CA        -8.6970    9.0950  -15.9960 C.3    17  GLU17       0.1567
     16  C         -7.8500    8.3390  -17.0470 C.2    17  GLU17       0.2260
     17  O         -7.3550    7.2000  -16.8160 O.2    17  GLU17      -0.2867
     18  CB       -10.0940    8.4380  -15.7980 C.3    17  GLU17       0.0388
     19  CG       -10.7870    9.0430  -14.5990 C.3    17  GLU17       0.1160
     20  CD       -12.2650    8.7310  -14.5900 C.2    17  GLU17       0.3649
     21  OE1      -12.8590    8.7460  -15.6610 O.co2  17  GLU17      -0.2457
     22  OE2      -12.8320    8.4470  -13.5080 O.co2  17  GLU17      -0.2457
     23  N        -18.8780   12.0220  -19.5150 N.3    56  ILE56      -0.1245
     24  CA       -19.5410   11.4960  -18.3250 C.3    56  ILE56       0.1561
     25  C        -20.9530   10.9430  -18.6260 C.2    56  ILE56       0.2260
     26  O        -21.7130   11.4810  -19.4610 O.2    56  ILE56      -0.2867
     27  CB       -19.6460   12.5910  -17.2380 C.3    56  ILE56       0.0252
     28  CG1      -18.2230   12.9190  -16.6850 C.3    56  ILE56       0.0019
     29  CG2      -20.6120   12.2060  -16.0930 C.3    56  ILE56       0.0019
     30  CD1      -18.2230   14.2780  -15.9360 C.3    56  ILE56       0.0001
     31  N        -12.6750    6.7000  -11.3760 N.3    82  VAL82      -0.1231
     32  CA       -12.8650    6.9840   -9.9760 C.3    82  VAL82       0.1692
     33  C        -14.3240    6.7080   -9.5690 C.2    82  VAL82       0.2592
     34  O        -15.2140    6.7030  -10.4210 O.2    82  VAL82      -0.2718
     35  CB       -12.4470    8.4540   -9.6460 C.3    82  VAL82       0.0266
     36  CG1      -10.9660    8.6730   -9.9940 C.3    82  VAL82       0.0020
     37  CG2      -13.3430    9.5060  -10.3160 C.3    82  VAL82       0.0020
     38  N        -14.5830    6.5300   -8.2740 N.am   83  ALA83      -0.1966
     39  CA       -15.9680    6.1980   -7.8490 C.3    83  ALA83       0.1728
     40  C        -16.2080    6.6700   -6.4070 C.2    83  ALA83       0.2616
     41  O        -15.2680    7.0460   -5.6480 O.2    83  ALA83      -0.2715
     42  CB       -16.2410    4.6800   -7.9940 C.3    83  ALA83       0.0334
     43  N        -17.4890    6.6560   -6.0100 N.am   84  GLY84      -0.1955
     44  CA       -17.8150    7.0140   -4.6250 C.3    84  GLY84       0.1869
     45  C        -18.0420    5.7280   -3.8230 C.2    84  GLY84       0.2309
     46  O        -18.7430    4.7950   -4.2600 O.2    84  GLY84      -0.2863
     47  N        -26.6810   10.4430  -12.0830 N.3   156  GLN156     -0.1231
     48  CA       -26.6520   11.4590  -11.0340 C.3   156  GLN156      0.1698
     49  C        -25.3650   11.2750  -10.2710 C.2   156  GLN156      0.2592
     50  O        -24.9130   10.1370  -10.0610 O.2   156  GLN156     -0.2718
     51  CB       -27.8770   11.3790  -10.0890 C.3   156  GLN156      0.0381
     52  CG       -29.2560   11.2330  -10.7760 C.3   156  GLN156      0.0905
     53  CD       -29.4920    9.8190  -11.3420 C.2   156  GLN156      0.2608
     54  OE1      -29.1400    8.7990  -10.7050 O.2   156  GLN156     -0.2717
     55  NE2      -30.1030    9.7330  -12.5330 N.am  156  GLN156     -0.0878
     56  N        -24.7180   12.3810   -9.9490 N.am  157  PHE157     -0.1962
     57  CA       -23.6260   12.3440   -9.0150 C.3   157  PHE157      0.1771
     58  C        -24.2690   12.2320   -7.6350 C.2   157  PHE157      0.2619
     59  O        -25.0060   13.0700   -7.2270 O.2   157  PHE157     -0.2715
     60  CB       -22.7510   13.6070   -9.1060 C.3   157  PHE157      0.0574
     61  CG       -21.5790   13.5540   -8.1820 C.ar  157  PHE157     -0.0200
     62  CD1      -20.4620   12.8350   -8.5160 C.ar  157  PHE157     -0.0042
     63  CD2      -21.6230   14.2220   -6.9920 C.ar  157  PHE157     -0.0042
     64  CE1      -19.3470   12.8180   -7.6270 C.ar  157  PHE157     -0.0003
     65  CE2      -20.5430   14.1940   -6.1320 C.ar  157  PHE157     -0.0003
     66  CZ       -19.4160   13.4850   -6.4610 C.ar  157  PHE157     -0.0000
     67  N        -23.9560   11.1360   -6.9460 N.am  158  VAL158     -0.1977
     68  CA       -24.6030   10.8570   -5.6520 C.3   158  VAL158      0.1596
     69  C        -23.8260   11.5240   -4.5480 C.2   158  VAL158      0.2287
     70  O        -22.6080   11.3630   -4.4650 O.2   158  VAL158     -0.2864
     71  CB       -24.7210    9.3360   -5.4650 C.3   158  VAL158      0.0276
     72  CG1      -25.3000    8.9920   -4.0560 C.3   158  VAL158      0.0022
     73  CG2      -25.6430    8.7730   -6.5130 C.3   158  VAL158      0.0022
     74  N        -20.5490    3.6400   -6.1840 N.3   176  VAL176     -0.1231
     75  CA       -21.4050    4.2960   -7.1470 C.3   176  VAL176      0.1692
     76  C        -20.6050    5.1220   -8.1430 C.2   176  VAL176      0.2592
     77  O        -19.5900    5.7500   -7.7700 O.2   176  VAL176     -0.2718
     78  CB       -22.4870    5.1530   -6.4370 C.3   176  VAL176      0.0266
     79  CG1      -21.8970    6.1820   -5.4830 C.3   176  VAL176      0.0020
     80  CG2      -23.4970    5.7180   -7.4100 C.3   176  VAL176      0.0020
     81  N        -21.0860    5.1540   -9.3820 N.am  177  GLU177     -0.1966
     82  CA       -20.4480    5.9590  -10.4510 C.3   177  GLU177      0.1733
     83  C        -21.4480    6.0910  -11.5890 C.2   177  GLU177      0.2616
     84  O        -22.6720    5.8650  -11.3930 O.2   177  GLU177     -0.2715
     85  CB       -19.0610    5.3810  -10.8680 C.3   177  GLU177      0.0429
     86  CG       -18.9480    3.8620  -10.8370 C.3   177  GLU177      0.1163
     87  CD       -19.2730    3.1810  -12.1600 C.2   177  GLU177      0.3649
     88  OE1      -20.3290    3.5070  -12.7290 O.co2 177  GLU177     -0.2457
     89  OE2      -18.4870    2.2830  -12.6340 O.co2 177  GLU177     -0.2457
     90  N        -20.9890    6.6030  -12.7370 N.am  178  MET178     -0.1963
     91  CA       -21.9330    7.0000  -13.8340 C.3   178  MET178      0.1736
     92  C        -21.7430    6.3320  -15.1400 C.2   178  MET178      0.2616
     93  O        -22.4440    6.6720  -16.1070 O.2   178  MET178     -0.2715
     94  CB       -21.9440    8.5230  -13.9790 C.3   178  MET178      0.0427
     95  CG       -22.2790    9.1580  -12.6420 C.3   178  MET178      0.0599
     96  SD       -22.1850   10.9390  -12.6300 S.3   178  MET178     -0.1393
     97  CE       -23.5120   11.4090  -13.6990 C.3   178  MET178      0.0692
     98  N        -20.7920    5.3910  -15.2150 N.am  179  GLU179     -0.1977
     99  CA       -20.4700    4.7390  -16.4680 C.3   179  GLU179      0.1602
    100  C        -20.2820    3.2340  -16.4870 C.2   179  GLU179      0.2287
    101  O        -20.4260    2.6220  -17.5640 O.2   179  GLU179     -0.2864
    102  CB       -19.2390    5.3240  -17.1780 C.3   179  GLU179      0.0415
    103  CG       -19.2800    6.7990  -17.4290 C.3   179  GLU179      0.1163
    104  CD       -18.9220    7.5740  -16.2080 C.2   179  GLU179      0.3649
    105  OE1      -18.1970    7.0340  -15.3330 O.co2 179  GLU179     -0.2457
    106  OE2      -19.2750    8.7490  -16.1120 O.co2 179  GLU179     -0.2457
    107  N        -12.3680    0.5410  -10.3220 N.3   198  ARG198     -0.1245
    108  CA       -12.5300    1.8990   -9.7900 C.3   198  ARG198      0.1563
    109  C        -11.6630    2.1640   -8.5880 C.2   198  ARG198      0.2260
    110  O        -11.5130    1.2920   -7.7340 O.2   198  ARG198     -0.2867
    111  CB       -14.0190    2.1510   -9.4410 C.3   198  ARG198      0.0307
    112  CG       -14.9630    2.0590  -10.6570 C.3   198  ARG198      0.0489
    113  CD       -14.9170    3.3080  -11.5760 C.3   198  ARG198      0.2205
    114  NE       -16.0380    3.4230  -12.5480 N.pl3 198  ARG198     -0.0865
    115  CZ       -16.3390    4.5520  -13.2350 C.cat 198  ARG198      0.5346
    116  NH1      -15.6270    5.6870  -13.0930 N.pl3 198  ARG198      0.1354
    117  NH2      -17.3810    4.5800  -14.0710 N.pl3 198  ARG198      0.1354
    118  N        -14.2500    9.5790   -3.1120 N.3   202  ASN202     -0.1240
    119  CA       -15.2080   10.2910   -2.2570 C.3   202  ASN202      0.1653
    120  C        -16.1480    9.2860   -1.6290 C.2   202  ASN202      0.2266
    121  O        -16.0970    8.0930   -1.9880 O.2   202  ASN202     -0.2867
    122  CB       -15.9640   11.3640   -3.0360 C.3   202  ASN202      0.1155
    123  CG       -16.8790   10.7670   -4.1370 C.2   202  ASN202      0.2627
    124  OD1      -18.0560   10.4300   -3.8550 O.2   202  ASN202     -0.2716
    125  ND2      -16.3250   10.5750   -5.3700 N.am  202  ASN202     -0.0877
    126  N        -19.5990    9.6970   -1.4670 N.3   204  ALA204     -0.1245
    127  CA       -20.9450    9.7390   -2.0540 C.3   204  ALA204      0.1562
    128  C        -21.9510   10.4100   -1.0930 C.2   204  ALA204      0.2260
    129  O        -23.1660   10.1770   -1.1640 O.2   204  ALA204     -0.2867
    130  CB       -21.4010    8.3210   -2.3740 C.3   204  ALA204      0.0290
    131  N        -14.2710   14.5760   -4.1460 N.3   212  PHE212     -0.1241
    132  CA       -14.0590   14.2970   -5.5840 C.3   212  PHE212      0.1605
    133  C        -12.9880   15.2030   -6.2280 C.2   212  PHE212      0.2264
    134  O        -12.0880   14.7260   -6.8860 O.2   212  PHE212     -0.2867
    135  CB       -15.4180   14.4820   -6.3360 C.3   212  PHE212      0.0534
    136  CG       -15.3180   14.1110   -7.7940 C.ar  212  PHE212     -0.0203
    137  CD1      -14.8360   15.0430   -8.7200 C.ar  212  PHE212     -0.0042
    138  CD2      -15.6700   12.8270   -8.2280 C.ar  212  PHE212     -0.0042
    139  CE1      -14.7040   14.6940  -10.0740 C.ar  212  PHE212     -0.0003
    140  CE2      -15.5210   12.4730   -9.5640 C.ar  212  PHE212     -0.0003
    141  CZ       -15.0220   13.4070  -10.4880 C.ar  212  PHE212     -0.0000
@<TRIPOS>BOND
     1    23    24    1
     2    26    25    2
     3     4     3    2
     4     3     2    1
     5     3     6   am
     6    25    24    1
     7     2     1    1
     8     2     5    1
     9     8     9    2
    10     8     7    1
    11    24    27    1
    12     7     6    1
    13     7    10    1
    14   101   100    2
    15   103   102    1
    16   103   104    1
    17    27    28    1
    18    27    29    1
    19   102    99    1
    20    16    17    2
    21    16    15    1
    22    28    30    1
    23    10    11    1
    24   100    99    1
    25    99    98    1
    26    14    15    1
    27   104   106   ar
    28   104   105   ar
    29    93    92    2
    30    11    12    1
    31    15    18    1
    32    18    19    1
    33    21    20   ar
    34    98    92   am
    35    92    91    1
    36    19    20    1
    37    20    22   ar
    38    12    13    1
    39   117   115    1
    40    94    91    1
    41    94    95    1
    42    91    90    1
    43    97    96    1
    44   115   116    1
    45   115   114    2
    46    90    83   am
    47    88    87   ar
    48    95    96    1
    49    89    87   ar
    50   114   113    1
    51    55    53   am
    52    87    86    1
    53    47    48    1
    54    83    84    2
    55    83    82    1
    56   113   112    1
    57    31    32    1
    58    53    52    1
    59    53    54    2
    60    48    49    1
    61    48    51    1
    62    85    86    1
    63    85    82    1
    64    52    51    1
    65   112   111    1
    66   141   139   ar
    67   141   140   ar
    68    82    81    1
    69    34    33    2
    70   107   108    1
    71    37    35    1
    72    49    50    2
    73    49    56   am
    74   139   137   ar
    75    36    35    1
    76    32    35    1
    77    32    33    1
    78    56    57    1
    79   108   111    1
    80   108   109    1
    81    33    38   am
    82   140   138   ar
    83    81    76   am
    84    60    57    1
    85    60    61    1
    86    57    58    1
    87   137   136   ar
    88   109   110    2
    89    62    61   ar
    90    62    64   ar
    91    38    39    1
    92   138   136   ar
    93    61    63   ar
    94    76    77    2
    95    76    75    1
    96    42    39    1
    97    39    40    1
    98   136   135    1
    99    58    59    2
   100    58    67   am
   101    64    66   ar
   102    80    78    1
   103    75    78    1
   104    75    74    1
   105    63    65   ar
   106    67    68    1
   107   134   133    2
   108    73    71    1
   109    66    65   ar
   110    78    79    1
   111    40    43   am
   112    40    41    2
   113   135   132    1
   114   133   132    1
   115    43    44    1
   116    68    71    1
   117    68    69    1
   118   132   131    1
   119    71    72    1
   120   125   123   am
   121    44    45    1
   122    69    70    2
   123    46    45    2
   124   123   124    2
   125   123   122    1
   126   118   119    1
   127   122   119    1
   128   130   127    1
   129   119   120    1
   130   127   126    1
   131   127   128    1
   132   121   120    2
   133   129   128    2
