@<TRIPOS>MOLECULE
tmp/4bn2A00.pdb
 128 124 0 0 0
SMALL
GASTEIGER

@<TRIPOS>ATOM
      1  N        -37.3700   -7.2790  -30.3180 N.3     9  ARG9       -0.1231
      2  CA       -36.5910   -7.8710  -31.3930 C.3     9  ARG9        0.1694
      3  C        -36.7390   -9.3650  -31.3580 C.2     9  ARG9        0.2592
      4  O        -36.4430   -9.9850  -30.3450 O.2     9  ARG9       -0.2718
      5  CB       -35.1060   -7.5100  -31.2870 C.3     9  ARG9        0.0321
      6  CG       -34.2890   -8.1820  -32.3950 C.3     9  ARG9        0.0489
      7  CD       -32.8050   -7.8740  -32.3080 C.3     9  ARG9        0.2205
      8  NE       -32.1340   -8.0840  -33.5880 N.pl3   9  ARG9       -0.0865
      9  CZ       -30.8170   -7.9640  -33.7900 C.cat   9  ARG9        0.5346
     10  NH1      -29.9910   -7.6620  -32.7860 N.pl3   9  ARG9        0.1354
     11  NH2      -30.3120   -8.1470  -35.0040 N.pl3   9  ARG9        0.1354
     12  N        -37.1980   -9.9530  -32.4550 N.am   10  ILE10      -0.1966
     13  CA       -37.3290  -11.4030  -32.5200 C.3    10  ILE10       0.1727
     14  C        -36.0920  -11.9800  -33.1820 C.2    10  ILE10       0.2616
     15  O        -35.8040  -11.6710  -34.3220 O.2    10  ILE10      -0.2715
     16  CB       -38.5740  -11.8130  -33.3090 C.3    10  ILE10       0.0290
     17  CG1      -39.7830  -11.0090  -32.8140 C.3    10  ILE10       0.0022
     18  CG2      -38.8230  -13.3410  -33.2160 C.3    10  ILE10       0.0023
     19  CD1      -40.9650  -11.1640  -33.6920 C.3    10  ILE10       0.0001
     20  N        -35.3360  -12.7940  -32.4580 N.am   11  ARG11      -0.1964
     21  CA       -34.1820  -13.4500  -33.0670 C.3    11  ARG11       0.1714
     22  C        -34.6730  -14.6280  -33.8880 C.2    11  ARG11       0.2458
     23  O        -35.7460  -15.1810  -33.6310 O.2    11  ARG11      -0.2730
     24  CB       -33.2010  -13.9710  -32.0200 C.3    11  ARG11       0.0347
     25  CG       -33.7930  -15.0440  -31.1370 C.3    11  ARG11       0.0492
     26  CD       -32.7480  -15.9350  -30.5320 C.3    11  ARG11       0.2205
     27  NE       -32.2070  -16.8910  -31.4910 N.pl3  11  ARG11      -0.0865
     28  CZ       -31.6090  -18.0290  -31.1460 C.cat  11  ARG11       0.5346
     29  NH1      -31.4870  -18.3750  -29.8740 N.pl3  11  ARG11       0.1354
     30  NH2      -31.1400  -18.8310  -32.0810 N.pl3  11  ARG11       0.1354
     31  N        -33.9120  -14.9940  -34.9090 N.am   12  PRO12      -0.2727
     32  CA       -34.2430  -16.1650  -35.7100 C.3    12  PRO12       0.1402
     33  C        -33.8930  -17.4330  -34.9590 C.2    12  PRO12       0.2269
     34  O        -32.8440  -17.5110  -34.3020 O.2    12  PRO12      -0.2865
     35  CB       -33.3340  -16.0140  -36.9140 C.3    12  PRO12       0.0296
     36  CG       -32.1330  -15.3260  -36.3660 C.3    12  PRO12       0.0237
     37  CD       -32.6700  -14.3490  -35.3540 C.3    12  PRO12       0.0939
     38  N        -31.1390  -22.9150  -37.2440 N.3    15  GLU15      -0.1245
     39  CA       -31.5600  -23.4700  -38.5320 C.3    15  GLU15       0.1567
     40  C        -31.8210  -24.9600  -38.4240 C.2    15  GLU15       0.2260
     41  O        -31.1490  -25.6590  -37.6550 O.2    15  GLU15      -0.2867
     42  CB       -30.5320  -23.1810  -39.6360 C.3    15  GLU15       0.0388
     43  CG       -30.3990  -21.7280  -40.0460 C.3    15  GLU15       0.1160
     44  CD       -29.7670  -20.8340  -39.0100 C.2    15  GLU15       0.3649
     45  OE1      -28.9810  -21.3250  -38.1610 O.co2  15  GLU15      -0.2457
     46  OE2      -30.0030  -19.6030  -38.9940 O.co2  15  GLU15      -0.2457
     47  N        -37.2070  -11.4950  -37.5650 N.3    49  VAL49      -0.1245
     48  CA       -36.0120  -12.3130  -37.4970 C.3    49  VAL49       0.1561
     49  C        -34.9500  -11.8940  -38.4830 C.2    49  VAL49       0.2260
     50  O        -33.8010  -12.2800  -38.3410 O.2    49  VAL49      -0.2867
     51  CB       -36.3570  -13.7470  -37.7830 C.3    49  VAL49       0.0252
     52  CG1      -37.2090  -14.3170  -36.6210 C.3    49  VAL49       0.0019
     53  CG2      -37.0870  -13.8240  -39.1320 C.3    49  VAL49       0.0019
     54  N        -34.1290   -8.6750  -39.2030 N.3    51  THR51      -0.1218
     55  CA       -33.6430   -7.3300  -38.9210 C.3    51  THR51       0.1862
     56  C        -32.1400   -7.3420  -38.6920 C.2    51  THR51       0.2287
     57  O        -31.6440   -8.1710  -37.9350 O.2    51  THR51      -0.2866
     58  CB       -34.3360   -6.7480  -37.6960 C.3    51  THR51       0.1770
     59  OG1      -35.7580   -6.7450  -37.9030 O.3    51  THR51      -0.2211
     60  CG2      -33.8680   -5.3350  -37.4550 C.3    51  THR51       0.0375
     61  N        -32.5600  -15.9490  -21.1680 N.3    82  THR82      -0.1203
     62  CA       -31.2760  -16.4540  -21.6340 C.3    82  THR82       0.1994
     63  C        -31.4060  -17.1340  -22.9970 C.2    82  THR82       0.2618
     64  O        -32.2770  -17.9680  -23.1960 O.2    82  THR82      -0.2717
     65  CB       -30.6950  -17.4450  -20.6270 C.3    82  THR82       0.1784
     66  OG1      -30.4940  -16.7700  -19.3850 O.3    82  THR82      -0.2211
     67  CG2      -29.3560  -18.0130  -21.1040 C.3    82  THR82       0.0376
     68  N        -30.5320  -16.7600  -23.9270 N.am   83  GLY83      -0.1942
     69  CA       -30.5840  -17.2930  -25.2700 C.3    83  GLY83       0.2014
     70  C        -31.5530  -16.5490  -26.1650 C.2    83  GLY83       0.2640
     71  O        -31.8200  -16.9940  -27.2700 O.2    83  GLY83      -0.2714
     72  N        -32.0790  -15.4140  -25.7110 N.am   84  SER84      -0.1935
     73  CA       -32.9860  -14.6450  -26.5650 C.3    84  SER84       0.2055
     74  C        -32.2450  -13.6730  -27.5140 C.2    84  SER84       0.2644
     75  O        -32.8200  -13.2090  -28.5290 O.2    84  SER84      -0.2714
     76  CB       -34.0780  -13.9430  -25.7580 C.3    84  SER84       0.2130
     77  OG       -33.5210  -13.0710  -24.7820 O.3    84  SER84      -0.2179
     78  N        -30.9490  -13.4800  -27.2680 N.am   85  GLY85      -0.1939
     79  CA       -30.1730  -12.5650  -28.0880 C.3    85  GLY85       0.2014
     80  C        -29.7750  -11.2300  -27.4730 C.2    85  GLY85       0.2639
     81  O        -29.3930  -10.2940  -28.1940 O.2    85  GLY85      -0.2714
     82  N        -29.8690  -11.1100  -26.1540 N.am   86  LYS86      -0.1963
     83  CA       -29.4030   -9.8800  -25.5220 C.3    86  LYS86       0.1728
     84  C        -27.9870   -9.5260  -25.9240 C.2    86  LYS86       0.2617
     85  O        -27.7210   -8.3680  -26.3320 O.2    86  LYS86      -0.2715
     86  CB       -29.4980   -9.9450  -24.0060 C.3    86  LYS86       0.0311
     87  CG       -30.9270  -10.0840  -23.5130 C.3    86  LYS86       0.0038
     88  CD       -30.9860  -10.2690  -22.0010 C.3    86  LYS86       0.0206
     89  CE       -30.1370  -11.4260  -21.5350 C.3    86  LYS86       0.1093
     90  NZ       -30.7390  -12.7110  -21.9200 N.3    86  LYS86      -0.1314
     91  N        -27.0800  -10.5050  -25.8250 N.am   87  THR87      -0.1937
     92  CA       -25.6550  -10.2180  -26.0200 C.3    87  THR87       0.2028
     93  C        -25.3420   -9.9280  -27.4820 C.2    87  THR87       0.2642
     94  O        -24.6500   -8.9760  -27.8050 O.2    87  THR87      -0.2714
     95  CB       -24.7370  -11.3340  -25.4700 C.3    87  THR87       0.1808
     96  OG1      -25.0230  -11.5600  -24.0820 O.3    87  THR87      -0.2208
     97  CG2      -23.2770  -10.9450  -25.6020 C.3    87  THR87       0.0379
     98  N        -25.8920  -10.7480  -28.3570 N.am   88  PHE88      -0.1959
     99  CA       -25.7890  -10.5380  -29.7790 C.3    88  PHE88       0.1771
    100  C        -26.2350   -9.1310  -30.0920 C.2    88  PHE88       0.2620
    101  O        -25.5730   -8.4240  -30.8430 O.2    88  PHE88      -0.2715
    102  CB       -26.6890  -11.5260  -30.4940 C.3    88  PHE88       0.0574
    103  CG       -26.6310  -11.4330  -31.9970 C.ar   88  PHE88      -0.0200
    104  CD1      -25.6290  -12.0710  -32.7090 C.ar   88  PHE88      -0.0042
    105  CD2      -27.5860  -10.7310  -32.6960 C.ar   88  PHE88      -0.0042
    106  CE1      -25.5860  -12.0020  -34.0690 C.ar   88  PHE88      -0.0003
    107  CE2      -27.5500  -10.6650  -34.0540 C.ar   88  PHE88      -0.0003
    108  CZ       -26.5470  -11.3100  -34.7490 C.ar   88  PHE88      -0.0000
    109  N        -27.3500   -8.7190  -29.4990 N.am   89  THR89      -0.1951
    110  CA       -27.8640   -7.3570  -29.6890 C.3    89  THR89       0.1897
    111  C        -26.9630   -6.1870  -29.2120 C.2    89  THR89       0.2313
    112  O        -26.7000   -5.2710  -29.9920 O.2    89  THR89      -0.2863
    113  CB       -29.2900   -7.2300  -29.1030 C.3    89  THR89       0.1794
    114  OG1      -30.1360   -8.1600  -29.7820 O.3    89  THR89      -0.2208
    115  CG2      -29.8620   -5.8270  -29.2770 C.3    89  THR89       0.0378
    116  N        -21.6950  -11.0740  -32.0640 N.3    93  PRO93      -0.2116
    117  CA       -21.1940  -12.4140  -31.8250 C.3    93  PRO93       0.1372
    118  C        -19.7970  -12.3380  -31.2370 C.2    93  PRO93       0.2244
    119  O        -19.0990  -11.3260  -31.4010 O.2    93  PRO93      -0.2868
    120  CB       -21.1840  -13.0260  -33.2230 C.3    93  PRO93       0.0268
    121  CG       -21.2120  -11.8850  -34.1430 C.3    93  PRO93       0.0207
    122  CD       -22.0670  -10.8830  -33.4680 C.3    93  PRO93       0.0892
    123  N        -25.0640  -16.0620  -17.7270 N.3   200  SER200     -0.1217
    124  CA       -26.4960  -15.9330  -17.9100 C.3   200  SER200      0.1889
    125  C        -27.1410  -15.3150  -16.6870 C.2   200  SER200      0.2288
    126  O        -28.2800  -14.8660  -16.7530 O.2   200  SER200     -0.2866
    127  CB       -27.1230  -17.2990  -18.1790 C.3   200  SER200      0.2089
    128  OG       -27.1470  -18.0730  -16.9910 O.3   200  SER200     -0.2183
@<TRIPOS>BOND
     1    43    42    1
     2    43    44    1
     3    42    39    1
     4    54    55    1
     5    53    51    1
     6    44    46   ar
     7    44    45   ar
     8    55    56    1
     9    55    58    1
    10    56    57    2
    11    39    40    1
    12    39    38    1
    13    49    50    2
    14    49    48    1
    15    40    41    2
    16    59    58    1
    17    51    48    1
    18    51    52    1
    19    58    60    1
    20    47    48    1
    21    35    36    1
    22    35    32    1
    23    36    37    1
    24    32    33    1
    25    32    31    1
    26    37    31    1
    27    11     9    1
    28    33    34    2
    29    31    22   am
    30   108   106   ar
    31   108   107   ar
    32    15    14    2
    33   121   122    1
    34   121   120    1
    35   106   104   ar
    36   107   105   ar
    37    22    23    2
    38    22    21    1
    39     9     8    2
    40     9    10    1
    41    19    17    1
    42     8     7    1
    43   122   116    1
    44    16    18    1
    45    16    17    1
    46    16    13    1
    47   120   117    1
    48    14    13    1
    49    14    20   am
    50    21    20    1
    51    21    24    1
    52   104   103   ar
    53   105   103   ar
    54    13    12    1
    55    12     3   am
    56     6     7    1
    57     6     5    1
    58    30    28    1
    59   116   117    1
    60    24    25    1
    61   103   102    1
    62   117   118    1
    63    27    28    2
    64    27    26    1
    65   119   118    2
    66     2     3    1
    67     2     5    1
    68     2     1    1
    69     3     4    2
    70    28    29    1
    71    25    26    1
    72   101   100    2
    73   102    99    1
    74   100    99    1
    75   100   109   am
    76   112   111    2
    77   114   113    1
    78    99    98    1
    79   110   109    1
    80   110   111    1
    81   110   113    1
    82   115   113    1
    83    75    74    2
    84    98    93   am
    85    81    80    2
    86    79    80    1
    87    79    78    1
    88    94    93    2
    89    74    78   am
    90    74    73    1
    91    93    92    1
    92    80    82   am
    93    71    70    2
    94    73    76    1
    95    73    72    1
    96    85    84    2
    97    70    72   am
    98    70    69    1
    99    82    83    1
   100    92    91    1
   101    92    95    1
   102    84    91   am
   103    84    83    1
   104    76    77    1
   105    97    95    1
   106    83    86    1
   107    95    96    1
   108    69    68    1
   109    86    87    1
   110    68    63   am
   111    87    88    1
   112    64    63    2
   113    63    62    1
   114    88    89    1
   115    90    89    1
   116    62    61    1
   117    62    65    1
   118    67    65    1
   119    65    66    1
   120   127   124    1
   121   127   128    1
   122   124   123    1
   123   124   125    1
   124   126   125    2
