@<TRIPOS>MOLECULE
tmp/4bn4A01.pdb
 152 144 0 0 0
SMALL
GASTEIGER

@<TRIPOS>ATOM
      1  N         12.1390    0.4680    3.1330 N.3    26  ALA26      -0.1245
      2  CA        12.8950    0.4020    4.3910 C.3    26  ALA26       0.1562
      3  C         12.1540   -0.1960    5.5870 C.2    26  ALA26       0.2260
      4  O         12.7290   -0.6680    6.5520 O.2    26  ALA26      -0.2867
      5  CB        13.3670    1.8460    4.7010 C.3    26  ALA26       0.0290
      6  N         13.1670   -3.7240    6.8140 N.3    29  SER29      -0.1217
      7  CA        14.3920   -3.9410    7.5610 C.3    29  SER29       0.1889
      8  C         14.3410   -3.3790    8.9430 C.2    29  SER29       0.2288
      9  O         15.2360   -3.6640    9.7320 O.2    29  SER29      -0.2866
     10  CB        15.6040   -3.4640    6.7650 C.3    29  SER29       0.2089
     11  OG        15.7280   -4.2470    5.5950 O.3    29  SER29      -0.2183
     12  N         17.1530   -1.9610   11.7260 N.3    34  ILE34      -0.1231
     13  CA        17.5760   -0.7930   10.9520 C.3    34  ILE34       0.1678
     14  C         16.4270    0.1980   10.8370 C.2    34  ILE34       0.2434
     15  O         15.3050   -0.1700   10.4160 O.2    34  ILE34      -0.2733
     16  CB        18.0630   -1.1570    9.5560 C.3    34  ILE34       0.0265
     17  CG1       19.1130   -2.2790    9.5560 C.3    34  ILE34       0.0019
     18  CG2       18.5400    0.0520    8.8200 C.3    34  ILE34       0.0020
     19  CD1       19.6030   -2.7280    8.1750 C.3    34  ILE34       0.0001
     20  N         16.6250    1.4600   11.2660 N.am   35  PRO35      -0.2718
     21  CA        15.5300    2.3870   11.0990 C.3    35  PRO35       0.1535
     22  C         15.1390    2.5820    9.6010 C.2    35  PRO35       0.2599
     23  O         15.9320    2.4650    8.7010 O.2    35  PRO35      -0.2715
     24  CB        16.0580    3.7140   11.6480 C.3    35  PRO35       0.0310
     25  CG        17.5620    3.5490   11.6280 C.3    35  PRO35       0.0237
     26  CD        17.8550    2.0980   11.7560 C.3    35  PRO35       0.0939
     27  N         13.8480    2.9960    9.3840 N.am   36  ASP36      -0.1958
     28  CA        13.4470    3.4790    8.1090 C.3    36  ASP36       0.1840
     29  C         13.7630    4.9770    7.9550 C.2    36  ASP36       0.2622
     30  O         14.5510    5.5040    8.7580 O.2    36  ASP36      -0.2715
     31  CB        11.9540    3.1610    7.8350 C.3    36  ASP36       0.1450
     32  CG        10.9480    3.9650    8.7110 C.2    36  ASP36       0.3671
     33  OD1       11.3710    4.9700    9.3630 O.co2  36  ASP36      -0.2456
     34  OD2        9.7420    3.5540    8.6510 O.co2  36  ASP36      -0.2456
     35  N         13.2380    5.5810    6.8800 N.am   37  PHE37      -0.1974
     36  CA        13.5170    7.0050    6.5950 C.3    37  PHE37       0.1639
     37  C         12.4880    7.9260    7.2370 C.2    37  PHE37       0.2290
     38  O         12.8630    8.9560    7.8320 O.2    37  PHE37      -0.2864
     39  CB        13.6030    7.2680    5.1170 C.3    37  PHE37       0.0560
     40  CG        14.7840    6.6470    4.4790 C.ar   37  PHE37      -0.0200
     41  CD1       16.0230    7.2420    4.6370 C.ar   37  PHE37      -0.0042
     42  CD2       14.7010    5.4560    3.8050 C.ar   37  PHE37      -0.0042
     43  CE1       17.1440    6.6630    4.0890 C.ar   37  PHE37      -0.0003
     44  CE2       15.8290    4.8830    3.2200 C.ar   37  PHE37      -0.0003
     45  CZ        17.0710    5.4440    3.4090 C.ar   37  PHE37      -0.0000
     46  N         15.2250    7.8970    9.9740 N.3    44  LEU44      -0.1245
     47  CA        16.4910    8.5520    9.7600 C.3    44  LEU44       0.1561
     48  C         16.3210   10.0050    9.5040 C.2    44  LEU44       0.2260
     49  O         17.0970   10.8370   10.0280 O.2    44  LEU44      -0.2867
     50  CB        17.2880    7.9310    8.6220 C.3    44  LEU44       0.0270
     51  CG        18.6650    8.5650    8.3330 C.3    44  LEU44       0.0019
     52  CD1       19.7190    8.4190    9.4440 C.3    44  LEU44       0.0001
     53  CD2       19.1710    8.2030    6.9060 C.3    44  LEU44       0.0001
     54  N         18.2700   13.2540   11.3960 N.3    48  LEU48      -0.1245
     55  CA        19.3500   14.0360   10.7850 C.3    48  LEU48       0.1561
     56  C         19.0250   15.5200   10.8410 C.2    48  LEU48       0.2260
     57  O         19.9330   16.3720   10.5980 O.2    48  LEU48      -0.2867
     58  CB        19.5280   13.6920    9.3160 C.3    48  LEU48       0.0270
     59  CG        20.0450   12.2700    9.0600 C.3    48  LEU48       0.0019
     60  CD1       20.0730   12.0650    7.5880 C.3    48  LEU48       0.0001
     61  CD2       21.4260   12.0260    9.6410 C.3    48  LEU48       0.0001
     62  N         21.4570   17.4730   12.9560 N.3    51  TYR51      -0.1241
     63  CA        22.8770   17.5390   12.5940 C.3    51  TYR51       0.1605
     64  C         23.1590   18.5760   11.5550 C.2    51  TYR51       0.2264
     65  O         22.2100   19.1620   10.9730 O.2    51  TYR51      -0.2867
     66  CB        23.3770   16.1840   12.1360 C.3    51  TYR51       0.0534
     67  CG        23.3360   15.1700   13.2340 C.ar   51  TYR51      -0.0201
     68  CD1       24.2010   15.2610   14.3160 C.ar   51  TYR51      -0.0009
     69  CD2       22.4720   14.1040   13.1610 C.ar   51  TYR51      -0.0009
     70  CE1       24.2010   14.3250   15.3200 C.ar   51  TYR51       0.0417
     71  CE2       22.4190   13.1660   14.1580 C.ar   51  TYR51       0.0417
     72  CZ        23.3100   13.2590   15.2210 C.ar   51  TYR51       0.1957
     73  OH        23.3380   12.3160   16.1950 O.3    51  TYR51      -0.2866
     74  N         23.6030   19.3020    8.5400 N.3    53  LEU53      -0.1245
     75  CA        23.2150   19.1320    7.1680 C.3    53  LEU53       0.1561
     76  C         22.1200   20.1790    6.9540 C.2    53  LEU53       0.2260
     77  O         21.3140   20.4470    7.8540 O.2    53  LEU53      -0.2867
     78  CB        22.5730   17.7510    6.9630 C.3    53  LEU53       0.0270
     79  CG        23.5520   16.5720    6.8610 C.3    53  LEU53       0.0019
     80  CD1       23.5920   15.9300    8.1960 C.3    53  LEU53       0.0001
     81  CD2       23.0460   15.5360    5.9100 C.3    53  LEU53       0.0001
     82  N         22.1890   14.0180    2.8240 N.3    59  ILE59      -0.1245
     83  CA        23.0980   12.8750    2.9220 C.3    59  ILE59       0.1561
     84  C         23.2130   12.0840    1.6460 C.2    59  ILE59       0.2260
     85  O         24.2240   11.3870    1.4370 O.2    59  ILE59      -0.2867
     86  CB        22.7020   11.9670    4.0770 C.3    59  ILE59       0.0252
     87  CG1       23.8730   11.0980    4.5400 C.3    59  ILE59       0.0019
     88  CG2       21.4060   11.1740    3.8040 C.3    59  ILE59       0.0019
     89  CD1       23.7010   10.6160    5.9200 C.3    59  ILE59       0.0001
     90  N         29.2750   12.3980    6.8840 N.3    71  PRO71      -0.2116
     91  CA        27.9710   11.8640    7.2600 C.3    71  PRO71       0.1372
     92  C         27.6060   10.6390    6.4010 C.2    71  PRO71       0.2244
     93  O         27.1930    9.5830    6.9440 O.2    71  PRO71      -0.2868
     94  CB        27.0270   13.0490    7.0690 C.3    71  PRO71       0.0268
     95  CG        27.8910   14.2230    7.4240 C.3    71  PRO71       0.0207
     96  CD        29.1640   13.8750    6.7030 C.3    71  PRO71       0.0892
     97  N         29.6290    7.6290    7.4130 N.3    74  THR74      -0.1203
     98  CA        29.1910    7.1090    8.6920 C.3    74  THR74       0.1994
     99  C         28.0600    6.1370    8.4180 C.2    74  THR74       0.2617
    100  O         27.9910    5.0430    9.0190 O.2    74  THR74      -0.2717
    101  CB        28.7750    8.2410    9.6200 C.3    74  THR74       0.1784
    102  OG1       29.9150    9.0920    9.8010 O.3    74  THR74      -0.2211
    103  CG2       28.3510    7.7220   10.9710 C.3    74  THR74       0.0376
    104  N         27.1730    6.5180    7.5160 N.am   75  LEU75      -0.1979
    105  CA        26.0960    5.6250    7.1270 C.3    75  LEU75       0.1596
    106  C         26.6200    4.4030    6.4000 C.2    75  LEU75       0.2287
    107  O         26.1700    3.2620    6.6660 O.2    75  LEU75      -0.2864
    108  CB        25.1200    6.4390    6.2830 C.3    75  LEU75       0.0297
    109  CG        23.9180    5.6780    5.7410 C.3    75  LEU75       0.0022
    110  CD1       22.7600    6.5760    5.4600 C.3    75  LEU75       0.0001
    111  CD2       24.3360    5.0970    4.4010 C.3    75  LEU75       0.0001
    112  N         27.9930    1.7420    8.7690 N.3    78  GLU78      -0.1231
    113  CA        26.9740    1.0660    9.5390 C.3    78  GLU78       0.1699
    114  C         26.2880   -0.0090    8.6530 C.2    78  GLU78       0.2592
    115  O         25.8860   -1.0480    9.1870 O.2    78  GLU78      -0.2718
    116  CB        25.9200    2.0700    9.9880 C.3    78  GLU78       0.0402
    117  CG        25.0280    1.5670   11.0980 C.3    78  GLU78       0.1161
    118  CD        25.7560    0.9030   12.2640 C.2    78  GLU78       0.3649
    119  OE1       26.8540    1.4420   12.6710 O.co2  78  GLU78      -0.2457
    120  OE2       25.2500   -0.1790   12.7190 O.co2  78  GLU78      -0.2457
    121  N         26.0980    0.2500    7.3710 N.am   79  LEU79      -0.1980
    122  CA        25.3160   -0.5970    6.4500 C.3    79  LEU79       0.1596
    123  C         26.1380   -1.5810    5.6500 C.2    79  LEU79       0.2287
    124  O         25.5970   -2.4960    5.0850 O.2    79  LEU79      -0.2864
    125  CB        24.4840    0.2180    5.4830 C.3    79  LEU79       0.0297
    126  CG        23.3720    1.0060    6.1660 C.3    79  LEU79       0.0022
    127  CD1       22.5470    1.6710    5.0800 C.3    79  LEU79       0.0001
    128  CD2       22.5120    0.0800    7.0010 C.3    79  LEU79       0.0001
    129  N         16.0590   -0.3180   -0.7980 N.3   109  ASN109     -0.1225
    130  CA        16.9590   -0.3620    0.3410 C.3   109  ASN109      0.1785
    131  C         18.4240   -0.4470   -0.1420 C.2   109  ASN109      0.2597
    132  O         18.7030   -0.9980   -1.1990 O.2   109  ASN109     -0.2718
    133  CB        16.6590   -1.5260    1.2730 C.3   109  ASN109      0.1169
    134  CG        15.2720   -1.4440    1.8970 C.2   109  ASN109      0.2627
    135  OD1       14.8220   -2.5060    2.5000 O.2   109  ASN109     -0.2716
    136  ND2       14.6750   -0.3650    1.8420 N.am  109  ASN109     -0.0877
    137  N         19.2680    0.0590    0.7200 N.am  110  ILE110     -0.1966
    138  CA        20.7400   -0.0270    0.4850 C.3   110  ILE110      0.1727
    139  C         21.4590   -0.8730    1.4720 C.2   110  ILE110      0.2616
    140  O         22.6940   -0.9870    1.4640 O.2   110  ILE110     -0.2715
    141  CB        21.3590    1.3750    0.2990 C.3   110  ILE110      0.0290
    142  CG1       21.0820    2.2550    1.4570 C.3   110  ILE110      0.0022
    143  CG2       20.8200    2.0650   -0.9410 C.3   110  ILE110      0.0023
    144  CD1       21.9050    3.5430    1.5030 C.3   110  ILE110      0.0001
    145  N         20.7240   -1.4850    2.3810 N.am  111  ASP111     -0.1971
    146  CA        21.2560   -2.3870    3.3980 C.3   111  ASP111      0.1709
    147  C         21.7860   -3.6990    2.8720 C.2   111  ASP111      0.2293
    148  O         22.5100   -4.3970    3.5840 O.2   111  ASP111     -0.2864
    149  CB        20.2920   -2.6310    4.5740 C.3   111  ASP111      0.1436
    150  CG        18.9550   -3.2730    4.1430 C.2   111  ASP111      0.3671
    151  OD1       18.9530   -4.0940    3.1880 O.co2 111  ASP111     -0.2456
    152  OD2       17.9550   -2.9670    4.8460 O.co2 111  ASP111     -0.2456
@<TRIPOS>BOND
     1   132   131    2
     2   143   141    1
     3   129   130    1
     4   131   130    1
     5   131   137   am
     6   141   138    1
     7   141   142    1
     8   130   133    1
     9   138   137    1
    10   138   139    1
    11   133   134    1
    12    85    84    2
    13   142   144    1
    14   140   139    2
    15   139   145   am
    16    84    83    1
    17   136   134   am
    18   134   135    2
    19   145   146    1
    20    82    83    1
    21   147   146    1
    22   147   148    2
    23    83    86    1
    24     1     2    1
    25   151   150   ar
    26    44    45   ar
    27    44    42   ar
    28   146   149    1
    29    45    43   ar
    30    88    86    1
    31    42    40   ar
    32    86    87    1
    33    43    41   ar
    34   150   149    1
    35   150   152   ar
    36     2     5    1
    37     2     3    1
    38   111   109    1
    39    40    41   ar
    40    40    39    1
    41    87    89    1
    42   127   126    1
    43   124   123    2
    44    39    36    1
    45   110   109    1
    46   125   126    1
    47   125   122    1
    48     3     4    2
    49    11    10    1
    50   123   122    1
    51   109   108    1
    52    81    79    1
    53   126   128    1
    54   108   105    1
    55   106   107    2
    56   106   105    1
    57    92    93    2
    58    92    91    1
    59   122   121    1
    60    36    35    1
    61    36    37    1
    62    96    90    1
    63    96    95    1
    64    10     7    1
    65     6     7    1
    66    79    78    1
    67    79    80    1
    68    35    29   am
    69    90    91    1
    70    53    51    1
    71    76    75    1
    72    76    77    2
    73    78    75    1
    74    94    91    1
    75    94    95    1
    76   105   104    1
    77    75    74    1
    78    37    38    2
    79   121   114   am
    80    97    98    1
    81   104    99   am
    82     7     8    1
    83    60    59    1
    84    31    28    1
    85    31    32    1
    86    29    28    1
    87    29    30    2
    88    28    27    1
    89    19    17    1
    90    51    50    1
    91    51    52    1
    92    99    98    1
    93    99   100    2
    94    50    47    1
    95    34    32   ar
    96   114   115    2
    97   114   113    1
    98    98   101    1
    99    23    22    2
   100    32    33   ar
   101   112   113    1
   102    18    16    1
   103     8     9    2
   104    59    58    1
   105    59    61    1
   106    58    55    1
   107    27    22   am
   108    48    47    1
   109    48    49    2
   110   113   116    1
   111    17    16    1
   112    16    13    1
   113    22    21    1
   114   101   102    1
   115   101   103    1
   116    47    46    1
   117   116   117    1
   118    15    14    2
   119    57    56    2
   120    55    56    1
   121    55    54    1
   122    14    13    1
   123    14    20   am
   124    13    12    1
   125    65    64    2
   126   117   118    1
   127    21    20    1
   128    21    24    1
   129    20    26    1
   130    64    63    1
   131    25    24    1
   132    25    26    1
   133    66    63    1
   134    66    67    1
   135   118   119   ar
   136   118   120   ar
   137    63    62    1
   138    69    67   ar
   139    69    71   ar
   140    67    68   ar
   141    71    72   ar
   142    68    70   ar
   143    72    70   ar
   144    72    73    1
