@<TRIPOS>MOLECULE
tmp/4bn5E01.pdb
 206 201 0 0 0
SMALL
GASTEIGER

@<TRIPOS>ATOM
      1  N        218.9350  -47.0120   53.8140 N.3    33  ILE33      -0.1231
      2  CA       218.1420  -46.9230   52.5980 C.3    33  ILE33       0.1678
      3  C        217.7290  -45.4680   52.4710 C.2    33  ILE33       0.2434
      4  O        217.3120  -44.8610   53.4560 O.2    33  ILE33      -0.2733
      5  CB       216.8840  -47.8150   52.5980 C.3    33  ILE33       0.0265
      6  CG1      217.2210  -49.2560   52.9680 C.3    33  ILE33       0.0019
      7  CG2      216.2300  -47.8160   51.2200 C.3    33  ILE33       0.0020
      8  CD1      218.3730  -49.8270   52.1920 C.3    33  ILE33       0.0001
      9  N        217.8830  -44.8930   51.2720 N.am   34  PRO34      -0.2718
     10  CA       217.4150  -43.5450   51.0300 C.3    34  PRO34       0.1535
     11  C        215.9000  -43.4740   50.9340 C.2    34  PRO34       0.2599
     12  O        215.1840  -44.4690   51.1430 O.2    34  PRO34      -0.2715
     13  CB       217.9910  -43.2360   49.6570 C.3    34  PRO34       0.0310
     14  CG       217.9820  -44.5620   48.9880 C.3    34  PRO34       0.0237
     15  CD       218.5050  -45.4550   50.0640 C.3    34  PRO34       0.0939
     16  N        215.4180  -42.2800   50.6240 N.am   35  ASP35      -0.1958
     17  CA       214.0290  -42.1070   50.2900 C.3    35  ASP35       0.1840
     18  C        213.9100  -41.0630   49.1870 C.2    35  ASP35       0.2622
     19  O        214.3510  -39.9070   49.3430 O.2    35  ASP35      -0.2715
     20  CB       213.2340  -41.7260   51.5260 C.3    35  ASP35       0.1450
     21  CG       211.7580  -41.9330   51.3430 C.2    35  ASP35       0.3671
     22  OD1      211.2370  -41.5620   50.2620 O.co2  35  ASP35      -0.2456
     23  OD2      211.1240  -42.4680   52.2810 O.co2  35  ASP35      -0.2456
     24  N        213.3330  -41.4830   48.0650 N.am   36  PHE36      -0.1960
     25  CA       213.3120  -40.6180   46.9140 C.3    36  PHE36       0.1771
     26  C        212.3530  -39.4530   47.1340 C.2    36  PHE36       0.2619
     27  O        212.3670  -38.4540   46.3910 O.2    36  PHE36      -0.2715
     28  CB       213.0250  -41.3890   45.6380 C.3    36  PHE36       0.0574
     29  CG       211.7130  -42.0880   45.6140 C.ar   36  PHE36      -0.0200
     30  CD1      210.5760  -41.4280   45.2430 C.ar   36  PHE36      -0.0042
     31  CD2      211.6350  -43.4370   45.8750 C.ar   36  PHE36      -0.0042
     32  CE1      209.3620  -42.0920   45.1800 C.ar   36  PHE36      -0.0003
     33  CE2      210.4220  -44.1080   45.8010 C.ar   36  PHE36      -0.0003
     34  CZ       209.2800  -43.4360   45.4600 C.ar   36  PHE36      -0.0000
     35  N        211.5400  -39.5650   48.1770 N.am   37  ARG37      -0.1977
     36  CA       210.7900  -38.4210   48.6560 C.3    37  ARG37       0.1597
     37  C        211.6950  -37.3200   49.2810 C.2    37  ARG37       0.2287
     38  O        211.3400  -36.1410   49.2190 O.2    37  ARG37      -0.2864
     39  CB       209.6870  -38.8830   49.6180 C.3    37  ARG37       0.0334
     40  CG       208.5350  -39.5890   48.9210 C.3    37  ARG37       0.0492
     41  CD       207.5690  -40.1740   49.9260 C.3    37  ARG37       0.2205
     42  NE       208.1360  -41.3520   50.5830 N.pl3  37  ARG37      -0.0865
     43  CZ       207.5550  -42.0300   51.5740 C.cat  37  ARG37       0.5346
     44  NH1      206.3780  -41.6400   52.0500 N.pl3  37  ARG37       0.1354
     45  NH2      208.1470  -43.0950   52.1020 N.pl3  37  ARG37       0.1354
     46  N        220.0410  -41.2620   45.3690 N.3    43  LEU43      -0.1245
     47  CA       218.8710  -41.7320   44.6230 C.3    43  LEU43       0.1561
     48  C        217.9890  -40.5860   44.1210 C.2    43  LEU43       0.2260
     49  O        217.6100  -40.5570   42.9490 O.2    43  LEU43      -0.2867
     50  CB       218.0370  -42.6780   45.5000 C.3    43  LEU43       0.0270
     51  CG       216.6950  -43.2600   45.0180 C.3    43  LEU43       0.0019
     52  CD1      216.8650  -44.2410   43.8690 C.3    43  LEU43       0.0001
     53  CD2      215.9920  -43.9360   46.1800 C.3    43  LEU43       0.0001
     54  N        206.0500  -38.4600   42.5200 N.3    55  PRO55      -0.2102
     55  CA       206.7710  -39.6090   43.0810 C.3    55  PRO55       0.1504
     56  C        206.0700  -40.9790   42.9080 C.2    55  PRO55       0.2575
     57  O        206.6940  -41.9310   42.3960 O.2    55  PRO55      -0.2718
     58  CB       206.9020  -39.2430   44.5730 C.3    55  PRO55       0.0282
     59  CG       205.8570  -38.2210   44.8100 C.3    55  PRO55       0.0208
     60  CD       205.8360  -37.4250   43.5400 C.3    55  PRO55       0.0893
     61  N        204.7920  -41.0650   43.3040 N.am   56  GLU56      -0.1980
     62  CA       204.0510  -42.3370   43.2960 C.3    56  GLU56       0.1602
     63  C        203.9060  -42.9450   41.8930 C.2    56  GLU56       0.2287
     64  O        203.1640  -43.8880   41.7290 O.2    56  GLU56      -0.2864
     65  CB       202.6560  -42.1500   43.9380 C.3    56  GLU56       0.0415
     66  CG       202.6550  -41.2590   45.1620 C.3    56  GLU56       0.1163
     67  CD       202.9560  -42.0290   46.4220 C.2    56  GLU56       0.3649
     68  OE1      202.7190  -43.2550   46.4360 O.co2  56  GLU56      -0.2457
     69  OE2      203.4310  -41.4090   47.3970 O.co2  56  GLU56      -0.2457
     70  N        206.0530  -46.3630   40.1730 N.3    59  PHE59      -0.1241
     71  CA       205.3120  -47.6090   40.3500 C.3    59  PHE59       0.1605
     72  C        203.9750  -47.6930   39.5900 C.2    59  PHE59       0.2264
     73  O        203.1380  -48.5140   39.9310 O.2    59  PHE59      -0.2867
     74  CB       205.0730  -47.8330   41.8420 C.3    59  PHE59       0.0534
     75  CG       206.3270  -47.8410   42.6770 C.ar   59  PHE59      -0.0203
     76  CD1      207.3500  -48.7180   42.4080 C.ar   59  PHE59      -0.0042
     77  CD2      206.4630  -47.0060   43.7520 C.ar   59  PHE59      -0.0042
     78  CE1      208.5030  -48.7380   43.1860 C.ar   59  PHE59      -0.0003
     79  CE2      207.5980  -47.0170   44.5330 C.ar   59  PHE59      -0.0003
     80  CZ       208.6230  -47.8860   44.2560 C.ar   59  PHE59      -0.0000
     81  N        216.1790  -46.9920   40.4230 N.3    74  LEU74      -0.1245
     82  CA       215.9450  -47.4800   41.7970 C.3    74  LEU74       0.1561
     83  C        216.2420  -48.9680   41.9200 C.2    74  LEU74       0.2260
     84  O        216.8430  -49.4050   42.9010 O.2    74  LEU74      -0.2867
     85  CB       214.4990  -47.1860   42.2080 C.3    74  LEU74       0.0270
     86  CG       213.8780  -47.7860   43.4630 C.3    74  LEU74       0.0019
     87  CD1      212.9780  -46.7970   44.1800 C.3    74  LEU74       0.0001
     88  CD2      213.0400  -48.9720   43.0840 C.3    74  LEU74       0.0001
     89  N        218.6380  -50.4960   44.8110 N.3    78  LEU78      -0.1245
     90  CA       218.0950  -51.3540   45.8880 C.3    78  LEU78       0.1561
     91  C        218.3710  -52.8130   45.7180 C.2    78  LEU78       0.2260
     92  O        218.0730  -53.6130   46.6070 O.2    78  LEU78      -0.2867
     93  CB       216.5820  -51.2000   45.9890 C.3    78  LEU78       0.0270
     94  CG       216.1150  -49.8890   46.6200 C.3    78  LEU78       0.0019
     95  CD1      214.6050  -49.7560   46.5030 C.3    78  LEU78       0.0001
     96  CD2      216.5620  -49.7670   48.0750 C.3    78  LEU78       0.0001
     97  N        206.5340  -54.5750   54.0390 N.3   107  GLN107     -0.1245
     98  CA       206.1660  -53.6840   52.9410 C.3   107  GLN107      0.1566
     99  C        207.4030  -52.9960   52.3910 C.2   107  GLN107      0.2260
    100  O        207.3110  -52.1030   51.5600 O.2   107  GLN107     -0.2867
    101  CB       205.2210  -52.5910   53.4430 C.3   107  GLN107      0.0367
    102  CG       203.7710  -52.9900   53.5680 C.3   107  GLN107      0.0905
    103  CD       202.9190  -51.8040   53.9900 C.2   107  GLN107      0.2608
    104  OE1      201.7760  -51.6220   53.5080 O.2   107  GLN107     -0.2717
    105  NE2      203.4750  -50.9730   54.8990 N.am  107  GLN107     -0.0878
    106  N        210.7880  -53.0130   50.1270 N.3   109  ILE109     -0.1245
    107  CA       211.2200  -53.7510   48.9680 C.3   109  ILE109      0.1561
    108  C        212.7410  -53.9540   48.9400 C.2   109  ILE109      0.2260
    109  O        213.2520  -54.5040   47.9640 O.2   109  ILE109     -0.2867
    110  CB       210.6640  -53.1460   47.6550 C.3   109  ILE109      0.0252
    111  CG1      211.0510  -51.6790   47.4870 C.3   109  ILE109      0.0019
    112  CG2      209.1500  -53.2720   47.6310 C.3   109  ILE109      0.0019
    113  CD1      210.9990  -51.1990   46.0480 C.3   109  ILE109      0.0001
    114  N        204.7860  -55.9820   49.1460 N.3   127  HIS127     -0.1241
    115  CA       205.0080  -55.0660   48.0260 C.3   127  HIS127      0.1621
    116  C        206.0030  -55.6480   47.0260 C.2   127  HIS127      0.2264
    117  O        206.2860  -55.0200   46.0140 O.2   127  HIS127     -0.2867
    118  CB       205.4200  -53.6630   48.5040 C.3   127  HIS127      0.0745
    119  CG       204.3850  -52.9770   49.3460 C.ar  127  HIS127      0.0817
    120  ND1      203.0860  -53.4290   49.4650 N.ar  127  HIS127     -0.2268
    121  CD2      204.4560  -51.8520   50.0950 C.ar  127  HIS127      0.1154
    122  CE1      202.4090  -52.6240   50.2660 C.ar  127  HIS127      0.1986
    123  NE2      203.2170  -51.6580   50.6590 N.ar  127  HIS127     -0.2212
    124  N        208.2280  -56.3000   41.6420 N.3   170  ILE170     -0.1231
    125  CA       207.6960  -55.2990   42.5550 C.3   170  ILE170      0.1692
    126  C        206.2260  -55.0710   42.2250 C.2   170  ILE170      0.2592
    127  O        205.8410  -55.0120   41.0580 O.2   170  ILE170     -0.2718
    128  CB       208.4490  -53.9520   42.4260 C.3   170  ILE170      0.0266
    129  CG1      209.8440  -54.0560   43.0500 C.3   170  ILE170      0.0019
    130  CG2      207.6640  -52.7980   43.0530 C.3   170  ILE170      0.0020
    131  CD1      209.8660  -54.0650   44.5580 C.3   170  ILE170      0.0001
    132  N        205.4130  -54.9060   43.2540 N.am  171  VAL171     -0.1966
    133  CA       203.9900  -54.8770   43.0510 C.3   171  VAL171      0.1727
    134  C        203.6150  -53.4820   42.6040 C.2   171  VAL171      0.2616
    135  O        203.9690  -52.5180   43.2800 O.2   171  VAL171     -0.2715
    136  CB       203.2580  -55.2320   44.3500 C.3   171  VAL171      0.0290
    137  CG1      201.7520  -55.3380   44.1080 C.3   171  VAL171      0.0023
    138  CG2      203.8150  -56.5350   44.9170 C.3   171  VAL171      0.0023
    139  N        202.9060  -53.3510   41.4830 N.am  172  PHE172     -0.1960
    140  CA       202.5730  -52.0030   40.9850 C.3   172  PHE172      0.1771
    141  C        201.1820  -51.5620   41.3570 C.2   172  PHE172      0.2620
    142  O        200.3350  -52.3940   41.6320 O.2   172  PHE172     -0.2715
    143  CB       202.7540  -51.9100   39.4750 C.3   172  PHE172      0.0574
    144  CG       204.1440  -51.4940   39.0540 C.ar  172  PHE172     -0.0200
    145  CD1      205.2590  -52.1880   39.5060 C.ar  172  PHE172     -0.0042
    146  CD2      204.3320  -50.4330   38.1920 C.ar  172  PHE172     -0.0042
    147  CE1      206.5310  -51.8310   39.1070 C.ar  172  PHE172     -0.0003
    148  CE2      205.6050  -50.0700   37.7910 C.ar  172  PHE172     -0.0003
    149  CZ       206.7070  -50.7660   38.2510 C.ar  172  PHE172     -0.0000
    150  N        200.9600  -50.2480   41.3650 N.am  173  PHE173     -0.1960
    151  CA       199.6220  -49.6820   41.6120 C.3   173  PHE173      0.1771
    152  C        198.6000  -50.3830   40.7200 C.2   173  PHE173      0.2620
    153  O        198.9280  -50.7540   39.5940 O.2   173  PHE173     -0.2715
    154  CB       199.5930  -48.1590   41.3860 C.3   173  PHE173      0.0574
    155  CG       200.0270  -47.3730   42.5760 C.ar  173  PHE173     -0.0200
    156  CD1      199.1310  -47.0690   43.5740 C.ar  173  PHE173     -0.0042
    157  CD2      201.3270  -46.9730   42.7190 C.ar  173  PHE173     -0.0042
    158  CE1      199.5190  -46.3560   44.6960 C.ar  173  PHE173     -0.0003
    159  CE2      201.7290  -46.2690   43.8350 C.ar  173  PHE173     -0.0003
    160  CZ       200.8220  -45.9520   44.8240 C.ar  173  PHE173     -0.0000
    161  N        197.3940  -50.6190   41.2400 N.am  174  GLY174     -0.1940
    162  CA       196.3550  -51.3230   40.4840 C.3   174  GLY174      0.2014
    163  C        196.5840  -52.8050   40.1840 C.2   174  GLY174      0.2638
    164  O        195.6660  -53.4960   39.7220 O.2   174  GLY174     -0.2714
    165  N        197.8110  -53.2930   40.4000 N.am  175  GLU175     -0.1977
    166  CA       198.1010  -54.7240   40.3030 C.3   175  GLU175      0.1602
    167  C        197.5930  -55.2980   41.6160 C.2   175  GLU175      0.2287
    168  O        197.6770  -54.6110   42.6310 O.2   175  GLU175     -0.2864
    169  CB       199.6190  -55.0300   40.1820 C.3   175  GLU175      0.0415
    170  CG       200.3140  -54.9190   38.8100 C.3   175  GLU175      0.1163
    171  CD       201.8100  -55.3480   38.8600 C.2   175  GLU175      0.3649
    172  OE1      202.2490  -55.9400   39.8870 O.co2 175  GLU175     -0.2457
    173  OE2      202.5790  -55.1040   37.8840 O.co2 175  GLU175     -0.2457
    174  N        197.8980  -57.8900   44.9370 N.3   177  LEU177     -0.1245
    175  CA       199.0050  -58.2520   45.8170 C.3   177  LEU177      0.1561
    176  C        199.5590  -59.6470   45.4770 C.2   177  LEU177      0.2260
    177  O        198.9720  -60.3880   44.6810 O.2   177  LEU177     -0.2867
    178  CB       198.5610  -58.2050   47.2810 C.3   177  LEU177      0.0270
    179  CG       198.1580  -56.8630   47.8990 C.3   177  LEU177      0.0019
    180  CD1      197.6890  -57.1110   49.3330 C.3   177  LEU177      0.0001
    181  CD2      199.2750  -55.8150   47.8770 C.3   177  LEU177      0.0001
    182  N        199.7790  -46.7270   56.8840 N.3   202  GLU202     -0.1231
    183  CA       199.0380  -45.8070   56.0300 C.3   202  GLU202      0.1699
    184  C        198.6460  -46.5020   54.7550 C.2   202  GLU202      0.2592
    185  O        197.5870  -46.2980   54.2280 O.2   202  GLU202     -0.2718
    186  CB       199.8860  -44.5810   55.6780 C.3   202  GLU202      0.0402
    187  CG       200.0030  -43.5000   56.7430 C.3   202  GLU202      0.1161
    188  CD       200.7190  -42.2540   56.2070 C.2   202  GLU202      0.3649
    189  OE1      201.6070  -42.4080   55.3280 O.co2 202  GLU202     -0.2457
    190  OE2      200.4080  -41.1080   56.6520 O.co2 202  GLU202     -0.2457
    191  N        199.5340  -47.2990   54.2140 N.am  203  VAL203     -0.1966
    192  CA       199.2050  -47.9920   52.9910 C.3   203  VAL203      0.1727
    193  C        198.3850  -49.2330   53.3700 C.2   203  VAL203      0.2616
    194  O        198.7970  -50.0160   54.2500 O.2   203  VAL203     -0.2715
    195  CB       200.4800  -48.3550   52.1950 C.3   203  VAL203      0.0290
    196  CG1      200.2580  -49.5850   51.3340 C.3   203  VAL203      0.0023
    197  CG2      200.9060  -47.1700   51.3340 C.3   203  VAL203      0.0023
    198  N        197.2190  -49.3910   52.7330 N.am  204  GLU204     -0.1977
    199  CA       196.4290  -50.6200   52.8530 C.3   204  GLU204      0.1602
    200  C        197.1450  -51.7020   52.0800 C.2   204  GLU204      0.2287
    201  O        197.7650  -51.4340   51.0470 O.2   204  GLU204     -0.2864
    202  CB       194.9950  -50.4430   52.3330 C.3   204  GLU204      0.0415
    203  CG       194.0940  -49.6940   53.3190 C.3   204  GLU204      0.1163
    204  CD       193.5270  -50.5460   54.4920 C.2   204  GLU204      0.3649
    205  OE1      193.5740  -51.8230   54.5040 O.co2 204  GLU204     -0.2457
    206  OE2      192.9720  -49.9030   55.4220 O.co2 204  GLU204     -0.2457
@<TRIPOS>BOND
     1   148   146   ar
     2   148   149   ar
     3   173   171   ar
     4   146   144   ar
     5   149   147   ar
     6   170   171    1
     7   170   169    1
     8   171   172   ar
     9   144   143    1
    10   144   145   ar
    11   147   145   ar
    12   143   140    1
    13    72    73    2
    14    72    71    1
    15   153   152    2
    16   164   163    2
    17    70    71    1
    18   169   166    1
    19   163   165   am
    20   163   162    1
    21   166   165    1
    22   166   167    1
    23    71    74    1
    24    81    82    1
    25   162   161    1
    26   152   161   am
    27   152   151    1
    28   140   141    1
    29   140   139    1
    30   127   126    2
    31   141   150   am
    32   141   142    2
    33   150   151    1
    34   154   151    1
    35   154   155    1
    36   139   134   am
    37   167   168    2
    38   124   125    1
    39    64    63    2
    40    82    83    1
    41    82    85    1
    42    74    75    1
    43    63    62    1
    44    83    84    2
    45    85    86    1
    46   126   125    1
    47   126   132   am
    48    57    56    2
    49    76    75   ar
    50    76    78   ar
    51   128   125    1
    52   128   129    1
    53   128   130    1
    54    54    55    1
    55    54    60    1
    56   155   157   ar
    57   155   156   ar
    58   134   133    1
    59   134   135    2
    60    75    77   ar
    61   157   159   ar
    62    56    55    1
    63    56    61   am
    64    49    48    2
    65   129   131    1
    66   133   132    1
    67   133   136    1
    68    55    58    1
    69    88    86    1
    70    78    80   ar
    71    62    61    1
    72    62    65    1
    73    86    87    1
    74    60    59    1
    75   156   158   ar
    76    77    79   ar
    77   159   160   ar
    78    52    51    1
    79    65    66    1
    80   137   136    1
    81    48    47    1
    82    80    79   ar
    83   136   138    1
    84    58    59    1
    85    47    46    1
    86    47    50    1
    87   177   176    2
    88   158   160   ar
    89    89    90    1
    90   174   175    1
    91    51    50    1
    92    51    53    1
    93    66    67    1
    94    32    30   ar
    95    32    34   ar
    96    30    29   ar
    97    34    33   ar
    98   176   175    1
    99    29    28    1
   100    29    31   ar
   101    28    25    1
   102    91    90    1
   103    91    92    2
   104    33    31   ar
   105   175   178    1
   106    90    93    1
   107    93    94    1
   108   117   116    2
   109   113   111    1
   110    27    26    2
   111    67    68   ar
   112    67    69   ar
   113    95    94    1
   114    94    96    1
   115    25    26    1
   116    25    24    1
   117   116   115    1
   118    26    35   am
   119   178   179    1
   120   111   110    1
   121   112   110    1
   122   110   107    1
   123   181   179    1
   124   179   180    1
   125   109   108    2
   126   115   118    1
   127   115   114    1
   128    24    18   am
   129    35    36    1
   130   118   119    1
   131    36    37    1
   132    36    39    1
   133    40    39    1
   134    40    41    1
   135   108   107    1
   136   107   106    1
   137    14    13    1
   138    14    15    1
   139    18    19    2
   140    18    17    1
   141    38    37    2
   142   119   120   ar
   143   119   121   ar
   144   120   122   ar
   145    13    10    1
   146    41    42    1
   147    15     9    1
   148   121   123   ar
   149    22    21   ar
   150   122   123   ar
   151    17    16    1
   152    17    20    1
   153    42    43    2
   154    16    11   am
   155    11    10    1
   156    11    12    2
   157    10     9    1
   158   201   200    2
   159     7     5    1
   160     9     3   am
   161   196   195    1
   162   197   195    1
   163    21    20    1
   164    21    23   ar
   165   100    99    2
   166    43    44    1
   167    43    45    1
   168   200   199    1
   169     8     6    1
   170   195   192    1
   171   202   199    1
   172   202   203    1
   173    99    98    1
   174     3     2    1
   175     3     4    2
   176     5     2    1
   177     5     6    1
   178     2     1    1
   179   198   199    1
   180   198   193   am
   181    98   101    1
   182    98    97    1
   183   192   193    1
   184   192   191    1
   185   203   204    1
   186   193   194    2
   187   101   102    1
   188   104   103    2
   189   102   103    1
   190   103   105   am
   191   191   184   am
   192   185   184    2
   193   204   205   ar
   194   204   206   ar
   195   184   183    1
   196   189   188   ar
   197   186   183    1
   198   186   187    1
   199   183   182    1
   200   188   190   ar
   201   188   187    1
