@<TRIPOS>MOLECULE
tmp/4bn9A00.pdb
 102 99 0 0 0
SMALL
GASTEIGER

@<TRIPOS>ATOM
      1  N        -17.7140  -29.7380   18.2020 N.3     9  ARG9       -0.1231
      2  CA       -17.4180  -28.5300   17.4370 C.3     9  ARG9        0.1694
      3  C        -16.3960  -27.6900   18.1840 C.2     9  ARG9        0.2592
      4  O        -16.6190  -27.3160   19.3350 O.2     9  ARG9       -0.2718
      5  CB       -18.6740  -27.6920   17.2010 C.3     9  ARG9        0.0321
      6  CG       -18.4130  -26.4530   16.3450 C.3     9  ARG9        0.0489
      7  CD       -19.1340  -25.2180   16.8680 C.3     9  ARG9        0.2205
      8  NE       -18.8460  -24.9680   18.2770 N.pl3   9  ARG9       -0.0865
      9  CZ       -17.7580  -24.3500   18.7300 C.cat   9  ARG9        0.5346
     10  NH1      -16.8320  -23.9030   17.8880 N.pl3   9  ARG9        0.1354
     11  NH2      -17.5940  -24.1780   20.0330 N.pl3   9  ARG9        0.1354
     12  N        -15.2790  -27.3940   17.5230 N.am   10  ARG10      -0.1966
     13  CA       -14.2190  -26.5830   18.1160 C.3    10  ARG10       0.1729
     14  C        -13.5790  -25.6780   17.0680 C.2    10  ARG10       0.2616
     15  O        -13.7650  -25.8630   15.8620 O.2    10  ARG10      -0.2715
     16  CB       -13.1370  -27.4760   18.7340 C.3    10  ARG10       0.0348
     17  CG       -13.6020  -28.3510   19.8960 C.3    10  ARG10       0.0492
     18  CD       -13.9690  -27.5350   21.1310 C.3    10  ARG10       0.2205
     19  NE       -12.9080  -26.6070   21.5120 N.pl3  10  ARG10      -0.0865
     20  CZ       -11.8090  -26.9470   22.1790 C.cat  10  ARG10       0.5346
     21  NH1      -11.6060  -28.2030   22.5560 N.pl3  10  ARG10       0.1354
     22  NH2      -10.9040  -26.0250   22.4660 N.pl3  10  ARG10       0.1354
     23  N        -12.8200  -24.6960   17.5350 N.am   11  THR11      -0.1951
     24  CA       -12.0650  -23.8320   16.6420 C.3    11  THR11       0.1897
     25  C        -10.7870  -24.5370   16.1890 C.2    11  THR11       0.2313
     26  O         -9.9070  -24.8230   16.9960 O.2    11  THR11      -0.2863
     27  CB       -11.7290  -22.4940   17.3260 C.3    11  THR11       0.1794
     28  OG1      -12.9140  -21.6890   17.3960 O.3    11  THR11      -0.2208
     29  CG2      -10.6530  -21.7370   16.5580 C.3    11  THR11       0.0378
     30  N         -7.6080  -24.1780   13.6650 N.3    13  TYR13      -0.1241
     31  CA        -6.8400  -23.2640   12.8180 C.3    13  TYR13       0.1605
     32  C         -5.9880  -23.9960   11.7840 C.2    13  TYR13       0.2264
     33  O         -5.7130  -23.4610   10.7130 O.2    13  TYR13      -0.2867
     34  CB        -5.9450  -22.3600   13.6720 C.3    13  TYR13       0.0534
     35  CG        -6.7120  -21.3290   14.4680 C.ar   13  TYR13      -0.0201
     36  CD1       -7.5110  -20.3860   13.8300 C.ar   13  TYR13      -0.0009
     37  CD2       -6.6320  -21.2910   15.8550 C.ar   13  TYR13      -0.0009
     38  CE1       -8.2140  -19.4400   14.5530 C.ar   13  TYR13       0.0417
     39  CE2       -7.3310  -20.3480   16.5840 C.ar   13  TYR13       0.0417
     40  CZ        -8.1200  -19.4240   15.9280 C.ar   13  TYR13       0.1957
     41  OH        -8.8180  -18.4810   16.6490 O.3    13  TYR13      -0.2866
     42  N        -25.5990  -15.4660   13.9860 N.3   120  GLY120     -0.1225
     43  CA       -24.9290  -16.3060   14.9610 C.3   120  GLY120      0.1811
     44  C        -25.4770  -17.7190   14.9080 C.2   120  GLY120      0.2280
     45  O        -24.7240  -18.6940   14.9190 O.2   120  GLY120     -0.2866
     46  N        -23.1360  -21.0410   13.6700 N.3   124  VAL124     -0.1245
     47  CA       -22.7310  -22.1370   14.5460 C.3   124  VAL124      0.1561
     48  C        -23.3760  -23.4610   14.1550 C.2   124  VAL124      0.2260
     49  O        -22.7880  -24.5210   14.3680 O.2   124  VAL124     -0.2867
     50  CB       -23.0100  -21.8470   16.0470 C.3   124  VAL124      0.0252
     51  CG1      -22.2110  -20.6370   16.5130 C.3   124  VAL124      0.0019
     52  CG2      -24.5000  -21.6630   16.3100 C.3   124  VAL124      0.0019
     53  N        -21.2060  -24.6110   11.3750 N.3   127  TRP127     -0.1241
     54  CA       -19.9560  -24.9600   12.0480 C.3   127  TRP127      0.1605
     55  C        -20.0490  -26.3520   12.6810 C.2   127  TRP127      0.2264
     56  O        -19.1880  -27.2060   12.4580 O.2   127  TRP127     -0.2867
     57  CB       -19.6690  -23.9090   13.1150 C.3   127  TRP127      0.0550
     58  CG       -18.2640  -23.8530   13.6300 C.ar  127  TRP127      0.0003
     59  CD1      -17.2920  -24.8020   13.5060 C.ar  127  TRP127      0.0946
     60  CD2      -17.6770  -22.7700   14.3590 C.ar  127  TRP127      0.0152
     61  NE1      -16.1360  -24.3760   14.1160 N.ar  127  TRP127     -0.2442
     62  CE2      -16.3470  -23.1290   14.6430 C.ar  127  TRP127      0.0810
     63  CE3      -18.1480  -21.5290   14.7960 C.ar  127  TRP127      0.0012
     64  CZ2      -15.4880  -22.2970   15.3480 C.ar  127  TRP127      0.0191
     65  CZ3      -17.2940  -20.7040   15.4930 C.ar  127  TRP127      0.0001
     66  CH2      -15.9790  -21.0890   15.7620 C.ar  127  TRP127      0.0015
     67  N        -13.8680  -19.2080   12.6210 N.3   139  LEU139     -0.1231
     68  CA       -14.7080  -18.0960   12.1940 C.3   139  LEU139      0.1693
     69  C        -13.9410  -16.7800   12.2340 C.2   139  LEU139      0.2592
     70  O        -13.4310  -16.3810   13.2810 O.2   139  LEU139     -0.2718
     71  CB       -15.9490  -18.0120   13.0860 C.3   139  LEU139      0.0284
     72  CG       -16.9080  -16.8550   12.8050 C.3   139  LEU139      0.0019
     73  CD1      -17.5740  -17.0250   11.4490 C.3   139  LEU139      0.0001
     74  CD2      -17.9440  -16.7480   13.9110 C.3   139  LEU139      0.0001
     75  N        -13.8680  -16.1090   11.0870 N.am  140  GLN140     -0.1966
     76  CA       -13.1250  -14.8580   10.9680 C.3   140  GLN140      0.1733
     77  C        -14.0500  -13.6850   10.6780 C.2   140  GLN140      0.2616
     78  O        -15.1870  -13.8690   10.2450 O.2   140  GLN140     -0.2715
     79  CB       -12.0730  -14.9670    9.8630 C.3   140  GLN140      0.0408
     80  CG       -11.0250  -16.0250   10.1340 C.3   140  GLN140      0.0908
     81  CD       -10.4290  -15.8920   11.5170 C.2   140  GLN140      0.2608
     82  OE1      -10.0620  -14.7980   11.9420 O.2   140  GLN140     -0.2717
     83  NE2      -10.3430  -17.0040   12.2350 N.am  140  GLN140     -0.0878
     84  N        -13.5450  -12.4780   10.9120 N.am  141  HIS141     -0.1973
     85  CA       -14.3260  -11.2640   10.7130 C.3   141  HIS141      0.1656
     86  C        -13.5070  -10.1590   10.0540 C.2   141  HIS141      0.2291
     87  O        -13.0240   -9.2440   10.7210 O.2   141  HIS141     -0.2864
     88  CB       -14.8840  -10.7750   12.0490 C.3   141  HIS141      0.0771
     89  CG       -15.9160  -11.6840   12.6290 C.ar  141  HIS141      0.0820
     90  ND1      -15.6080  -12.7110   13.4940 N.ar  141  HIS141     -0.2267
     91  CD2      -17.2600  -11.7400   12.4480 C.ar  141  HIS141      0.1154
     92  CE1      -16.7140  -13.3510   13.8300 C.ar  141  HIS141      0.1986
     93  NE2      -17.7300  -12.7780   13.2040 N.ar  141  HIS141     -0.2212
     94  N         -9.2610  -25.1230   26.3310 N.3   178  LYS178     -0.1245
     95  CA       -10.2840  -24.1120   26.5710 C.3   178  LYS178      0.1561
     96  C        -10.8210  -24.2040   27.9970 C.2   178  LYS178      0.2260
     97  O        -11.0000  -25.2950   28.5350 O.2   178  LYS178     -0.2867
     98  CB       -11.4320  -24.2600   25.5690 C.3   178  LYS178      0.0271
     99  CG       -12.5260  -23.2200   25.7430 C.3   178  LYS178      0.0035
    100  CD       -13.6090  -23.3370   24.6750 C.3   178  LYS178      0.0206
    101  CE       -14.2860  -24.6910   24.7020 C.3   178  LYS178      0.1093
    102  NZ       -15.5080  -24.7100   23.8370 N.3   178  LYS178     -0.1314
@<TRIPOS>BOND
     1    79    80    1
     2    79    76    1
     3    86    85    1
     4    86    87    2
     5    80    81    1
     6    78    77    2
     7    77    84   am
     8    77    76    1
     9    85    84    1
    10    85    88    1
    11    33    32    2
    12    76    75    1
    13    75    69   am
    14    53    54    1
    15    73    72    1
    16    81    82    2
    17    81    83   am
    18    32    31    1
    19    54    55    1
    20    54    57    1
    21    88    89    1
    22    68    69    1
    23    68    67    1
    24    68    71    1
    25    69    70    2
    26    91    89   ar
    27    91    93   ar
    28    56    55    2
    29    89    90   ar
    30    72    71    1
    31    72    74    1
    32    31    30    1
    33    31    34    1
    34    57    58    1
    35    93    92   ar
    36    90    92   ar
    37    59    58   ar
    38    59    61   ar
    39    58    60   ar
    40    46    47    1
    41    34    35    1
    42    36    35   ar
    43    36    38   ar
    44    42    43    1
    45    61    62   ar
    46    48    49    2
    47    48    47    1
    48    60    62   ar
    49    60    63   ar
    50    35    37   ar
    51    47    50    1
    52    38    40   ar
    53    62    64   ar
    54    63    65   ar
    55    44    45    2
    56    44    43    1
    57    64    66   ar
    58    65    66   ar
    59    37    39   ar
    60    15    14    2
    61    40    39   ar
    62    40    41    1
    63    50    52    1
    64    50    51    1
    65    25    24    1
    66    25    26    2
    67     6     7    1
    68     6     5    1
    69    29    27    1
    70    24    27    1
    71    24    23    1
    72     7     8    1
    73    14    23   am
    74    14    13    1
    75     5     2    1
    76    27    28    1
    77     2     3    1
    78     2     1    1
    79    12    13    1
    80    12     3   am
    81    10     9    1
    82    13    16    1
    83     3     4    2
    84     8     9    2
    85     9    11    1
    86    16    17    1
    87    17    18    1
    88    18    19    1
    89    19    20    2
    90    20    22    1
    91    20    21    1
    92   102   101    1
    93   100   101    1
    94   100    99    1
    95    98    99    1
    96    98    95    1
    97    94    95    1
    98    95    96    1
    99    96    97    2
