@<TRIPOS>MOLECULE
tmp/4bneA00.pdb
 91 83 0 0 0
SMALL
GASTEIGER

@<TRIPOS>ATOM
      1  N        151.3940  119.2250   30.1310 N.3    17  ILE17      -0.1245
      2  CA       152.1750  119.3250   28.9040 C.3    17  ILE17       0.1561
      3  C        151.8450  118.1670   27.9640 C.2    17  ILE17       0.2260
      4  O        151.6330  118.3730   26.7700 O.2    17  ILE17      -0.2867
      5  CB       153.6900  119.3390   29.1980 C.3    17  ILE17       0.0252
      6  CG1      154.0430  120.5400   30.0770 C.3    17  ILE17       0.0019
      7  CG2      154.4950  119.3890   27.8960 C.3    17  ILE17       0.0019
      8  CD1      155.4670  120.5340   30.5940 C.3    17  ILE17       0.0001
      9  N        155.7700  122.2530   18.3880 N.3   105  ALA105     -0.1245
     10  CA       155.6540  122.5070   19.8200 C.3   105  ALA105      0.1562
     11  C        156.1360  121.3180   20.6460 C.2   105  ALA105      0.2260
     12  O        156.7270  121.4950   21.7100 O.2   105  ALA105     -0.2867
     13  CB       154.2140  122.8450   20.1780 C.3   105  ALA105      0.0290
     14  N        160.3760  115.9860   24.8340 N.3   115  LYS115     -0.1231
     15  CA       161.4640  116.8070   25.3460 C.3   115  LYS115      0.1693
     16  C        160.9250  117.9290   26.2280 C.2   115  LYS115      0.2591
     17  O        161.5380  118.2950   27.2290 O.2   115  LYS115     -0.2718
     18  CB       162.2590  117.3880   24.1740 C.3   115  LYS115      0.0285
     19  CG       163.2810  118.4500   24.5480 C.3   115  LYS115      0.0035
     20  CD       164.1070  118.8530   23.3330 C.3   115  LYS115      0.0206
     21  CE       164.9500  120.0880   23.6050 C.3   115  LYS115      0.1093
     22  NZ       164.1120  121.3030   23.8040 N.3   115  LYS115     -0.1314
     23  N        159.7660  118.4600   25.8570 N.am  116  GLU116     -0.1979
     24  CA       159.1620  119.5710   26.5820 C.3   116  GLU116      0.1602
     25  C        158.7400  119.1530   27.9880 C.2   116  GLU116      0.2287
     26  O        158.8210  119.9410   28.9310 O.2   116  GLU116     -0.2864
     27  CB       157.9460  120.1050   25.8190 C.3   116  GLU116      0.0415
     28  CG       158.2800  120.8770   24.5400 C.3   116  GLU116      0.1163
     29  CD       158.8810  120.0070   23.4460 C.2   116  GLU116      0.3649
     30  OE1      158.6120  118.7870   23.4270 O.co2 116  GLU116     -0.2457
     31  OE2      159.6260  120.5510   22.6020 O.co2 116  GLU116     -0.2457
     32  N        161.8530  118.5890   30.3180 N.3   119  GLU119     -0.1231
     33  CA       162.4140  119.8750   30.7180 C.3   119  GLU119      0.1699
     34  C        161.7200  120.4150   31.9630 C.2   119  GLU119      0.2592
     35  O        162.3760  120.8720   32.8970 O.2   119  GLU119     -0.2718
     36  CB       162.2990  120.8930   29.5800 C.3   119  GLU119      0.0402
     37  CG       163.3290  120.7110   28.4750 C.3   119  GLU119      0.1161
     38  CD       163.1360  121.6870   27.3280 C.2   119  GLU119      0.3649
     39  OE1      162.2960  122.6030   27.4570 O.co2 119  GLU119     -0.2457
     40  OE2      163.8260  121.5360   26.2980 O.co2 119  GLU119     -0.2457
     41  N        160.3920  120.3620   31.9680 N.am  120  ALA120     -0.1980
     42  CA       159.6170  120.8340   33.1070 C.3   120  ALA120      0.1597
     43  C        159.8660  119.9360   34.3150 C.2   120  ALA120      0.2287
     44  O        160.0260  120.4170   35.4370 O.2   120  ALA120     -0.2864
     45  CB       158.1380  120.8630   32.7630 C.3   120  ALA120      0.0319
     46  N        163.3380  120.6510   35.6380 N.3   123  GLY123     -0.1225
     47  CA       163.3460  121.9980   36.1760 C.3   123  GLY123      0.1811
     48  C        162.7600  122.0570   37.5730 C.2   123  GLY123      0.2280
     49  O        163.3150  122.7050   38.4610 O.2   123  GLY123     -0.2866
     50  N        159.9770  128.0610   36.7350 N.3   215  VAL215     -0.1245
     51  CA       159.6790  126.9030   35.9010 C.3   215  VAL215      0.1561
     52  C        158.1820  126.8180   35.6040 C.2   215  VAL215      0.2260
     53  O        157.7820  126.4520   34.4980 O.2   215  VAL215     -0.2867
     54  CB       160.1770  125.5860   36.5530 C.3   215  VAL215      0.0252
     55  CG1      159.6560  125.4460   37.9730 C.3   215  VAL215      0.0019
     56  CG2      159.7760  124.3730   35.7120 C.3   215  VAL215      0.0019
     57  N        157.0670  129.2910   32.9280 N.3   218  GLN218     -0.1231
     58  CA       157.3980  128.8040   31.5960 C.3   218  GLN218      0.1698
     59  C        156.3630  127.7920   31.1170 C.2   218  GLN218      0.2592
     60  O        156.0620  127.7180   29.9250 O.2   218  GLN218     -0.2718
     61  CB       158.7950  128.1810   31.5820 C.3   218  GLN218      0.0381
     62  CG       159.9210  129.2030   31.5500 C.3   218  GLN218      0.0905
     63  CD       159.9060  130.0460   30.2860 C.2   218  GLN218      0.2608
     64  OE1      159.6390  131.2480   30.3300 O.2   218  GLN218     -0.2717
     65  NE2      160.1930  129.4160   29.1500 N.am  218  GLN218     -0.0878
     66  N        155.8190  127.0180   32.0510 N.am  219  CYS219     -0.1970
     67  CA       154.7790  126.0490   31.7280 C.3   219  CYS219      0.1712
     68  C        153.4780  126.7600   31.3720 C.2   219  CYS219      0.2296
     69  O        152.7270  126.2990   30.5140 O.2   219  CYS219     -0.2864
     70  CB       154.5530  125.0930   32.9010 C.3   219  CYS219      0.0983
     71  SG       155.8890  123.9020   33.1500 S.3   219  CYS219     -0.0798
     72  N        153.8640  128.1330   27.7770 N.3   222  PHE222     -0.1241
     73  CA       153.7100  127.0470   26.8170 C.3   222  PHE222      0.1605
     74  C        152.2420  126.6750   26.6640 C.2   222  PHE222      0.2264
     75  O        151.7780  126.3720   25.5650 O.2   222  PHE222     -0.2867
     76  CB       154.5110  125.8260   27.2710 C.3   222  PHE222      0.0534
     77  CG       154.5110  124.6930   26.2810 C.ar  222  PHE222     -0.0203
     78  CD1      155.2180  124.7950   25.0960 C.ar  222  PHE222     -0.0042
     79  CD2      153.8180  123.5220   26.5430 C.ar  222  PHE222     -0.0042
     80  CE1      155.2270  123.7550   24.1870 C.ar  222  PHE222     -0.0003
     81  CE2      153.8250  122.4770   25.6360 C.ar  222  PHE222     -0.0003
     82  CZ       154.5310  122.5950   24.4570 C.ar  222  PHE222     -0.0000
     83  N        150.1240  129.3890   24.6680 N.3   225  LYS225     -0.1245
     84  CA       150.2520  129.2950   23.2190 C.3   225  LYS225      0.1561
     85  C        149.2580  128.2920   22.6430 C.2   225  LYS225      0.2260
     86  O        148.7070  128.5020   21.5640 O.2   225  LYS225     -0.2867
     87  CB       151.6740  128.8920   22.8330 C.3   225  LYS225      0.0271
     88  CG       152.7270  129.9110   23.2170 C.3   225  LYS225      0.0035
     89  CD       154.0890  129.5310   22.6680 C.3   225  LYS225      0.0206
     90  CE       155.1480  130.5130   23.1170 C.3   225  LYS225      0.1093
     91  NZ       156.4550  130.2770   22.4430 N.3   225  LYS225     -0.1314
@<TRIPOS>BOND
     1     9    10    1
     2    10    13    1
     3    10    11    1
     4    11    12    2
     5    86    85    2
     6    91    90    1
     7    31    29   ar
     8    85    84    1
     9    89    90    1
    10    89    88    1
    11    87    88    1
    12    87    84    1
    13    84    83    1
    14    20    21    1
    15    20    19    1
    16    30    29   ar
    17    29    28    1
    18    21    22    1
    19    18    19    1
    20    18    15    1
    21    80    82   ar
    22    80    78   ar
    23    82    81   ar
    24    28    27    1
    25    14    15    1
    26    78    77   ar
    27    15    16    1
    28    75    74    2
    29    81    79   ar
    30    27    24    1
    31    23    16   am
    32    23    24    1
    33    16    17    2
    34    77    79   ar
    35    77    76    1
    36    40    38   ar
    37    24    25    1
    38    74    73    1
    39     4     3    2
    40    73    76    1
    41    73    72    1
    42    38    39   ar
    43    38    37    1
    44     7     5    1
    45     3     2    1
    46    25    26    2
    47    37    36    1
    48     2     5    1
    49     2     1    1
    50    65    63   am
    51     5     6    1
    52    36    33    1
    53    60    59    2
    54     6     8    1
    55    63    64    2
    56    63    62    1
    57    32    33    1
    58    69    68    2
    59    33    34    1
    60    59    58    1
    61    59    66   am
    62    68    67    1
    63    62    61    1
    64    61    58    1
    65    58    57    1
    66    67    66    1
    67    67    70    1
    68    34    41   am
    69    34    35    2
    70    41    42    1
    71    45    42    1
    72    70    71    1
    73    42    43    1
    74    43    44    2
    75    53    52    2
    76    52    51    1
    77    46    47    1
    78    56    54    1
    79    51    54    1
    80    51    50    1
    81    47    48    1
    82    54    55    1
    83    48    49    2
