@<TRIPOS>MOLECULE
tmp/4bngH00.pdb
 149 141 0 0 0
SMALL
GASTEIGER

@<TRIPOS>ATOM
      1  N          8.0290  -81.2290  -36.5960 N.3    93  ALA93      -0.1231
      2  CA         9.0050  -80.2130  -37.0380 C.3    93  ALA93       0.1694
      3  C          8.3750  -79.2310  -38.0130 C.2    93  ALA93       0.2592
      4  O          7.3870  -79.5510  -38.6420 O.2    93  ALA93      -0.2718
      5  CB        10.2570  -80.8360  -37.6570 C.3    93  ALA93       0.0304
      6  N          8.9770  -78.0580  -38.1680 N.am   94  PHE94      -0.1962
      7  CA         8.4600  -77.1150  -39.1480 C.3    94  PHE94       0.1771
      8  C          9.4800  -76.0650  -39.5290 C.2    94  PHE94       0.2619
      9  O         10.2760  -75.6330  -38.7040 O.2    94  PHE94      -0.2715
     10  CB         7.1830  -76.4210  -38.6510 C.3    94  PHE94       0.0574
     11  CG         6.5110  -75.5840  -39.7020 C.ar   94  PHE94      -0.0200
     12  CD1        5.5630  -76.1460  -40.5450 C.ar   94  PHE94      -0.0042
     13  CD2        6.8240  -74.2380  -39.8440 C.ar   94  PHE94      -0.0042
     14  CE1        4.9360  -75.3820  -41.5200 C.ar   94  PHE94      -0.0003
     15  CE2        6.2210  -73.4710  -40.8270 C.ar   94  PHE94      -0.0003
     16  CZ         5.2790  -74.0460  -41.6830 C.ar   94  PHE94      -0.0000
     17  N          9.4680  -75.6820  -40.7980 N.am   95  ALA95      -0.1977
     18  CA        10.2930  -74.5790  -41.2750 C.3    95  ALA95       0.1597
     19  C          9.5600  -74.0160  -42.4720 C.2    95  ALA95       0.2287
     20  O          8.8410  -74.7680  -43.1430 O.2    95  ALA95      -0.2864
     21  CB        11.6980  -75.0660  -41.6690 C.3    95  ALA95       0.0319
     22  N         14.2630  -73.9310  -46.9560 N.3   100  LEU100     -0.1245
     23  CA        14.5840  -75.3670  -47.0560 C.3   100  LEU100      0.1561
     24  C         15.1680  -75.6730  -48.4330 C.2   100  LEU100      0.2260
     25  O         15.0410  -76.7810  -48.9700 O.2   100  LEU100     -0.2867
     26  CB        13.3720  -76.2530  -46.7370 C.3   100  LEU100      0.0270
     27  CG        12.9160  -76.2400  -45.2800 C.3   100  LEU100      0.0019
     28  CD1       11.5370  -76.9120  -45.1670 C.3   100  LEU100      0.0001
     29  CD2       13.9660  -76.9090  -44.3550 C.3   100  LEU100      0.0001
     30  N         17.4430  -85.9330  -37.9320 N.3   145  TYR145     -0.1241
     31  CA        17.9390  -86.2410  -39.2670 C.3   145  TYR145      0.1605
     32  C         19.4250  -85.8760  -39.2740 C.2   145  TYR145      0.2264
     33  O         19.8340  -84.9450  -38.5680 O.2   145  TYR145     -0.2867
     34  CB        17.2220  -85.4110  -40.3440 C.3   145  TYR145      0.0534
     35  CG        17.8080  -85.6360  -41.7280 C.ar  145  TYR145     -0.0201
     36  CD1       17.7650  -86.9130  -42.3120 C.ar  145  TYR145     -0.0009
     37  CD2       18.4220  -84.6030  -42.4440 C.ar  145  TYR145     -0.0009
     38  CE1       18.2860  -87.1600  -43.5690 C.ar  145  TYR145      0.0417
     39  CE2       18.9000  -84.8190  -43.7460 C.ar  145  TYR145      0.0417
     40  CZ        18.8890  -86.1130  -44.2630 C.ar  145  TYR145      0.1957
     41  OH        19.4020  -86.4030  -45.5090 O.3   145  TYR145     -0.2866
     42  N         24.3970  -80.3190  -44.8990 N.3   152  VAL152     -0.1231
     43  CA        23.8140  -81.0780  -45.9740 C.3   152  VAL152      0.1693
     44  C         23.0530  -80.0200  -46.8320 C.2   152  VAL152      0.2594
     45  O         22.4340  -79.0980  -46.3010 O.2   152  VAL152     -0.2718
     46  CB        22.8960  -82.0990  -45.2820 C.3   152  VAL152      0.0266
     47  CG1       21.5770  -82.1850  -45.9510 C.3   152  VAL152      0.0020
     48  CG2       23.5800  -83.4500  -45.0470 C.3   152  VAL152      0.0020
     49  N         23.2020  -80.0650  -48.1470 N.am  153  GLN153     -0.1934
     50  CA        22.5480  -79.1560  -49.0800 C.3   153  GLN153      0.1817
     51  C         21.0650  -78.9290  -48.7170 C.2   153  GLN153      0.2332
     52  O         20.3270  -79.8950  -48.4310 O.2   153  GLN153     -0.2860
     53  CB        22.6120  -79.8020  -50.4800 C.2   153  GLN153      0.0077
     54  CG        23.5660  -79.2560  -51.5560 C.2   153  GLN153      0.0587
     55  CD        24.5670  -78.1940  -51.1050 C.2   153  GLN153      0.2841
     56  OE1       24.1960  -77.1730  -50.5040 O.2   153  GLN153     -0.2667
     57  NE2       25.8310  -78.3690  -51.5020 N.am  153  GLN153     -0.0837
     58  N         18.9300  -78.4690  -46.5000 N.3   155  TYR155     -0.1241
     59  CA        18.2160  -78.7310  -45.2580 C.3   155  TYR155      0.1605
     60  C         18.3010  -77.5000  -44.3660 C.2   155  TYR155      0.2264
     61  O         17.3950  -77.2110  -43.5770 O.2   155  TYR155     -0.2867
     62  CB        18.8300  -79.9170  -44.5460 C.3   155  TYR155      0.0534
     63  CG        17.9770  -80.4690  -43.4480 C.ar  155  TYR155     -0.0201
     64  CD1       16.6640  -80.8640  -43.6840 C.ar  155  TYR155     -0.0009
     65  CD2       18.5370  -80.7380  -42.2190 C.ar  155  TYR155     -0.0009
     66  CE1       15.9340  -81.5330  -42.7350 C.ar  155  TYR155      0.0417
     67  CE2       17.8210  -81.3950  -41.2330 C.ar  155  TYR155      0.0417
     68  CZ        16.4870  -81.7370  -41.4760 C.ar  155  TYR155      0.1957
     69  OH        15.8020  -82.4190  -40.4900 O.3   155  TYR155     -0.2866
     70  N         16.6720  -76.1820  -41.0060 N.3   158  MET158     -0.1245
     71  CA        16.2460  -77.3330  -40.2130 C.3   158  MET158      0.1570
     72  C         17.4660  -78.1220  -39.6830 C.2   158  MET158      0.2261
     73  O         17.4200  -78.7330  -38.6170 O.2   158  MET158     -0.2867
     74  CB        15.2830  -78.1940  -41.0230 C.3   158  MET158      0.0387
     75  CG        14.6340  -79.2970  -40.1840 C.3   158  MET158      0.0595
     76  SD        13.5530  -78.7750  -38.8310 S.3   158  MET158     -0.1393
     77  CE        12.1720  -78.0680  -39.6800 C.3   158  MET158      0.0692
     78  N         17.5880  -79.1840  -35.9180 N.3   162  LYS162     -0.1197
     79  CA        17.9950  -80.5430  -35.5730 C.3   162  LYS162      0.1778
     80  C         19.1800  -80.6210  -34.6550 C.2   162  LYS162      0.2305
     81  O         19.1690  -81.4220  -33.7370 O.2   162  LYS162     -0.2863
     82  CB        18.2880  -81.3870  -36.8130 C.2   162  LYS162     -0.0042
     83  CG        17.0300  -82.0250  -37.5020 C.2   162  LYS162     -0.0273
     84  CD        15.7310  -81.9510  -36.7130 C.3   162  LYS162      0.0462
     85  CE        14.5410  -82.4810  -37.5940 C.3   162  LYS162      0.1140
     86  NZ        13.3140  -82.9660  -36.8480 N.3   162  LYS162     -0.1310
     87  N         16.1270  -90.5110  -45.2070 N.3   190  PRO190     -0.2102
     88  CA        15.0820  -89.7910  -45.9530 C.3   190  PRO190      0.1504
     89  C         13.9330  -90.7300  -46.3210 C.2   190  PRO190      0.2575
     90  O         14.2130  -91.8710  -46.6750 O.2   190  PRO190     -0.2718
     91  CB        15.8120  -89.3300  -47.2170 C.3   190  PRO190      0.0282
     92  CG        17.0820  -90.1810  -47.2880 C.3   190  PRO190      0.0208
     93  CD        17.4390  -90.4780  -45.8790 C.3   190  PRO190      0.0893
     94  N         12.6900  -90.2570  -46.1780 N.am  191  ILE191     -0.1980
     95  CA        11.4470  -91.0020  -46.3190 C.3   191  ILE191      0.1595
     96  C         10.3890  -90.0570  -46.8940 C.2   191  ILE191      0.2287
     97  O         10.1350  -88.9760  -46.3220 O.2   191  ILE191     -0.2864
     98  CB        10.8600  -91.5330  -44.9760 C.3   191  ILE191      0.0276
     99  CG1       11.7510  -92.6050  -44.3710 C.3   191  ILE191      0.0022
    100  CG2        9.4970  -92.2380  -45.1450 C.3   191  ILE191      0.0022
    101  CD1       11.2650  -93.0190  -42.9980 C.3   191  ILE191      0.0001
    102  N          7.4330  -88.3480  -47.1030 N.3   193  THR193     -0.1218
    103  CA         6.3280  -87.8530  -46.2840 C.3   193  THR193      0.1862
    104  C          5.8140  -86.5180  -46.8080 C.2   193  THR193      0.2287
    105  O          6.4390  -85.9350  -47.6890 O.2   193  THR193     -0.2866
    106  CB         6.7540  -87.6480  -44.8140 C.3   193  THR193      0.1770
    107  OG1        7.6200  -86.5040  -44.7470 O.3   193  THR193     -0.2211
    108  CG2        7.4320  -88.9140  -44.2680 C.3   193  THR193      0.0375
    109  N          5.9590  -83.5280  -45.2540 N.3   195  SER195     -0.1202
    110  CA         7.0080  -82.5400  -45.0160 C.3   195  SER195      0.2020
    111  C          8.2070  -82.7050  -45.9410 C.2   195  SER195      0.2618
    112  O          8.7600  -81.7330  -46.4320 O.2   195  SER195     -0.2717
    113  CB         7.4860  -82.6170  -43.5570 C.3   195  SER195      0.2103
    114  OG         6.4250  -82.2440  -42.6940 O.3   195  SER195     -0.2182
    115  N          8.5880  -83.9410  -46.2280 N.am  196  ALA196     -0.1979
    116  CA         9.7090  -84.1740  -47.1240 C.3   196  ALA196      0.1597
    117  C          9.5620  -83.4950  -48.4840 C.2   196  ALA196      0.2287
    118  O         10.5580  -83.1490  -49.0980 O.2   196  ALA196     -0.2864
    119  CB        10.0000  -85.6760  -47.2500 C.3   196  ALA196      0.0319
    120  N         11.3390  -79.9880  -48.8000 N.3   199  VAL199     -0.1231
    121  CA        12.8030  -79.8480  -48.7330 C.3   199  VAL199      0.1692
    122  C         13.4710  -79.8740  -50.1150 C.2   199  VAL199      0.2592
    123  O         13.3610  -80.8490  -50.8450 O.2   199  VAL199     -0.2718
    124  CB        13.4360  -80.9410  -47.8250 C.3   199  VAL199      0.0266
    125  CG1       14.8820  -80.6830  -47.5810 C.3   199  VAL199      0.0020
    126  CG2       12.7320  -80.9920  -46.5090 C.3   199  VAL199      0.0020
    127  N         14.2070  -78.8250  -50.4670 N.am  200  GLY200     -0.1957
    128  CA        15.0730  -78.8740  -51.6440 C.3   200  GLY200      0.1869
    129  C         15.9100  -80.1390  -51.8000 C.2   200  GLY200      0.2309
    130  O         16.5440  -80.6150  -50.8400 O.2   200  GLY200     -0.2863
    131  N         15.1800  -83.3380  -52.1320 N.3   202  PHE202     -0.1241
    132  CA        14.8520  -84.5460  -51.3670 C.3   202  PHE202      0.1605
    133  C         15.0780  -85.8250  -52.1880 C.2   202  PHE202      0.2264
    134  O         15.6730  -86.8020  -51.7370 O.2   202  PHE202     -0.2867
    135  CB        13.4050  -84.4940  -50.8590 C.3   202  PHE202      0.0534
    136  CG        12.9380  -85.7900  -50.2600 C.ar  202  PHE202     -0.0203
    137  CD1       13.2450  -86.1100  -48.9520 C.ar  202  PHE202     -0.0042
    138  CD2       12.2700  -86.7230  -51.0380 C.ar  202  PHE202     -0.0042
    139  CE1       12.8250  -87.3080  -48.4060 C.ar  202  PHE202     -0.0003
    140  CE2       11.8850  -87.9400  -50.5090 C.ar  202  PHE202     -0.0003
    141  CZ        12.1970  -88.2420  -49.2090 C.ar  202  PHE202     -0.0000
    142  N         18.4730  -86.9710  -52.8270 N.3   205  ILE205     -0.1245
    143  CA        19.0520  -87.6110  -51.6560 C.3   205  ILE205      0.1561
    144  C         18.5800  -89.0590  -51.4420 C.2   205  ILE205      0.2260
    145  O         19.3680  -89.9300  -51.0350 O.2   205  ILE205     -0.2867
    146  CB        18.7680  -86.7420  -50.3890 C.3   205  ILE205      0.0252
    147  CG1       19.3200  -85.3390  -50.6220 C.3   205  ILE205      0.0019
    148  CG2       19.3620  -87.3740  -49.1500 C.3   205  ILE205      0.0019
    149  CD1       20.8560  -85.3140  -50.8440 C.3   205  ILE205      0.0001
@<TRIPOS>BOND
     1   142   143    1
     2   133   134    2
     3   133   132    1
     4   131   132    1
     5   129   128    1
     6   129   130    2
     7   143   144    1
     8   143   146    1
     9   128   127    1
    10    54    55    1
    11    54    53    2
    12    57    55   am
    13   144   145    2
    14   132   135    1
    15    55    56    2
    16   138   140   ar
    17   138   136   ar
    18   135   136    1
    19   123   122    2
    20   149   147    1
    21   147   146    1
    22   140   141   ar
    23    53    50    1
    24   127   122   am
    25   146   148    1
    26   136   137   ar
    27   122   121    1
    28   141   139   ar
    29   118   117    2
    30    50    51    1
    31    50    49    1
    32    25    24    2
    33   137   139   ar
    34   120   121    1
    35   121   124    1
    36    51    52    2
    37   117   116    1
    38    24    23    1
    39    49    44   am
    40   124   125    1
    41   124   126    1
    42   105   104    2
    43    92    91    1
    44    92    93    1
    45   119   116    1
    46    91    88    1
    47   116   115    1
    48   102   103    1
    49    23    22    1
    50    23    26    1
    51    96    97    2
    52    96    95    1
    53    44    45    2
    54    44    43    1
    55   104   103    1
    56    26    27    1
    57    90    89    2
    58    58    59    1
    59   112   111    2
    60    89    94   am
    61    89    88    1
    62    95    94    1
    63    95    98    1
    64   103   106    1
    65   115   111   am
    66    43    46    1
    67    43    42    1
    68    88    87    1
    69    47    46    1
    70   111   110    1
    71    93    87    1
    72    41    40    1
    73    46    48    1
    74    27    28    1
    75    27    29    1
    76    59    62    1
    77    59    60    1
    78   109   110    1
    79   100    98    1
    80   110   113    1
    81    98    99    1
    82   106   107    1
    83   106   108    1
    84    62    63    1
    85    99   101    1
    86    60    61    2
    87    40    39   ar
    88    40    38   ar
    89    39    37   ar
    90    64    63   ar
    91    64    66   ar
    92    38    36   ar
    93   113   114    1
    94    63    65   ar
    95    20    19    2
    96    66    68   ar
    97    19    18    1
    98    37    35   ar
    99    36    35   ar
   100    65    67   ar
   101    35    34    1
   102    16    14   ar
   103    16    15   ar
   104    21    18    1
   105    14    12   ar
   106    68    67   ar
   107    68    69    1
   108    18    17    1
   109    74    71    1
   110    74    75    1
   111    70    71    1
   112    15    13   ar
   113    17     8   am
   114    12    11   ar
   115    34    31    1
   116    71    72    1
   117    75    76    1
   118    13    11   ar
   119    11    10    1
   120    72    73    2
   121    77    76    1
   122     8     7    1
   123     8     9    2
   124    32    31    1
   125    32    33    2
   126    31    30    1
   127     7    10    1
   128     7     6    1
   129     4     3    2
   130     6     3   am
   131     3     2    1
   132     5     2    1
   133    85    86    1
   134    85    84    1
   135    83    82    2
   136    83    84    1
   137     2     1    1
   138    82    79    1
   139    78    79    1
   140    79    80    1
   141    80    81    2
