@<TRIPOS>MOLECULE
tmp/4bnkB01.pdb
 140 133 0 0 0
SMALL
GASTEIGER

@<TRIPOS>ATOM
      1  N         17.9540    8.7520  -54.4240 N.3    94  ALA94      -0.1231
      2  CA        16.9580    7.7000  -54.4470 C.3    94  ALA94       0.1694
      3  C         17.3150    6.7000  -55.5430 C.2    94  ALA94       0.2592
      4  O         18.0300    7.0510  -56.5100 O.2    94  ALA94      -0.2718
      5  CB        15.6020    8.2460  -54.6580 C.3    94  ALA94       0.0304
      6  N         16.8320    5.4670  -55.3880 N.am   95  PHE95      -0.1962
      7  CA        17.0330    4.4350  -56.3760 C.3    95  PHE95       0.1771
      8  C         15.9690    3.3320  -56.3160 C.2    95  PHE95       0.2619
      9  O         15.4780    2.9670  -55.2400 O.2    95  PHE95      -0.2715
     10  CB        18.4240    3.8250  -56.2010 C.3    95  PHE95       0.0574
     11  CG        18.8140    2.9190  -57.3140 C.ar   95  PHE95      -0.0200
     12  CD1       19.4580    3.4210  -58.4420 C.ar   95  PHE95      -0.0042
     13  CD2       18.5030    1.5490  -57.2550 C.ar   95  PHE95      -0.0042
     14  CE1       19.7880    2.5860  -59.4970 C.ar   95  PHE95      -0.0003
     15  CE2       18.8200    0.6990  -58.2970 C.ar   95  PHE95      -0.0003
     16  CZ        19.4810    1.2110  -59.4200 C.ar   95  PHE95      -0.0000
     17  N         15.5990    2.8250  -57.4850 N.am   96  ALA96      -0.1977
     18  CA        14.8410    1.5690  -57.5890 C.3    96  ALA96       0.1597
     19  C         15.0600    1.0240  -58.9880 C.2    96  ALA96       0.2287
     20  O         15.0800    1.7890  -59.9570 O.2    96  ALA96      -0.2864
     21  CB        13.3200    1.7510  -57.3180 C.3    96  ALA96       0.0319
     22  N          9.7780   -0.7280  -60.9780 N.3   101  LEU101     -0.1245
     23  CA         9.0490    0.5280  -61.2700 C.3   101  LEU101      0.1561
     24  C          7.9030    0.3260  -62.3100 C.2   101  LEU101      0.2260
     25  O          6.7710    0.7590  -62.0940 O.2   101  LEU101     -0.2867
     26  CB         9.9920    1.6740  -61.7370 C.3   101  LEU101      0.0270
     27  CG        10.7920    2.7260  -60.9000 C.3   101  LEU101      0.0019
     28  CD1       10.2490    3.0290  -59.4720 C.3   101  LEU101      0.0001
     29  CD2       12.2960    2.4250  -60.8400 C.3   101  LEU101      0.0001
     30  N         11.3380   14.8400  -51.8270 N.3   145  THR145     -0.1203
     31  CA        10.2780   13.8540  -51.9530 C.3   145  THR145      0.1994
     32  C          9.4110   14.0930  -53.1970 C.2   145  THR145      0.2617
     33  O          9.7720   14.8810  -54.0730 O.2   145  THR145     -0.2717
     34  CB         9.4650   13.7160  -50.6370 C.3   145  THR145      0.1784
     35  OG1        8.7110   12.5000  -50.6830 O.3   145  THR145     -0.2211
     36  CG2        8.5290   14.9110  -50.4260 C.3   145  THR145      0.0376
     37  N          8.3070   13.3970  -53.3070 N.am  146  TYR146     -0.1975
     38  CA         7.4590   13.5430  -54.4320 C.3   146  TYR146      0.1639
     39  C          6.0230   13.1990  -54.0230 C.2   146  TYR146      0.2290
     40  O          5.7860   12.2470  -53.2570 O.2   146  TYR146     -0.2864
     41  CB         7.9050   12.6010  -55.5470 C.3   146  TYR146      0.0560
     42  CG         7.0470   12.6910  -56.8140 C.ar  146  TYR146     -0.0198
     43  CD1        6.9570   13.9000  -57.5370 C.ar  146  TYR146     -0.0009
     44  CD2        6.3420   11.6000  -57.2830 C.ar  146  TYR146     -0.0009
     45  CE1        6.2220   14.0020  -58.6460 C.ar  146  TYR146      0.0417
     46  CE2        5.5690   11.6940  -58.4380 C.ar  146  TYR146      0.0417
     47  CZ         5.5220   12.8950  -59.1010 C.ar  146  TYR146      0.1957
     48  OH         4.7570   13.0450  -60.2310 O.3   146  TYR146     -0.2866
     49  N          4.4950    4.7640  -60.2290 N.3   156  TYR156     -0.1241
     50  CA         5.5260    5.1190  -59.2670 C.3   156  TYR156      0.1605
     51  C          5.7690    3.9850  -58.2870 C.2   156  TYR156      0.2264
     52  O          6.9060    3.8020  -57.8600 O.2   156  TYR156     -0.2867
     53  CB         5.1130    6.3720  -58.5360 C.3   156  TYR156      0.0534
     54  CG         6.2110    7.1910  -57.9340 C.ar  156  TYR156     -0.0201
     55  CD1        7.3150    7.6150  -58.6960 C.ar  156  TYR156     -0.0009
     56  CD2        6.1220    7.6000  -56.6270 C.ar  156  TYR156     -0.0009
     57  CE1        8.3100    8.4200  -58.1310 C.ar  156  TYR156      0.0417
     58  CE2        7.1220    8.4000  -56.0460 C.ar  156  TYR156      0.0417
     59  CZ         8.1890    8.7990  -56.8020 C.ar  156  TYR156      0.1957
     60  OH         9.1290    9.5680  -56.1900 O.3   156  TYR156     -0.2866
     61  N          8.5680    3.2570  -55.5020 N.3   159  MET159     -0.1245
     62  CA         9.1400    4.5350  -55.0760 C.3   159  MET159      0.1570
     63  C          8.2170    5.3950  -54.1860 C.2   159  MET159      0.2261
     64  O          8.7190    6.0400  -53.2490 O.2   159  MET159     -0.2867
     65  CB         9.7800    5.2720  -56.2300 C.3   159  MET159      0.0387
     66  CG        10.7190    6.4150  -55.8610 C.3   159  MET159      0.0595
     67  SD        11.9140    6.1900  -54.5040 S.3   159  MET159     -0.1393
     68  CE        13.0430    5.0830  -55.3280 C.3   159  MET159      0.0692
     69  N          8.8680    6.7790  -50.5470 N.3   163  LYS163     -0.1245
     70  CA         8.7380    8.2180  -50.3180 C.3   163  LYS163      0.1561
     71  C          7.9070    8.4150  -49.1010 C.2   163  LYS163      0.2260
     72  O          8.2930    9.1970  -48.2420 O.2   163  LYS163     -0.2867
     73  CB         8.1600    8.9870  -51.5040 C.3   163  LYS163      0.0271
     74  CG         9.1720    9.4770  -52.5870 C.3   163  LYS163      0.0035
     75  CD        10.6740    9.5320  -52.1930 C.3   163  LYS163      0.0206
     76  CE        11.4470   10.0530  -53.4140 C.3   163  LYS163      0.1093
     77  NZ        12.7730   10.7950  -53.2300 N.3   163  LYS163     -0.1314
     78  N          7.5090   17.2230  -61.0910 N.3   191  PRO191     -0.2102
     79  CA         8.2730   16.4450  -62.0630 C.3   191  PRO191      0.1504
     80  C          9.2310   17.3400  -62.8460 C.2   191  PRO191      0.2575
     81  O          8.9590   18.5060  -63.0040 O.2   191  PRO191     -0.2718
     82  CB         7.1910   15.9070  -63.0160 C.3   191  PRO191      0.0282
     83  CG         5.9430   16.7010  -62.7010 C.3   191  PRO191      0.0208
     84  CD         6.0610   17.2800  -61.3650 C.3   191  PRO191      0.0893
     85  N         10.3150   16.7900  -63.3800 N.am  192  ILE192     -0.1980
     86  CA        11.4180   17.5730  -63.9640 C.3   192  ILE192      0.1595
     87  C         12.2910   16.6070  -64.7630 C.2   192  ILE192      0.2287
     88  O         12.7410   15.6480  -64.2040 O.2   192  ILE192     -0.2864
     89  CB        12.3050   18.2500  -62.8390 C.3   192  ILE192      0.0276
     90  CG1       11.4760   19.2180  -61.9830 C.3   192  ILE192      0.0022
     91  CG2       13.4600   18.9940  -63.4360 C.3   192  ILE192      0.0022
     92  CD1       12.2640   19.9800  -60.9540 C.3   192  ILE192      0.0001
     93  N         14.9020   14.5430  -65.7100 N.3   194  THR194     -0.1218
     94  CA        16.1660   14.2030  -65.0490 C.3   194  THR194      0.1862
     95  C         16.5940   12.8010  -65.4510 C.2   194  THR194      0.2287
     96  O         15.8200   12.0450  -66.0120 O.2   194  THR194     -0.2866
     97  CB        16.1020   14.3540  -63.4920 C.3   194  THR194      0.1770
     98  OG1       15.3000   13.3080  -62.9140 O.3   194  THR194     -0.2211
     99  CG2       15.5610   15.7490  -63.0760 C.3   194  THR194      0.0375
    100  N         17.0930   10.2380  -63.6630 N.3   196  SER196     -0.1202
    101  CA        16.2330    9.3360  -62.9240 C.3   196  SER196      0.2020
    102  C         14.7910    9.3050  -63.3230 C.2   196  SER196      0.2618
    103  O         14.1700    8.2740  -63.2200 O.2   196  SER196     -0.2717
    104  CB        16.2980    9.6270  -61.4430 C.3   196  SER196      0.2103
    105  OG        17.5690    9.3580  -60.9600 O.3   196  SER196     -0.2182
    106  N         14.2210   10.4170  -63.7330 N.am  197  ALA197     -0.1979
    107  CA        12.8720   10.4050  -64.3560 C.3   197  ALA197      0.1597
    108  C         12.7610    9.3960  -65.5170 C.2   197  ALA197      0.2287
    109  O         11.6650    8.8690  -65.8030 O.2   197  ALA197     -0.2864
    110  CB        12.4850   11.7900  -64.8260 C.3   197  ALA197      0.0319
    111  N         13.2250    6.5380  -65.4820 N.3   199  GLY199     -0.1210
    112  CA        12.7910    5.2440  -64.9990 C.3   199  GLY199      0.1956
    113  C         11.2980    5.1610  -64.7670 C.2   199  GLY199      0.2611
    114  O         10.7550    4.1050  -64.4650 O.2   199  GLY199     -0.2717
    115  N         10.6240    6.2850  -64.9200 N.am  200  VAL200     -0.1979
    116  CA         9.2580    6.3820  -64.4930 C.3   200  VAL200      0.1595
    117  C          8.2700    6.3540  -65.6570 C.2   200  VAL200      0.2287
    118  O          8.2270    7.2620  -66.4810 O.2   200  VAL200     -0.2864
    119  CB         9.0650    7.6500  -63.6690 C.3   200  VAL200      0.0276
    120  CG1        7.6040    7.8670  -63.3200 C.3   200  VAL200      0.0022
    121  CG2        9.9110    7.5600  -62.4460 C.3   200  VAL200      0.0022
    122  N          6.0090    9.4530  -67.8860 N.3   203  PHE203     -0.1241
    123  CA         6.5150   10.7620  -67.4550 C.3   203  PHE203      0.1605
    124  C          6.0250   11.9400  -68.3420 C.2   203  PHE203      0.2264
    125  O          5.6400   13.0040  -67.8270 O.2   203  PHE203     -0.2867
    126  CB         8.0310   10.7830  -67.3650 C.3   203  PHE203      0.0534
    127  CG         8.5540   11.8810  -66.4990 C.ar  203  PHE203     -0.0203
    128  CD1        8.3350   11.8580  -65.1170 C.ar  203  PHE203     -0.0042
    129  CD2        9.2860   12.9230  -67.0460 C.ar  203  PHE203     -0.0042
    130  CE1        8.8440   12.8980  -64.2770 C.ar  203  PHE203     -0.0003
    131  CE2        9.8060   13.9620  -66.2270 C.ar  203  PHE203     -0.0003
    132  CZ         9.5970   13.9420  -64.8440 C.ar  203  PHE203     -0.0000
    133  N          2.6930   13.0580  -67.4130 N.3   206  ILE206     -0.1245
    134  CA         2.7140   13.6030  -66.0660 C.3   206  ILE206      0.1561
    135  C          3.0790   15.1040  -66.1490 C.2   206  ILE206      0.2260
    136  O          2.4210   15.9570  -65.5590 O.2   206  ILE206     -0.2867
    137  CB         3.7080   12.7880  -65.1460 C.3   206  ILE206      0.0252
    138  CG1        3.1490   11.4010  -64.8100 C.3   206  ILE206      0.0019
    139  CG2        4.0930   13.5680  -63.8670 C.3   206  ILE206      0.0019
    140  CD1        4.2070   10.4310  -64.1860 C.3   206  ILE206      0.0001
@<TRIPOS>BOND
     1   124   125    2
     2   124   123    1
     3   122   123    1
     4   123   126    1
     5   133   134    1
     6   126   127    1
     7   129   127   ar
     8   129   131   ar
     9   127   128   ar
    10   118   117    2
    11   131   132   ar
    12   135   134    1
    13   135   136    2
    14   134   137    1
    15    96    95    2
    16   109   108    2
    17    93    94    1
    18   117   116    1
    19   108   107    1
    20   111   112    1
    21    95    94    1
    22   137   138    1
    23   137   139    1
    24   128   130   ar
    25    94    97    1
    26   112   113    1
    27   115   113   am
    28   115   116    1
    29   132   130   ar
    30   110   107    1
    31   138   140    1
    32   113   114    2
    33    87    88    2
    34    87    86    1
    35   116   119    1
    36   107   106    1
    37    86    85    1
    38    86    89    1
    39   106   102   am
    40   119   120    1
    41   119   121    1
    42   100   101    1
    43    97    99    1
    44    97    98    1
    45    91    89    1
    46    85    80   am
    47   102   103    2
    48   102   101    1
    49    82    83    1
    50    82    79    1
    51    81    80    2
    52   101   104    1
    53    80    79    1
    54    89    90    1
    55    83    84    1
    56    24    25    2
    57    24    23    1
    58    79    78    1
    59    90    92    1
    60    26    23    1
    61    26    27    1
    62   104   105    1
    63    84    78    1
    64    23    22    1
    65    27    29    1
    66    27    28    1
    67    48    47    1
    68    49    50    1
    69    20    19    2
    70    14    16   ar
    71    14    12   ar
    72    16    15   ar
    73    50    53    1
    74    50    51    1
    75    47    45   ar
    76    47    46   ar
    77    19    18    1
    78    55    57   ar
    79    55    54   ar
    80    45    43   ar
    81    53    54    1
    82    12    11   ar
    83    46    44   ar
    84    15    13   ar
    85    51    52    2
    86    57    59   ar
    87    54    56   ar
    88    18    17    1
    89    18    21    1
    90    43    42   ar
    91    17     8   am
    92    11    13   ar
    93    11    10    1
    94    44    42   ar
    95    42    41    1
    96    59    60    1
    97    59    58   ar
    98    56    58   ar
    99     4     3    2
   100     7     8    1
   101     7    10    1
   102     7     6    1
   103     8     9    2
   104    65    66    1
   105    65    62    1
   106    66    67    1
   107    41    38    1
   108     3     6   am
   109     3     2    1
   110    61    62    1
   111    68    67    1
   112    62    63    1
   113     5     2    1
   114     2     1    1
   115    38    39    1
   116    38    37    1
   117    63    64    2
   118    33    32    2
   119    39    40    2
   120    76    77    1
   121    76    75    1
   122    37    32   am
   123    32    31    1
   124    74    75    1
   125    74    73    1
   126    31    30    1
   127    31    34    1
   128    73    70    1
   129    35    34    1
   130    34    36    1
   131    69    70    1
   132    70    71    1
   133    71    72    2
