@<TRIPOS>MOLECULE
tmp/4bnlF01.pdb
 140 132 0 0 0
SMALL
GASTEIGER

@<TRIPOS>ATOM
      1  N        -18.8180   40.8810   14.3820 N.3    94  ALA94      -0.1231
      2  CA       -17.8640   40.7000   15.4370 C.3    94  ALA94       0.1694
      3  C        -18.2800   41.5630   16.6240 C.2    94  ALA94       0.2592
      4  O        -19.0020   42.5760   16.4840 O.2    94  ALA94      -0.2718
      5  CB       -16.4580   41.0320   14.9640 C.3    94  ALA94       0.0304
      6  N        -17.7330   41.2010   17.7840 N.am   95  PHE95      -0.1962
      7  CA       -17.9610   41.9350   19.0200 C.3    95  PHE95       0.1771
      8  C        -16.9170   41.5590   20.0980 C.2    95  PHE95       0.2619
      9  O        -16.4670   40.3990   20.1600 O.2    95  PHE95      -0.2715
     10  CB       -19.3590   41.5950   19.5100 C.3    95  PHE95       0.0574
     11  CG       -19.7740   42.4310   20.6720 C.ar   95  PHE95      -0.0200
     12  CD1      -20.2940   43.6920   20.4590 C.ar   95  PHE95      -0.0042
     13  CD2      -19.4510   42.0430   21.9740 C.ar   95  PHE95      -0.0042
     14  CE1      -20.5550   44.5320   21.5370 C.ar   95  PHE95      -0.0003
     15  CE2      -19.7360   42.8760   23.0680 C.ar   95  PHE95      -0.0003
     16  CZ       -20.2940   44.1150   22.8480 C.ar   95  PHE95      -0.0000
     17  N        -16.3770   42.5670   20.7840 N.am   96  ALA96      -0.1977
     18  CA       -15.6470   42.4310   22.0400 C.3    96  ALA96       0.1597
     19  C        -15.9720   43.6240   22.9360 C.2    96  ALA96       0.2287
     20  O        -16.3840   44.6680   22.4600 O.2    96  ALA96      -0.2864
     21  CB       -14.1490   42.3180   21.8360 C.3    96  ALA96       0.0319
     22  N        -10.9170   45.1550   24.9550 N.3   101  LEU101     -0.1245
     23  CA       -10.1020   45.7900   23.8880 C.3   101  LEU101      0.1561
     24  C         -9.0400   46.7900   24.4070 C.2   101  LEU101      0.2260
     25  O         -7.9910   46.9450   23.7930 O.2   101  LEU101     -0.2867
     26  CB       -10.9500   46.4380   22.7690 C.3   101  LEU101      0.0270
     27  CG       -11.8570   45.5640   21.8800 C.3   101  LEU101      0.0019
     28  CD1      -13.0040   46.2940   21.1800 C.3   101  LEU101      0.0001
     29  CD2      -11.0230   44.8310   20.8280 C.3   101  LEU101      0.0001
     30  N         -9.4910   40.7140    9.5970 N.3   146  TYR146     -0.1241
     31  CA        -8.5860   41.8200    9.6660 C.3   146  TYR146      0.1605
     32  C         -7.1680   41.2750    9.9590 C.2   146  TYR146      0.2264
     33  O         -7.0180   40.3000   10.6720 O.2   146  TYR146     -0.2867
     34  CB        -9.0300   42.7600   10.8140 C.3   146  TYR146      0.0534
     35  CG        -8.0580   43.8990   11.0100 C.ar  146  TYR146     -0.0201
     36  CD1       -7.7810   44.7800    9.9480 C.ar  146  TYR146     -0.0009
     37  CD2       -7.2690   43.9870   12.1600 C.ar  146  TYR146     -0.0009
     38  CE1       -6.8210   45.7750   10.0530 C.ar  146  TYR146      0.0417
     39  CE2       -6.3040   45.0200   12.3120 C.ar  146  TYR146      0.0417
     40  CZ        -6.0740   45.8770   11.2370 C.ar  146  TYR146      0.1957
     41  OH        -5.1430   46.8830   11.3460 O.3   146  TYR146     -0.2866
     42  N         -1.2640   43.1720   16.3440 N.3   153  VAL153     -0.1245
     43  CA        -1.4320   44.6060   16.1220 C.3   153  VAL153      0.1561
     44  C         -1.7460   45.3010   17.4730 C.2   153  VAL153      0.2260
     45  O         -2.5790   44.8170   18.2380 O.2   153  VAL153     -0.2867
     46  CB        -2.5460   44.8270   15.0660 C.3   153  VAL153      0.0252
     47  CG1       -2.8920   46.2970   14.9050 C.3   153  VAL153      0.0019
     48  CG2       -2.0870   44.3210   13.6960 C.3   153  VAL153      0.0019
     49  N         -5.5570   45.7840   19.3160 N.3   156  TYR156     -0.1241
     50  CA        -6.5860   44.9520   18.7260 C.3   156  TYR156      0.1605
     51  C         -6.8610   43.7400   19.6170 C.2   156  TYR156      0.2264
     52  O         -7.9840   43.2320   19.6970 O.2   156  TYR156     -0.2867
     53  CB        -6.1350   44.5360   17.3360 C.3   156  TYR156      0.0534
     54  CG        -7.2480   44.0320   16.4690 C.ar  156  TYR156     -0.0201
     55  CD1       -8.3690   44.8190   16.2230 C.ar  156  TYR156     -0.0009
     56  CD2       -7.2060   42.7500   15.9240 C.ar  156  TYR156     -0.0009
     57  CE1       -9.4260   44.3620   15.4120 C.ar  156  TYR156      0.0417
     58  CE2       -8.2720   42.2620   15.1120 C.ar  156  TYR156      0.0417
     59  CZ        -9.3440   43.0840   14.8440 C.ar  156  TYR156      0.1957
     60  OH       -10.3310   42.6080   14.0190 O.3   156  TYR156     -0.2866
     61  N         -9.6180   40.8030   19.9700 N.3   159  MET159     -0.1245
     62  CA       -10.2280   40.6080   18.6540 C.3   159  MET159      0.1570
     63  C         -9.1860   40.0340   17.6450 C.2   159  MET159      0.2261
     64  O         -9.5170   39.2460   16.7730 O.2   159  MET159     -0.2867
     65  CB       -10.9020   41.9140   18.1740 C.3   159  MET159      0.0387
     66  CG       -11.6530   41.7470   16.8500 C.3   159  MET159      0.0595
     67  SD       -13.0640   40.5630   16.9460 S.3   159  MET159     -0.1393
     68  CE       -13.7690   41.0670   18.4690 C.3   159  MET159      0.0692
     69  N        -10.0640   36.8120   15.4970 N.3   163  LYS163     -0.1245
     70  CA        -9.9120   36.7330   14.0500 C.3   163  LYS163      0.1561
     71  C         -9.0100   35.5750   13.6180 C.2   163  LYS163      0.2260
     72  O         -9.2500   34.9890   12.5720 O.2   163  LYS163     -0.2867
     73  CB        -9.4350   38.0510   13.4230 C.3   163  LYS163      0.0271
     74  CG       -10.3850   39.2220   13.5620 C.3   163  LYS163      0.0035
     75  CD       -11.8420   38.9440   13.0810 C.3   163  LYS163      0.0206
     76  CE       -12.6020   40.2400   12.8740 C.3   163  LYS163      0.1093
     77  NZ       -14.0240   40.1070   12.2640 N.3   163  LYS163     -0.1314
     78  N         -8.8780   46.3830    5.0920 N.3   190  GLY190     -0.1210
     79  CA        -8.0860   47.4290    5.7210 C.3   190  GLY190      0.1940
     80  C         -8.9410   48.2820    6.6340 C.2   190  GLY190      0.2454
     81  O        -10.1530   48.1450    6.6670 O.2   190  GLY190     -0.2732
     82  N         -8.3070   49.1250    7.4560 N.am  191  PRO191     -0.2717
     83  CA        -9.0820   49.9090    8.4340 C.3   191  PRO191      0.1535
     84  C        -10.0730   50.8740    7.7670 C.2   191  PRO191      0.2598
     85  O         -9.7710   51.4970    6.7480 O.2   191  PRO191     -0.2715
     86  CB        -8.0020   50.6480    9.2530 C.3   191  PRO191      0.0310
     87  CG        -6.7870   50.6000    8.4590 C.3   191  PRO191      0.0237
     88  CD        -6.8650   49.3920    7.5300 C.3   191  PRO191      0.0939
     89  N        -11.2960   50.9130    8.2790 N.am  192  ILE192     -0.1978
     90  CA       -12.3630   51.7130    7.6890 C.3   192  ILE192      0.1596
     91  C        -13.1710   52.3720    8.8160 C.2   192  ILE192      0.2287
     92  O        -13.5590   51.6670    9.7550 O.2   192  ILE192     -0.2864
     93  CB       -13.2920   50.7950    6.8680 C.3   192  ILE192      0.0276
     94  CG1      -12.5540   50.1920    5.6650 C.3   192  ILE192      0.0022
     95  CG2      -14.4820   51.5690    6.3400 C.3   192  ILE192      0.0022
     96  CD1      -13.4980   49.3640    4.8030 C.3   192  ILE192      0.0001
     97  N        -15.8030   52.8260   10.9820 N.3   194  THR194     -0.1218
     98  CA       -17.1350   52.3030   11.2800 C.3   194  THR194      0.1862
     99  C        -17.5600   52.5030   12.7440 C.2   194  THR194      0.2287
    100  O        -16.7890   52.9700   13.5800 O.2   194  THR194     -0.2866
    101  CB       -17.2510   50.8080   10.9780 C.3   194  THR194      0.1770
    102  OG1      -16.3920   50.0890   11.8710 O.3   194  THR194     -0.2211
    103  CG2      -16.9230   50.4870    9.4930 C.3   194  THR194      0.0375
    104  N        -18.1500   50.0750   14.9990 N.3   196  SER196     -0.1202
    105  CA       -17.2520   49.1870   15.7220 C.3   196  SER196      0.2020
    106  C        -15.8100   49.6930   15.8170 C.2   196  SER196      0.2618
    107  O        -15.1710   49.4900   16.8430 O.2   196  SER196     -0.2717
    108  CB       -17.2240   47.7830   15.0950 C.3   196  SER196      0.2103
    109  OG       -18.4240   47.0870   15.3720 O.3   196  SER196     -0.2182
    110  N        -15.2690   50.3130   14.7710 N.am  197  ALA197     -0.1979
    111  CA       -13.9150   50.8540   14.8360 C.3   197  ALA197      0.1597
    112  C        -13.7360   51.8120   16.0100 C.2   197  ALA197      0.2287
    113  O        -12.6230   52.0440   16.4540 O.2   197  ALA197     -0.2864
    114  CB       -13.5130   51.5340   13.5140 C.3   197  ALA197      0.0319
    115  N        -11.6600   50.3580   19.0480 N.3   200  VAL200     -0.1245
    116  CA       -10.2380   50.0920   18.9450 C.3   200  VAL200      0.1561
    117  C         -9.3850   51.3160   19.2970 C.2   200  VAL200      0.2260
    118  O         -9.4150   52.2970   18.5580 O.2   200  VAL200     -0.2867
    119  CB        -9.9520   49.6920   17.5120 C.3   200  VAL200      0.0252
    120  CG1       -8.5360   49.2440   17.3530 C.3   200  VAL200      0.0019
    121  CG2      -10.9260   48.6250   17.1110 C.3   200  VAL200      0.0019
    122  N         -7.1190   54.1000   16.5640 N.3   203  PHE203     -0.1241
    123  CA        -7.6070   53.9690   15.1940 C.3   203  PHE203      0.1605
    124  C         -7.0810   55.0240   14.2050 C.2   203  PHE203      0.2264
    125  O         -6.7440   54.7270   13.0600 O.2   203  PHE203     -0.2867
    126  CB        -9.1430   53.9480   15.1690 C.3   203  PHE203      0.0534
    127  CG        -9.6980   53.4020   13.8960 C.ar  203  PHE203     -0.0203
    128  CD1       -9.5570   52.0560   13.5930 C.ar  203  PHE203     -0.0042
    129  CD2      -10.2560   54.2500   12.9510 C.ar  203  PHE203     -0.0042
    130  CE1       -9.9720   51.5440   12.3630 C.ar  203  PHE203     -0.0003
    131  CE2      -10.6870   53.7510   11.7330 C.ar  203  PHE203     -0.0003
    132  CZ       -10.5600   52.4070   11.4510 C.ar  203  PHE203     -0.0000
    133  N         -3.6770   54.3930   12.8420 N.3   206  ILE206     -0.1245
    134  CA        -3.5750   53.1680   12.0340 C.3   206  ILE206      0.1561
    135  C         -3.9380   53.5020   10.6090 C.2   206  ILE206      0.2260
    136  O         -3.1900   53.2040    9.6910 O.2   206  ILE206     -0.2867
    137  CB        -4.5050   52.0240   12.5470 C.3   206  ILE206      0.0252
    138  CG1       -4.0600   51.5610   13.9350 C.3   206  ILE206      0.0019
    139  CG2       -4.5170   50.8140   11.6090 C.3   206  ILE206      0.0019
    140  CD1       -5.2140   51.1200   14.8310 C.3   206  ILE206      0.0001
@<TRIPOS>BOND
     1    96    94    1
     2    78    79    1
     3    94    93    1
     4    79    80    1
     5    95    93    1
     6    80    81    2
     7    80    82   am
     8    85    84    2
     9    93    90    1
    10    82    88    1
    11    82    83    1
    12    88    87    1
    13    90    89    1
    14    90    91    1
    15    84    89   am
    16    84    83    1
    17    83    86    1
    18    87    86    1
    19    91    92    2
    20   103   101    1
    21    30    31    1
    22    31    32    1
    23    31    34    1
    24   136   135    2
    25    36    38   ar
    26    36    35   ar
    27    32    33    2
    28    38    40   ar
    29   135   134    1
    30    34    35    1
    31   101    98    1
    32   101   102    1
    33    97    98    1
    34    35    37   ar
    35    40    41    1
    36    40    39   ar
    37    98    99    1
    38   132   131   ar
    39   132   130   ar
    40   139   137    1
    41   131   129   ar
    42   134   137    1
    43   134   133    1
    44    37    39   ar
    45    77    76    1
    46   130   128   ar
    47   137   138    1
    48    72    71    2
    49    99   100    2
    50    76    75    1
    51   129   127   ar
    52   125   124    2
    53    75    74    1
    54    73    74    1
    55    73    70    1
    56   114   111    1
    57   128   127   ar
    58    71    70    1
    59    48    46    1
    60   127   126    1
    61   138   140    1
    62    60    59    1
    63    70    69    1
    64   124   123    1
    65     1     2    1
    66   110   111    1
    67   110   106   am
    68   111   112    1
    69    59    58   ar
    70    59    57   ar
    71    47    46    1
    72     5     2    1
    73   104   105    1
    74    46    43    1
    75   108   109    1
    76   108   105    1
    77    58    56   ar
    78   126   123    1
    79   123   122    1
    80    57    55   ar
    81     2     3    1
    82   105   106    1
    83   106   107    2
    84    56    54   ar
    85   112   113    2
    86    43    42    1
    87    43    44    1
    88    55    54   ar
    89    54    53    1
    90     4     3    2
    91     3     6   am
    92    64    63    2
    93    66    67    1
    94    66    65    1
    95    67    68    1
    96   121   119    1
    97    53    50    1
    98   120   119    1
    99    44    45    2
   100   119   116    1
   101    63    62    1
   102     6     7    1
   103    65    62    1
   104   118   117    2
   105    62    61    1
   106    50    49    1
   107    50    51    1
   108   116   115    1
   109   116   117    1
   110     7    10    1
   111     7     8    1
   112    10    11    1
   113    51    52    2
   114     8     9    2
   115     8    17   am
   116    12    11   ar
   117    12    14   ar
   118    11    13   ar
   119    17    18    1
   120    29    27    1
   121    28    27    1
   122    14    16   ar
   123    21    18    1
   124    27    26    1
   125    13    15   ar
   126    18    19    1
   127    20    19    2
   128    26    23    1
   129    16    15   ar
   130    25    24    2
   131    23    24    1
   132    23    22    1
