@<TRIPOS>MOLECULE
tmp/4bnnA01.pdb
 171 164 0 0 0
SMALL
GASTEIGER

@<TRIPOS>ATOM
      1  N          4.0600   36.7710   16.2310 N.3    91  SER91      -0.1202
      2  CA         3.7820   35.5950   15.4020 C.3    91  SER91       0.2020
      3  C          2.3430   35.1290   15.5850 C.2    91  SER91       0.2619
      4  O          2.0980   33.9880   16.0480 O.2    91  SER91      -0.2717
      5  CB         4.7190   34.4470   15.7700 C.3    91  SER91       0.2103
      6  OG         4.9140   33.5630   14.6690 O.3    91  SER91      -0.2182
      7  N          1.3890   36.0400   15.3950 N.am   92  ILE92      -0.1965
      8  CA         0.0130   35.7320   15.8220 C.3    92  ILE92       0.1727
      9  C         -0.9660   35.9860   14.7070 C.2    92  ILE92       0.2616
     10  O         -0.8980   37.0520   14.1160 O.2    92  ILE92      -0.2715
     11  CB        -0.4160   36.5770   17.0400 C.3    92  ILE92       0.0290
     12  CG1        0.2420   36.0310   18.3080 C.3    92  ILE92       0.0022
     13  CG2       -1.9480   36.5130   17.2770 C.3    92  ILE92       0.0023
     14  CD1        0.1180   36.9940   19.4960 C.3    92  ILE92       0.0001
     15  N         -1.8840   35.0490   14.4450 N.am   93  ALA93      -0.1963
     16  CA        -3.0380   35.3190   13.5690 C.3    93  ALA93       0.1728
     17  C         -4.1780   34.3780   13.8900 C.2    93  ALA93       0.2616
     18  O         -3.9560   33.3910   14.5920 O.2    93  ALA93      -0.2715
     19  CB        -2.6550   35.1350   12.1070 C.3    93  ALA93       0.0334
     20  N         -5.3710   34.6140   13.3290 N.am   94  PHE94      -0.1960
     21  CA        -6.4370   33.6310   13.4760 C.3    94  PHE94       0.1771
     22  C         -7.5330   33.8740   12.4480 C.2    94  PHE94       0.2619
     23  O         -7.7360   35.0240   12.0940 O.2    94  PHE94      -0.2715
     24  CB        -7.0160   33.7980   14.8810 C.3    94  PHE94       0.0574
     25  CG        -8.0870   32.8250   15.1910 C.ar   94  PHE94      -0.0200
     26  CD1       -9.4050   33.0700   14.7830 C.ar   94  PHE94      -0.0042
     27  CD2       -7.7530   31.5710   15.6940 C.ar   94  PHE94      -0.0042
     28  CE1      -10.3750   32.0990   14.9350 C.ar   94  PHE94      -0.0003
     29  CE2       -8.7510   30.6110   15.9170 C.ar   94  PHE94      -0.0003
     30  CZ       -10.0420   30.8590   15.4900 C.ar   94  PHE94      -0.0000
     31  N         -8.2520   32.8470   11.9820 N.am   95  ALA95      -0.1977
     32  CA        -9.5370   33.0240   11.2790 C.3    95  ALA95       0.1597
     33  C        -10.3550   31.7460   11.4360 C.2    95  ALA95       0.2287
     34  O         -9.7770   30.6940   11.6510 O.2    95  ALA95      -0.2864
     35  CB        -9.3130   33.3050    9.7930 C.3    95  ALA95       0.0319
     36  N        -11.0980   29.6260    5.2280 N.3   100  LEU100     -0.1245
     37  CA        -9.7700   29.3070    4.6680 C.3   100  LEU100      0.1561
     38  C         -9.8200   28.2840    3.5130 C.2   100  LEU100      0.2260
     39  O         -8.8380   27.6160    3.1710 O.2   100  LEU100     -0.2867
     40  CB        -8.8240   28.8740    5.7950 C.3   100  LEU100      0.0270
     41  CG        -8.6800   29.8350    6.9860 C.3   100  LEU100      0.0019
     42  CD1       -7.7150   29.2800    8.0370 C.3   100  LEU100      0.0001
     43  CD2       -8.1910   31.2300    6.5550 C.3   100  LEU100      0.0001
     44  N          2.4080   36.6570    5.1870 N.3   145  TYR145     -0.1241
     45  CA         2.5080   35.6860    4.1400 C.3   145  TYR145      0.1605
     46  C          2.1720   36.3570    2.8100 C.2   145  TYR145      0.2264
     47  O          1.3230   37.2510    2.7510 O.2   145  TYR145     -0.2867
     48  CB         1.6160   34.4820    4.4610 C.3   145  TYR145      0.0534
     49  CG         1.4840   33.5120    3.3210 C.ar  145  TYR145     -0.0201
     50  CD1        2.5800   32.7710    2.8510 C.ar  145  TYR145     -0.0009
     51  CD2        0.2680   33.3810    2.6740 C.ar  145  TYR145     -0.0009
     52  CE1        2.4670   31.9250    1.7390 C.ar  145  TYR145      0.0417
     53  CE2        0.1210   32.5420    1.5790 C.ar  145  TYR145      0.0417
     54  CZ         1.2220   31.8360    1.1030 C.ar  145  TYR145      0.1957
     55  OH         0.9720   31.0030    0.0320 O.3   145  TYR145     -0.2866
     56  N         -4.1650   34.4160   -3.1670 N.3   152  VAL152     -0.1231
     57  CA        -3.8050   32.9930   -3.1800 C.3   152  VAL152      0.1692
     58  C         -5.0550   32.1390   -2.8820 C.2   152  VAL152      0.2592
     59  O         -5.6590   32.2970   -1.8210 O.2   152  VAL152     -0.2718
     60  CB        -2.7060   32.7100   -2.1340 C.3   152  VAL152      0.0266
     61  CG1       -2.4650   31.2290   -2.0080 C.3   152  VAL152      0.0020
     62  CG2       -1.3970   33.4430   -2.4840 C.3   152  VAL152      0.0020
     63  N         -5.4750   31.2820   -3.8120 N.am  153  GLN153     -0.1966
     64  CA        -6.5700   30.3270   -3.5760 C.3   153  GLN153      0.1733
     65  C         -6.5880   29.8140   -2.1420 C.2   153  GLN153      0.2616
     66  O         -5.5260   29.4990   -1.6040 O.2   153  GLN153     -0.2715
     67  CB        -6.4900   29.1130   -4.4980 C.3   153  GLN153      0.0408
     68  CG        -6.9300   29.3710   -5.9070 C.3   153  GLN153      0.0908
     69  CD        -8.4450   29.5140   -6.0250 C.2   153  GLN153      0.2608
     70  OE1       -9.1700   29.6260   -5.0150 O.2   153  GLN153     -0.2717
     71  NE2       -8.9210   29.5940   -7.2820 N.am  153  GLN153     -0.0878
     72  N         -7.7760   29.8390   -1.5280 N.am  154  ASN154     -0.1958
     73  CA        -8.0190   29.3450   -0.1690 C.3   154  ASN154      0.1819
     74  C         -7.5050   30.1610    0.9990 C.2   154  ASN154      0.2621
     75  O         -8.0120   30.0290    2.0920 O.2   154  ASN154     -0.2715
     76  CB        -7.5060   27.9110    0.0080 C.3   154  ASN154      0.1195
     77  CG        -8.0140   26.9760   -1.0720 C.2   154  ASN154      0.2630
     78  OD1       -9.2080   26.8730   -1.3030 O.2   154  ASN154     -0.2716
     79  ND2       -7.1020   26.3180   -1.7570 N.am  154  ASN154     -0.0877
     80  N         -6.5380   31.0450    0.7930 N.am  155  TYR155     -0.1974
     81  CA        -6.0970   31.8590    1.8970 C.3   155  TYR155      0.1639
     82  C         -7.1570   32.8920    2.3000 C.2   155  TYR155      0.2290
     83  O         -7.1920   33.3420    3.4480 O.2   155  TYR155     -0.2864
     84  CB        -4.7810   32.5120    1.5420 C.3   155  TYR155      0.0560
     85  CG        -3.9970   32.9840    2.7160 C.ar  155  TYR155     -0.0198
     86  CD1       -3.6190   32.1150    3.7240 C.ar  155  TYR155     -0.0009
     87  CD2       -3.5560   34.3100    2.7790 C.ar  155  TYR155     -0.0009
     88  CE1       -2.7870   32.5590    4.7710 C.ar  155  TYR155      0.0417
     89  CE2       -2.7650   34.7700    3.8170 C.ar  155  TYR155      0.0417
     90  CZ        -2.3630   33.8960    4.8170 C.ar  155  TYR155      0.1957
     91  OH        -1.5930   34.3870    5.8700 O.3   155  TYR155     -0.2866
     92  N         -7.7950   35.4840    5.3930 N.3   158  MET158     -0.1245
     93  CA        -6.4860   35.7850    5.9710 C.3   158  MET158      0.1570
     94  C         -5.6050   36.6390    5.0490 C.2   158  MET158      0.2261
     95  O         -4.6740   37.3170    5.4960 O.2   158  MET158     -0.2867
     96  CB        -5.7900   34.4620    6.3380 C.3   158  MET158      0.0387
     97  CG        -4.5820   34.5710    7.2400 C.3   158  MET158      0.0595
     98  SD        -4.7930   35.6340    8.7070 S.3   158  MET158     -0.1393
     99  CE        -5.9930   34.7110    9.6330 C.3   158  MET158      0.0692
    100  N         -3.7110   39.8470    6.1120 N.3   162  LYS162     -0.1245
    101  CA        -2.2780   40.0860    6.0050 C.3   162  LYS162      0.1561
    102  C         -2.0050   41.3880    5.2610 C.2   162  LYS162      0.2260
    103  O         -1.0240   42.0650    5.5700 O.2   162  LYS162     -0.2867
    104  CB        -1.5090   38.9200    5.3790 C.3   162  LYS162      0.0271
    105  CG        -1.5550   37.6450    6.2260 C.3   162  LYS162      0.0035
    106  CD        -1.0310   37.8600    7.6500 C.3   162  LYS162      0.0206
    107  CE        -0.8110   36.5180    8.3750 C.3   162  LYS162      0.1093
    108  NZ         0.1100   36.7080    9.5500 N.3   162  LYS162     -0.1314
    109  N          5.4000   28.7840    3.0570 N.3   190  PRO190     -0.2102
    110  CA         4.6020   27.8450    3.8590 C.3   190  PRO190      0.1504
    111  C          5.4500   26.8650    4.7010 C.2   190  PRO190      0.2575
    112  O          6.4830   26.3520    4.2470 O.2   190  PRO190     -0.2718
    113  CB         3.7760   27.1110    2.8040 C.3   190  PRO190      0.0282
    114  CG         4.5680   27.2530    1.5120 C.3   190  PRO190      0.0208
    115  CD         5.2080   28.6170    1.6040 C.3   190  PRO190      0.0893
    116  N          5.0490   26.6620    5.9510 N.am  191  ILE191     -0.1980
    117  CA         5.7250   25.7820    6.8870 C.3   191  ILE191      0.1595
    118  C          4.6580   24.9880    7.6450 C.2   191  ILE191      0.2287
    119  O          3.6640   25.5620    8.1150 O.2   191  ILE191     -0.2864
    120  CB         6.5700   26.6050    7.8700 C.3   191  ILE191      0.0276
    121  CG1        7.5690   27.4640    7.1020 C.3   191  ILE191      0.0022
    122  CG2        7.2200   25.7190    8.9210 C.3   191  ILE191      0.0022
    123  CD1        8.2800   28.4750    7.9750 C.3   191  ILE191      0.0001
    124  N          2.8490   23.9640   10.3740 N.3   193  THR193     -0.1218
    125  CA         2.6260   24.3240   11.7570 C.3   193  THR193      0.1862
    126  C          1.1930   23.9310   12.1240 C.2   193  THR193      0.2287
    127  O          0.4030   23.5650   11.2700 O.2   193  THR193     -0.2866
    128  CB         2.7530   25.8400   11.9310 C.3   193  THR193      0.1770
    129  OG1        1.6500   26.4270   11.2550 O.3   193  THR193     -0.2211
    130  CG2        4.0680   26.3870   11.3830 C.3   193  THR193      0.0375
    131  N         -1.4580   25.9550   12.7800 N.3   195  SER195     -0.1202
    132  CA        -2.4270   26.7760   12.0850 C.3   195  SER195      0.2020
    133  C         -2.4670   26.4960   10.5860 C.2   195  SER195      0.2618
    134  O         -3.5200   26.6470    9.9520 O.2   195  SER195     -0.2717
    135  CB        -2.1590   28.2690   12.3140 C.3   195  SER195      0.2103
    136  OG        -2.2940   28.5190   13.7000 O.3   195  SER195     -0.2182
    137  N         -1.3240   26.1210   10.0150 N.am  196  ALA196     -0.1979
    138  CA        -1.3370   25.6990    8.6260 C.3   196  ALA196      0.1597
    139  C         -2.3560   24.5990    8.3410 C.2   196  ALA196      0.2287
    140  O         -2.8880   24.5440    7.2320 O.2   196  ALA196     -0.2864
    141  CB         0.0420   25.2990    8.1540 C.3   196  ALA196      0.0319
    142  N         -5.7510   25.7280    6.6780 N.3   199  VAL199     -0.1231
    143  CA        -5.6800   26.3540    5.3730 C.3   199  VAL199      0.1692
    144  C         -5.8660   25.3180    4.2530 C.2   199  VAL199      0.2592
    145  O         -4.9550   24.5530    3.9320 O.2   199  VAL199     -0.2718
    146  CB        -4.3200   27.0880    5.2500 C.3   199  VAL199      0.0266
    147  CG1       -4.1310   27.7380    3.9080 C.3   199  VAL199      0.0020
    148  CG2       -4.1990   28.1770    6.3150 C.3   199  VAL199      0.0020
    149  N         -7.0340   25.2890    3.6340 N.am  200  GLY200     -0.1957
    150  CA        -7.2300   24.3770    2.5240 C.3   200  GLY200      0.1869
    151  C         -6.1230   24.4190    1.4840 C.2   200  GLY200      0.2309
    152  O         -5.5350   25.4780    1.2470 O.2   200  GLY200     -0.2863
    153  N         -3.1490   23.4250    1.4850 N.3   202  PHE202     -0.1241
    154  CA        -1.7990   23.7410    1.9880 C.3   202  PHE202      0.1605
    155  C         -0.7180   22.7930    1.4260 C.2   202  PHE202      0.2264
    156  O          0.2870   23.2530    0.9270 O.2   202  PHE202     -0.2867
    157  CB        -1.7890   23.7890    3.5290 C.3   202  PHE202      0.0534
    158  CG        -0.4410   23.9470    4.1290 C.ar  202  PHE202     -0.0203
    159  CD1        0.1040   25.2130    4.2930 C.ar  202  PHE202     -0.0042
    160  CD2        0.3340   22.8360    4.4340 C.ar  202  PHE202     -0.0042
    161  CE1        1.3750   25.3920    4.8180 C.ar  202  PHE202     -0.0003
    162  CE2        1.6180   23.0030    4.9490 C.ar  202  PHE202     -0.0003
    163  CZ         2.1270   24.2730    5.1370 C.ar  202  PHE202     -0.0000
    164  N          0.4770   23.6660   -2.0130 N.3   205  ILE205     -0.1245
    165  CA         1.3470   24.8550   -2.0560 C.3   205  ILE205      0.1561
    166  C          2.7770   24.4830   -1.6470 C.2   205  ILE205      0.2260
    167  O          3.7560   24.9250   -2.2530 O.2   205  ILE205     -0.2867
    168  CB         0.7510   26.0450   -1.2190 C.3   205  ILE205      0.0252
    169  CG1        0.0220   27.0300   -2.1250 C.3   205  ILE205      0.0019
    170  CG2        1.7710   26.9770   -0.6380 C.3   205  ILE205      0.0019
    171  CD1       -1.2430   26.4800   -2.6950 C.3   205  ILE205      0.0001
@<TRIPOS>BOND
     1    71    69   am
     2    69    68    1
     3    69    70    2
     4    68    67    1
     5    67    64    1
     6    63    64    1
     7    63    58   am
     8    64    65    1
     9    57    56    1
    10    57    58    1
    11    57    60    1
    12    58    59    2
    13   171   169    1
    14    62    60    1
    15   167   166    2
    16    65    66    2
    17    65    72   am
    18    60    61    1
    19   169   168    1
    20   165   164    1
    21   165   166    1
    22   165   168    1
    23    79    77   am
    24    72    73    1
    25    78    77    2
    26   168   170    1
    27    77    76    1
    28    73    76    1
    29    73    74    1
    30    55    54    1
    31    80    74   am
    32    80    81    1
    33   156   155    2
    34    74    75    2
    35    54    53   ar
    36    54    52   ar
    37   152   151    2
    38   155   154    1
    39   151   150    1
    40   153   154    1
    41   114   115    1
    42   114   113    1
    43    84    81    1
    44    84    85    1
    45    53    51   ar
    46   115   109    1
    47    52    50   ar
    48    81    82    1
    49   154   157    1
    50    82    83    2
    51   150   149    1
    52    51    49   ar
    53    85    87   ar
    54    85    86   ar
    55    47    46    2
    56    87    89   ar
    57   113   110    1
    58    46    45    1
    59    50    49   ar
    60   109   110    1
    61    39    38    2
    62    49    48    1
    63    38    37    1
    64   157   158    1
    65   149   144   am
    66    86    88   ar
    67    89    90   ar
    68   110   111    1
    69   147   146    1
    70   145   144    2
    71   158   159   ar
    72   158   160   ar
    73    45    48    1
    74    45    44    1
    75   112   111    2
    76   144   143    1
    77   159   161   ar
    78   160   162   ar
    79    37    36    1
    80    37    40    1
    81   111   116   am
    82    88    90   ar
    83    90    91    1
    84   161   163   ar
    85   162   163   ar
    86    94    95    2
    87    94    93    1
    88   146   143    1
    89   146   148    1
    90   102   103    2
    91   102   101    1
    92   143   142    1
    93   104   101    1
    94   104   105    1
    95    92    93    1
    96    40    41    1
    97   116   117    1
    98    93    96    1
    99   101   100    1
   100   105   106    1
   101    96    97    1
   102    43    41    1
   103   117   118    1
   104   117   120    1
   105    41    42    1
   106   121   120    1
   107   121   123    1
   108   140   139    2
   109    97    98    1
   110   118   119    2
   111   106   107    1
   112   120   122    1
   113   141   138    1
   114   139   138    1
   115   107   108    1
   116   138   137    1
   117    98    99    1
   118    35    32    1
   119   134   133    2
   120   137   133   am
   121   124   125    1
   122   133   132    1
   123   129   128    1
   124   127   126    2
   125    32    33    1
   126    32    31    1
   127   130   128    1
   128    33    34    2
   129   125   128    1
   130   125   126    1
   131    31    22   am
   132   132   135    1
   133   132   131    1
   134    23    22    2
   135    19    16    1
   136   135   136    1
   137    22    21    1
   138    20    21    1
   139    20    17   am
   140    21    24    1
   141    16    17    1
   142    16    15    1
   143    17    18    2
   144    10     9    2
   145    15     9   am
   146     6     5    1
   147     9     8    1
   148    26    28   ar
   149    26    25   ar
   150    24    25    1
   151    28    30   ar
   152    25    27   ar
   153     7     3   am
   154     7     8    1
   155     2     3    1
   156     2     5    1
   157     2     1    1
   158    30    29   ar
   159     3     4    2
   160    27    29   ar
   161     8    11    1
   162    11    13    1
   163    11    12    1
   164    12    14    1
