@<TRIPOS>MOLECULE
tmp/4bnuA00.pdb
 90 87 0 0 0
SMALL
GASTEIGER

@<TRIPOS>ATOM
      1  N        -14.5960  -11.4510   41.6770 N.3    98  TRP98      -0.1227
      2  CA       -14.4460  -10.1640   41.0080 C.3    98  TRP98       0.1737
      3  C        -12.9700   -9.7270   41.0690 C.2    98  TRP98       0.2595
      4  O        -12.4570   -9.1450   40.1140 O.2    98  TRP98      -0.2718
      5  CB       -15.3850   -9.1020   41.6040 C.3    98  TRP98       0.0564
      6  CG       -15.1980   -8.9340   43.0190 C.ar   98  TRP98       0.0003
      7  CD1      -15.8360   -9.6370   44.0320 C.ar   98  TRP98       0.0946
      8  CD2      -14.2420   -8.0750   43.6620 C.ar   98  TRP98       0.0152
      9  NE1      -15.3590   -9.2200   45.2430 N.ar   98  TRP98      -0.2442
     10  CE2      -14.4070   -8.2480   45.0540 C.ar   98  TRP98       0.0810
     11  CE3      -13.3500   -7.0950   43.2030 C.ar   98  TRP98       0.0012
     12  CZ2      -13.6500   -7.5620   45.9740 C.ar   98  TRP98       0.0191
     13  CZ3      -12.6260   -6.3960   44.1140 C.ar   98  TRP98       0.0001
     14  CH2      -12.7880   -6.6170   45.4990 C.ar   98  TRP98       0.0015
     15  N        -12.2840  -10.0580   42.1620 N.am   99  PHE99      -0.1976
     16  CA       -10.9600   -9.5170   42.3620 C.3    99  PHE99       0.1639
     17  C         -9.9760  -10.0730   41.3410 C.2    99  PHE99       0.2290
     18  O         -9.2480   -9.3130   40.6710 O.2    99  PHE99      -0.2864
     19  CB       -10.4230   -9.7510   43.7860 C.3    99  PHE99       0.0560
     20  CG        -9.1040   -9.1030   44.0240 C.ar   99  PHE99      -0.0200
     21  CD1       -9.0350   -7.7790   44.4100 C.ar   99  PHE99      -0.0042
     22  CD2       -7.9330   -9.7830   43.7990 C.ar   99  PHE99      -0.0042
     23  CE1       -7.8200   -7.1380   44.5890 C.ar   99  PHE99      -0.0003
     24  CE2       -6.7010   -9.1450   43.9870 C.ar   99  PHE99      -0.0003
     25  CZ        -6.6590   -7.8150   44.3900 C.ar   99  PHE99      -0.0000
     26  N        -10.8760   -8.7740   37.6560 N.3   102  VAL102     -0.1231
     27  CA       -10.4340   -7.4500   37.3360 C.3   102  VAL102      0.1692
     28  C         -8.9200   -7.4260   37.2280 C.2   102  VAL102      0.2592
     29  O         -8.3710   -6.8090   36.3240 O.2   102  VAL102     -0.2718
     30  CB       -10.9210   -6.4200   38.3810 C.3   102  VAL102      0.0266
     31  CG1      -10.3350   -5.0570   38.0940 C.3   102  VAL102      0.0020
     32  CG2      -12.4500   -6.3860   38.3410 C.3   102  VAL102      0.0020
     33  N         -8.2550   -8.0390   38.1900 N.am  103  ASN103     -0.1974
     34  CA        -6.8130   -8.0130   38.2400 C.3   103  ASN103      0.1688
     35  C         -6.1970   -8.5680   36.9480 C.2   103  ASN103      0.2292
     36  O         -5.3080   -7.9550   36.3540 O.2   103  ASN103     -0.2864
     37  CB        -6.3480   -8.8310   39.4450 C.3   103  ASN103      0.1181
     38  CG        -4.8710   -8.7270   39.6960 C.2   103  ASN103      0.2629
     39  OD1       -4.1470   -9.6970   39.4830 O.2   103  ASN103     -0.2716
     40  ND2       -4.4080   -7.5600   40.1470 N.am  103  ASN103     -0.0877
     41  N         -6.8860   -6.2050   33.8400 N.3   106  LEU106     -0.1231
     42  CA        -6.0740   -4.9960   33.8110 C.3   106  LEU106      0.1693
     43  C         -4.6280   -5.3320   33.5830 C.2   106  LEU106      0.2592
     44  O         -3.9440   -4.5850   32.9160 O.2   106  LEU106     -0.2718
     45  CB        -6.2340   -4.1510   35.0990 C.3   106  LEU106      0.0284
     46  CG        -7.6720   -3.6260   35.3210 C.3   106  LEU106      0.0019
     47  CD1       -7.7580   -2.7940   36.5940 C.3   106  LEU106      0.0001
     48  CD2       -8.1320   -2.7490   34.1510 C.3   106  LEU106      0.0001
     49  N         -4.1580   -6.4390   34.1390 N.am  107  ASN107     -0.1974
     50  CA        -2.8030   -6.9020   33.8390 C.3   107  ASN107      0.1688
     51  C         -2.6480   -7.1380   32.3330 C.2   107  ASN107      0.2292
     52  O         -1.6110   -6.7760   31.7780 O.2   107  ASN107     -0.2864
     53  CB        -2.4370   -8.1530   34.6520 C.3   107  ASN107      0.1181
     54  CG        -2.2510   -7.9010   36.1620 C.2   107  ASN107      0.2629
     55  OD1       -2.0270   -6.7980   36.6510 O.2   107  ASN107     -0.2716
     56  ND2       -2.3680   -8.9780   36.9150 N.am  107  ASN107     -0.0877
     57  N        -17.2900   -3.5240   39.1660 N.3   148  ALA148     -0.1245
     58  CA       -15.8960   -3.5210   39.5220 C.3   148  ALA148      0.1562
     59  C        -15.0120   -3.4130   38.3230 C.2   148  ALA148      0.2260
     60  O        -14.0540   -2.6520   38.3300 O.2   148  ALA148     -0.2867
     61  CB       -15.5420   -4.7600   40.3460 C.3   148  ALA148      0.0290
     62  N        -15.2680    0.1520   36.8890 N.3   151  ALA151     -0.1231
     63  CA       -14.5270    1.1240   37.6750 C.3   151  ALA151      0.1694
     64  C        -13.0190    0.9480   37.4430 C.2   151  ALA151      0.2592
     65  O        -12.3250    1.9140   37.2820 O.2   151  ALA151     -0.2718
     66  CB       -14.8520    0.9920   39.1450 C.3   151  ALA151      0.0304
     67  N        -12.5450   -0.2800   37.4050 N.am  152  GLY152     -0.1957
     68  CA       -11.1580   -0.5400   37.0670 C.3   152  GLY152      0.1869
     69  C        -10.7500    0.0190   35.7060 C.2   152  GLY152      0.2309
     70  O         -9.7190    0.6600   35.5630 O.2   152  GLY152     -0.2863
     71  N        -10.5980    3.9610   35.7130 N.3   155  GLY155     -0.1210
     72  CA        -9.4760    4.5130   36.4470 C.3   155  GLY155      0.1956
     73  C         -8.1700    4.1820   35.7360 C.2   155  GLY155      0.2611
     74  O         -7.2570    5.0000   35.6670 O.2   155  GLY155     -0.2717
     75  N         -8.0750    2.9760   35.1930 N.am  156  PHE156     -0.1976
     76  CA        -6.8750    2.5330   34.4550 C.3   156  PHE156      0.1639
     77  C         -6.6490    3.4080   33.2220 C.2   156  PHE156      0.2290
     78  O         -5.5560    3.9000   32.9510 O.2   156  PHE156     -0.2864
     79  CB        -7.0570    1.0750   34.0520 C.3   156  PHE156      0.0560
     80  CG        -5.9910    0.5520   33.1630 C.ar  156  PHE156     -0.0200
     81  CD1       -6.0450    0.7550   31.7930 C.ar  156  PHE156     -0.0042
     82  CD2       -4.8880   -0.0630   33.6950 C.ar  156  PHE156     -0.0042
     83  CE1       -5.0500    0.3280   30.9870 C.ar  156  PHE156     -0.0003
     84  CE2       -3.8800   -0.5120   32.8690 C.ar  156  PHE156     -0.0003
     85  CZ        -3.9480   -0.3140   31.5270 C.ar  156  PHE156     -0.0000
     86  N         -5.4900    7.0160   34.0330 N.3   159  ALA159     -0.1245
     87  CA        -4.1160    7.0390   34.4880 C.3   159  ALA159      0.1562
     88  C         -3.1730    6.8160   33.3430 C.2   159  ALA159      0.2260
     89  O         -2.1910    7.5660   33.2030 O.2   159  ALA159     -0.2867
     90  CB        -3.9170    5.9810   35.5840 C.3   159  ALA159      0.0290
@<TRIPOS>BOND
     1    83    85   ar
     2    83    81   ar
     3    85    84   ar
     4    52    51    2
     5    81    80   ar
     6    51    50    1
     7    84    82   ar
     8    44    43    2
     9    78    77    2
    10    80    82   ar
    11    80    79    1
    12    89    88    2
    13    77    76    1
    14    88    87    1
    15    43    42    1
    16    43    49   am
    17    42    41    1
    18    42    45    1
    19    50    49    1
    20    50    53    1
    21    86    87    1
    22    79    76    1
    23    48    46    1
    24    76    75    1
    25    87    90    1
    26    53    54    1
    27    45    46    1
    28    75    73   am
    29    46    47    1
    30    70    69    2
    31    74    73    2
    32    69    68    1
    33    71    72    1
    34    73    72    1
    35    54    55    2
    36    54    56   am
    37    29    28    2
    38    36    35    2
    39    62    63    1
    40    35    34    1
    41    68    67    1
    42    28    27    1
    43    28    33   am
    44    65    64    2
    45    27    26    1
    46    27    30    1
    47    67    64   am
    48    64    63    1
    49    63    66    1
    50    31    30    1
    51    33    34    1
    52    34    37    1
    53    59    60    2
    54    59    58    1
    55    32    30    1
    56    57    58    1
    57    37    38    1
    58    39    38    2
    59    58    61    1
    60    38    40   am
    61     4     3    2
    62    18    17    2
    63     2     3    1
    64     2     5    1
    65     2     1    1
    66     3    15   am
    67    17    16    1
    68     5     6    1
    69    15    16    1
    70    16    19    1
    71     6     8   ar
    72     6     7   ar
    73    11     8   ar
    74    11    13   ar
    75     8    10   ar
    76    19    20    1
    77    22    24   ar
    78    22    20   ar
    79    24    25   ar
    80    20    21   ar
    81     7     9   ar
    82    13    14   ar
    83    25    23   ar
    84    21    23   ar
    85    10     9   ar
    86    10    12   ar
    87    14    12   ar
