@<TRIPOS>MOLECULE
tmp/4bnvB00.pdb
 82 79 0 0 0
SMALL
GASTEIGER

@<TRIPOS>ATOM
      1  N         -3.6370   -3.9620  -34.9210 N.3    94  TRP94      -0.1227
      2  CA        -2.2460   -4.0860  -34.4700 C.3    94  TRP94       0.1737
      3  C         -1.5490   -2.7210  -34.5040 C.2    94  TRP94       0.2595
      4  O         -0.8740   -2.3340  -33.5280 O.2    94  TRP94      -0.2718
      5  CB        -1.4510   -5.1020  -35.3110 C.3    94  TRP94       0.0564
      6  CG        -1.4660   -4.8000  -36.7480 C.ar   94  TRP94       0.0003
      7  CD1       -2.4340   -5.1320  -37.6300 C.ar   94  TRP94       0.0946
      8  CD2       -0.4750   -4.0810  -37.4820 C.ar   94  TRP94       0.0152
      9  NE1       -2.1150   -4.6630  -38.8690 N.ar   94  TRP94      -0.2442
     10  CE2       -0.9140   -4.0180  -38.8110 C.ar   94  TRP94       0.0810
     11  CE3        0.7380   -3.4770  -37.1450 C.ar   94  TRP94       0.0012
     12  CZ2       -0.1880   -3.3830  -39.8160 C.ar   94  TRP94       0.0191
     13  CZ3        1.4630   -2.8440  -38.1460 C.ar   94  TRP94       0.0001
     14  CH2        0.9950   -2.7990  -39.4620 C.ar   94  TRP94       0.0015
     15  N         -1.7320   -1.9710  -35.5980 N.am   95  PHE95      -0.1976
     16  CA        -1.0040   -0.7210  -35.7370 C.3    95  PHE95       0.1639
     17  C         -1.3970    0.2610  -34.6430 C.2    95  PHE95       0.2290
     18  O         -0.5340    0.7840  -33.9720 O.2    95  PHE95      -0.2864
     19  CB        -1.1660   -0.0890  -37.1090 C.3    95  PHE95       0.0560
     20  CG        -0.3880    1.1880  -37.2570 C.ar   95  PHE95      -0.0200
     21  CD1        0.9490    1.1580  -37.5990 C.ar   95  PHE95      -0.0042
     22  CD2       -0.9790    2.4130  -36.9920 C.ar   95  PHE95      -0.0042
     23  CE1        1.6970    2.3220  -37.6880 C.ar   95  PHE95      -0.0003
     24  CE2       -0.2450    3.5820  -37.0830 C.ar   95  PHE95      -0.0003
     25  CZ         1.0990    3.5380  -37.4360 C.ar   95  PHE95      -0.0000
     26  N         -0.1500   -0.6090  -30.9610 N.3    98  VAL98      -0.1231
     27  CA         1.2770   -0.4200  -30.7150 C.3    98  VAL98       0.1692
     28  C          1.5870    1.0580  -30.7320 C.2    98  VAL98       0.2592
     29  O          2.3130    1.5660  -29.8770 O.2    98  VAL98      -0.2718
     30  CB         2.1390   -1.1370  -31.7660 C.3    98  VAL98       0.0266
     31  CG1        3.6030   -0.8270  -31.5600 C.3    98  VAL98       0.0020
     32  CG2        1.9250   -2.6470  -31.6970 C.3    98  VAL98       0.0020
     33  N          1.0170    1.7470  -31.7070 N.am   99  ASN99      -0.1974
     34  CA         1.2300    3.1800  -31.8490 C.3    99  ASN99       0.1688
     35  C          0.7780    3.9390  -30.6230 C.2    99  ASN99       0.2292
     36  O          1.4880    4.8050  -30.1370 O.2    99  ASN99      -0.2864
     37  CB         0.4810    3.7190  -33.0690 C.3    99  ASN99       0.1181
     38  CG         0.9020    5.1280  -33.4370 C.2    99  ASN99       0.2629
     39  OD1        2.0470    5.3540  -33.7920 O.2    99  ASN99      -0.2716
     40  ND2       -0.0190    6.0790  -33.3590 N.am   99  ASN99      -0.0877
     41  N          3.1170    3.1640  -27.4430 N.3   102  LEU102     -0.1245
     42  CA         4.4270    3.7850  -27.4690 C.3   102  LEU102      0.1561
     43  C          4.3280    5.2680  -27.1960 C.2   102  LEU102      0.2260
     44  O          5.2210    5.8370  -26.5580 O.2   102  LEU102     -0.2867
     45  CB         5.1500    3.4920  -28.7780 C.3   102  LEU102      0.0270
     46  CG         5.4870    2.0160  -29.0310 C.3   102  LEU102      0.0019
     47  CD1        6.3380    1.8720  -30.2560 C.3   102  LEU102      0.0001
     48  CD2        6.1980    1.3460  -27.8660 C.3   102  LEU102      0.0001
     49  N          4.4810   -7.6120  -33.0320 N.3   139  ALA139     -0.1245
     50  CA         4.5110   -6.2130  -33.3850 C.3   139  ALA139      0.1562
     51  C          4.7730   -5.3910  -32.1350 C.2   139  ALA139      0.2260
     52  O          5.6650   -4.5390  -32.1140 O.2   139  ALA139     -0.2867
     53  CB         3.1860   -5.8110  -34.0360 C.3   139  ALA139      0.0290
     54  N          8.3200   -5.8040  -31.0730 N.3   142  ALA142     -0.1231
     55  CA         9.3130   -5.1360  -31.9300 C.3   142  ALA142      0.1694
     56  C          9.4020   -3.6390  -31.6180 C.2   142  ALA142      0.2592
     57  O         10.4960   -3.0770  -31.5310 O.2   142  ALA142     -0.2718
     58  CB         8.9840   -5.3450  -33.3940 C.3   142  ALA142      0.0304
     59  N          8.2510   -3.0180  -31.4290 N.am  143  GLY143     -0.1957
     60  CA         8.1780   -1.6250  -31.0540 C.3   143  GLY143      0.1869
     61  C          8.7330   -1.3270  -29.6890 C.2   143  GLY143      0.2309
     62  O          9.4900   -0.3820  -29.5090 O.2   143  GLY143     -0.2863
     63  N         12.5600   -1.5720  -29.8050 N.3   146  GLY146     -0.1210
     64  CA        13.2230   -0.4920  -30.5070 C.3   146  GLY146      0.1956
     65  C         13.1050    0.7850  -29.7010 C.2   146  GLY146      0.2611
     66  O         14.0560    1.5520  -29.5950 O.2   146  GLY146     -0.2717
     67  N         11.9200    1.0240  -29.1720 N.am  147  PHE147     -0.1976
     68  CA        11.6710    2.1960  -28.3490 C.3   147  PHE147      0.1639
     69  C         12.6080    2.2390  -27.1470 C.2   147  PHE147      0.2290
     70  O         13.2130    3.2550  -26.8550 O.2   147  PHE147     -0.2864
     71  CB        10.2230    2.1870  -27.8510 C.3   147  PHE147      0.0560
     72  CG         9.9150    3.3160  -26.9370 C.ar  147  PHE147     -0.0200
     73  CD1        9.5550    4.5490  -27.4380 C.ar  147  PHE147     -0.0042
     74  CD2       10.0170    3.1660  -25.5820 C.ar  147  PHE147     -0.0042
     75  CE1        9.2870    5.6140  -26.5870 C.ar  147  PHE147     -0.0003
     76  CE2        9.7540    4.2140  -24.7240 C.ar  147  PHE147     -0.0003
     77  CZ         9.3850    5.4400  -25.2180 C.ar  147  PHE147     -0.0000
     78  N         16.1300    2.9960  -28.0280 N.3   150  ALA150     -0.1245
     79  CA        16.3840    4.3940  -28.4080 C.3   150  ALA150      0.1562
     80  C         16.3620    5.3210  -27.1990 C.2   150  ALA150      0.2260
     81  O         17.2210    6.2040  -27.0370 O.2   150  ALA150     -0.2867
     82  CB        15.3990    4.8630  -29.4620 C.3   150  ALA150      0.0290
@<TRIPOS>BOND
     1    12    14   ar
     2    12    10   ar
     3    14    13   ar
     4     9    10   ar
     5     9     7   ar
     6    10     8   ar
     7    13    11   ar
     8    23    21   ar
     9    23    25   ar
    10     7     6   ar
    11    21    20   ar
    12     8    11   ar
    13     8     6   ar
    14    25    24   ar
    15    20    19    1
    16    20    22   ar
    17    19    16    1
    18    24    22   ar
    19     6     5    1
    20    16    15    1
    21    16    17    1
    22    15     3   am
    23     5     2    1
    24     1     2    1
    25    17    18    2
    26     3     2    1
    27     3     4    2
    28    53    50    1
    29    39    38    2
    30    38    40   am
    31    38    37    1
    32    58    55    1
    33    50    49    1
    34    50    51    1
    35    37    34    1
    36    51    52    2
    37    55    56    1
    38    55    54    1
    39    34    33    1
    40    34    35    1
    41    30    32    1
    42    30    31    1
    43    30    27    1
    44    33    28   am
    45    56    57    2
    46    56    59   am
    47    59    60    1
    48    60    61    1
    49    26    27    1
    50    28    27    1
    51    28    29    2
    52    35    36    2
    53    64    63    1
    54    64    65    1
    55    47    46    1
    56    65    66    2
    57    65    67   am
    58    61    62    2
    59    82    79    1
    60    67    68    1
    61    46    45    1
    62    46    48    1
    63    45    42    1
    64    79    78    1
    65    79    80    1
    66    68    71    1
    67    68    69    1
    68    71    72    1
    69    42    41    1
    70    42    43    1
    71    73    72   ar
    72    73    75   ar
    73    80    81    2
    74    43    44    2
    75    69    70    2
    76    72    74   ar
    77    75    77   ar
    78    74    76   ar
    79    77    76   ar
