@<TRIPOS>MOLECULE
tmp/4bnwB00.pdb
 77 73 0 0 0
SMALL
GASTEIGER

@<TRIPOS>ATOM
      1  N        -23.9840   -2.0920    1.6660 N.3     5  SER5       -0.1217
      2  CA       -22.6260   -2.0000    2.1480 C.3     5  SER5        0.1889
      3  C        -22.3610   -2.8690    3.3700 C.2     5  SER5        0.2288
      4  O        -22.8410   -2.5990    4.4910 O.2     5  SER5       -0.2866
      5  CB       -22.3180   -0.5390    2.4860 C.3     5  SER5        0.2089
      6  OG       -23.3640    0.0300    3.2540 O.3     5  SER5       -0.2183
      7  N        -19.0170   -3.3200    2.7700 N.3     7  SER7       -0.1202
      8  CA       -17.6560   -2.9620    2.3220 C.3     7  SER7        0.2020
      9  C        -17.3440   -1.5180    2.6990 C.2     7  SER7        0.2619
     10  O        -18.1560   -0.8120    3.2990 O.2     7  SER7       -0.2717
     11  CB       -17.5890   -3.1120    0.8690 C.3     7  SER7        0.2103
     12  OG       -18.2220   -2.0220    0.2940 O.3     7  SER7       -0.2182
     13  N        -16.1070   -1.1350    2.4410 N.am    8  LEU8       -0.1965
     14  CA       -15.5680    0.0980    2.9510 C.3     8  LEU8        0.1728
     15  C        -15.0720    1.0330    1.8210 C.2     8  LEU8        0.2616
     16  O        -14.3170    1.9700    2.0770 O.2     8  LEU8       -0.2715
     17  CB       -14.4240   -0.2290    3.9120 C.3     8  LEU8        0.0311
     18  CG       -14.6540   -1.1790    5.0480 C.3     8  LEU8        0.0022
     19  CD1      -13.3990   -1.4500    5.8690 C.3     8  LEU8        0.0001
     20  CD2      -15.7890   -0.6440    5.8870 C.3     8  LEU8        0.0001
     21  N        -15.6150    0.9020    0.5710 N.am    9  GLN9       -0.1963
     22  CA       -15.2020    1.8460   -0.4790 C.3     9  GLN9        0.1733
     23  C        -15.5020    3.2550   -0.1340 C.2     9  GLN9        0.2617
     24  O        -16.5770    3.5590    0.3890 O.2     9  GLN9       -0.2715
     25  CB       -15.8790    1.6170   -1.8540 C.3     9  GLN9        0.0408
     26  CG       -15.2660    0.4650   -2.6070 C.3     9  GLN9        0.0908
     27  CD       -15.8500   -0.8010   -2.0980 C.2     9  GLN9        0.2608
     28  OE1      -16.8210   -0.7680   -1.3290 O.2     9  GLN9       -0.2717
     29  NE2      -15.2650   -1.9260   -2.4770 N.am    9  GLN9       -0.0878
     30  N        -14.5820    4.1140   -0.4150 N.am   10  GLY10      -0.1940
     31  CA       -14.7040    5.5220   -0.1620 C.3    10  GLY10       0.2014
     32  C        -14.3160    5.9480    1.2310 C.2    10  GLY10       0.2638
     33  O        -14.3440    7.1550    1.5600 O.2    10  GLY10      -0.2714
     34  N        -13.9620    4.9730    2.0760 N.am   11  LYS11      -0.1977
     35  CA       -13.5250    5.2790    3.4620 C.3    11  LYS11       0.1596
     36  C        -11.9880    5.2790    3.5650 C.2    11  LYS11       0.2287
     37  O        -11.3020    4.5060    2.8940 O.2    11  LYS11      -0.2864
     38  CB       -14.0510    4.2440    4.4660 C.3    11  LYS11       0.0298
     39  CG       -15.5470    4.0870    4.5840 C.3    11  LYS11       0.0038
     40  CD       -16.1530    5.2820    5.2620 C.3    11  LYS11       0.0206
     41  CE       -17.6410    5.0740    5.5480 C.3    11  LYS11       0.1093
     42  NZ       -18.4610    5.0960    4.3060 N.3    11  LYS11      -0.1314
     43  N        -11.8240    7.6840    8.9990 N.3    89  LEU89      -0.1245
     44  CA       -13.0950    7.4310    9.6340 C.3    89  LEU89       0.1561
     45  C        -13.1440    6.0550   10.2710 C.2    89  LEU89       0.2260
     46  O        -13.9920    5.7980   11.1050 O.2    89  LEU89      -0.2867
     47  CB       -14.2750    7.5890    8.6890 C.3    89  LEU89       0.0270
     48  CG       -14.4540    9.0400    8.1730 C.3    89  LEU89       0.0019
     49  CD1      -15.6570    9.0040    7.3120 C.3    89  LEU89       0.0001
     50  CD2      -14.6030   10.0350    9.3270 C.3    89  LEU89       0.0001
     51  N        -18.1410   13.8890   10.0070 N.3   127  ALA127     -0.1245
     52  CA       -18.7530   12.9870    9.1130 C.3   127  ALA127      0.1562
     53  C        -20.0500   12.3920    9.6810 C.2   127  ALA127      0.2260
     54  O        -20.8020   11.7830    8.9800 O.2   127  ALA127     -0.2867
     55  CB       -17.7600   11.8790    8.7530 C.3   127  ALA127      0.0290
     56  N        -20.0410    9.8140   11.5680 N.3   129  TRP129     -0.1241
     57  CA       -19.8260    8.3870   11.4190 C.3   129  TRP129      0.1605
     58  C        -18.4190    8.0520   11.7530 C.2   129  TRP129      0.2264
     59  O        -17.5000    8.7880   11.4980 O.2   129  TRP129     -0.2867
     60  CB       -20.0490    7.9350    9.9440 C.3   129  TRP129      0.0550
     61  CG       -20.1290    6.5000    9.7380 C.ar  129  TRP129      0.0003
     62  CD1      -21.2660    5.7240    9.7630 C.ar  129  TRP129      0.0946
     63  CD2      -19.0560    5.6180    9.4600 C.ar  129  TRP129      0.0152
     64  NE1      -20.9530    4.4460    9.5390 N.ar  129  TRP129     -0.2442
     65  CE2      -19.5980    4.3300    9.3680 C.ar  129  TRP129      0.0810
     66  CE3      -17.6610    5.7810    9.2870 C.ar  129  TRP129      0.0012
     67  CZ2      -18.8410    3.2320    9.0610 C.ar  129  TRP129      0.0191
     68  CZ3      -16.9090    4.6470    9.0470 C.ar  129  TRP129      0.0001
     69  CH2      -17.5010    3.4080    8.9480 C.ar  129  TRP129      0.0015
     70  N        -20.7620   -1.3790    8.0880 N.3   219  ASP219     -0.1239
     71  CA       -22.0990   -0.9010    8.4470 C.3   219  ASP219      0.1674
     72  C        -22.9380   -1.8840    9.1770 C.2   219  ASP219      0.2266
     73  O        -23.8120   -1.4830    9.9660 O.2   219  ASP219     -0.2867
     74  CB       -22.8750   -0.5230    7.1940 C.3   219  ASP219      0.1410
     75  CG       -22.4100    0.7080    6.6270 C.2   219  ASP219      0.3668
     76  OD1      -21.7460    1.4950    7.3090 O.co2 219  ASP219     -0.2456
     77  OD2      -22.6440    0.8760    5.4220 O.co2 219  ASP219     -0.2456
@<TRIPOS>BOND
     1    26    27    1
     2    26    25    1
     3    29    27   am
     4    27    28    2
     5    25    22    1
     6    22    23    1
     7    22    21    1
     8    30    31    1
     9    30    23   am
    10    31    32    1
    11    23    24    2
    12    12    11    1
    13    21    15   am
    14    11     8    1
    15    32    33    2
    16    32    34   am
    17     1     2    1
    18    15    16    2
    19    15    14    1
    20    34    35    1
    21     2     5    1
    22     2     3    1
    23     8     9    1
    24     8     7    1
    25    13     9   am
    26    13    14    1
    27     5     6    1
    28     9    10    2
    29    37    36    2
    30    14    17    1
    31     3     4    2
    32    35    36    1
    33    35    38    1
    34    17    18    1
    35    42    41    1
    36    38    39    1
    37    39    40    1
    38    18    19    1
    39    18    20    1
    40    40    41    1
    41    77    75   ar
    42    75    74    1
    43    75    76   ar
    44    74    71    1
    45    49    48    1
    46    70    71    1
    47    48    47    1
    48    48    50    1
    49    71    72    1
    50    47    44    1
    51    55    52    1
    52    69    68   ar
    53    69    67   ar
    54    54    53    2
    55    43    44    1
    56    68    66   ar
    57    67    65   ar
    58    52    53    1
    59    52    51    1
    60    72    73    2
    61    66    63   ar
    62    65    63   ar
    63    65    64   ar
    64    63    61   ar
    65    64    62   ar
    66    44    45    1
    67    61    62   ar
    68    61    60    1
    69    60    57    1
    70    45    46    2
    71    57    56    1
    72    57    58    1
    73    59    58    2
