@<TRIPOS>MOLECULE
tmp/4bnxB00.pdb
 90 87 0 0 0
SMALL
GASTEIGER

@<TRIPOS>ATOM
      1  N         17.7720  159.4560   61.9210 N.3   101  TRP101     -0.1227
      2  CA        17.8850  159.7030   60.4700 C.3   101  TRP101      0.1737
      3  C         19.2710  160.0240   59.9630 C.2   101  TRP101      0.2595
      4  O         19.7210  159.4850   58.9310 O.2   101  TRP101     -0.2718
      5  CB        16.9190  160.7940   60.0370 C.3   101  TRP101      0.0564
      6  CG        17.0890  162.0860   60.6980 C.ar  101  TRP101      0.0003
      7  CD1       16.4810  162.5050   61.8450 C.ar  101  TRP101      0.0946
      8  CD2       17.9150  163.1610   60.2690 C.ar  101  TRP101      0.0152
      9  NE1       16.8620  163.7860   62.1500 N.ar  101  TRP101     -0.2442
     10  CE2       17.7780  164.1920   61.2130 C.ar  101  TRP101      0.0810
     11  CE3       18.7850  163.3330   59.2150 C.ar  101  TRP101      0.0012
     12  CZ2       18.4580  165.3740   61.1040 C.ar  101  TRP101      0.0191
     13  CZ3       19.4580  164.5180   59.1120 C.ar  101  TRP101      0.0001
     14  CH2       19.2990  165.5190   60.0510 C.ar  101  TRP101      0.0015
     15  N         19.9970  160.8440   60.7150 N.am  102  PHE102     -0.1976
     16  CA        21.3170  161.2990   60.2600 C.3   102  PHE102      0.1639
     17  C         22.3300  160.1130   60.1570 C.2   102  PHE102      0.2290
     18  O         23.0000  159.9510   59.1480 O.2   102  PHE102     -0.2864
     19  CB        21.8430  162.4400   61.1640 C.3   102  PHE102      0.0560
     20  CG        23.0940  163.0760   60.6400 C.ar  102  PHE102     -0.0200
     21  CD1       23.0370  164.0380   59.6480 C.ar  102  PHE102     -0.0042
     22  CD2       24.3250  162.6510   61.0860 C.ar  102  PHE102     -0.0042
     23  CE1       24.1830  164.5950   59.1200 C.ar  102  PHE102     -0.0003
     24  CE2       25.4710  163.1940   60.5670 C.ar  102  PHE102     -0.0003
     25  CZ        25.4020  164.1660   59.5840 C.ar  102  PHE102     -0.0000
     26  N         21.3380  157.6920   57.1490 N.3   105  VAL105     -0.1231
     27  CA        21.7280  158.1340   55.8330 C.3   105  VAL105      0.1692
     28  C         23.2370  158.0350   55.6660 C.2   105  VAL105      0.2592
     29  O         23.7470  157.6190   54.6300 O.2   105  VAL105     -0.2718
     30  CB        21.2210  159.5690   55.5900 C.3   105  VAL105      0.0266
     31  CG1       21.7910  160.1360   54.3060 C.3   105  VAL105      0.0020
     32  CG2       19.7080  159.5630   55.5270 C.3   105  VAL105      0.0020
     33  N         23.9530  158.4560   56.6980 N.am  106  ASN106     -0.1974
     34  CA        25.4100  158.4330   56.7200 C.3   106  ASN106      0.1688
     35  C         25.9140  157.0030   56.4760 C.2   106  ASN106      0.2292
     36  O         26.8160  156.7820   55.7270 O.2   106  ASN106     -0.2864
     37  CB        25.8660  158.9980   58.0850 C.3   106  ASN106      0.1181
     38  CG        27.3660  159.1090   58.2250 C.2   106  ASN106      0.2629
     39  OD1       27.9750  160.0570   57.7430 O.2   106  ASN106     -0.2716
     40  ND2       27.9670  158.1670   58.9380 N.am  106  ASN106     -0.0877
     41  N         24.9470  155.7350   52.7190 N.3   109  LEU109     -0.1231
     42  CA        25.7410  156.3550   51.6740 C.3   109  LEU109      0.1693
     43  C         27.1910  155.9660   51.7680 C.2   109  LEU109      0.2592
     44  O         27.8460  155.8050   50.7460 O.2   109  LEU109     -0.2718
     45  CB        25.5720  157.8680   51.6540 C.3   109  LEU109      0.0284
     46  CG        24.1500  158.2860   51.3810 C.3   109  LEU109      0.0019
     47  CD1       24.0780  159.7720   51.4120 C.3   109  LEU109      0.0001
     48  CD2       23.6520  157.8060   50.0430 C.3   109  LEU109      0.0001
     49  N         27.6990  155.7810   52.9710 N.am  110  ASN110     -0.1974
     50  CA        29.0740  155.2880   53.1080 C.3   110  ASN110      0.1688
     51  C         29.2250  153.8810   52.5520 C.2   110  ASN110      0.2292
     52  O         30.2280  153.5640   51.9320 O.2   110  ASN110     -0.2864
     53  CB        29.5830  155.4330   54.5600 C.3   110  ASN110      0.1181
     54  CG        30.1160  156.8360   54.8260 C.2   110  ASN110      0.2629
     55  OD1       31.2360  157.1540   54.4530 O.2   110  ASN110     -0.2716
     56  ND2       29.3130  157.6850   55.4360 N.am  110  ASN110     -0.0877
     57  N         14.6320  161.5270   54.3900 N.3   151  ALA151     -0.1245
     58  CA        16.0630  161.8500   54.3520 C.3   151  ALA151      0.1562
     59  C         16.8670  160.9030   53.4380 C.2   151  ALA151      0.2260
     60  O         17.7340  161.3390   52.6830 O.2   151  ALA151     -0.2867
     61  CB        16.6450  161.8160   55.7220 C.3   151  ALA151      0.0290
     62  N         16.2720  161.6930   49.7640 N.3   154  ALA154     -0.1231
     63  CA        16.9960  162.8930   49.3390 C.3   154  ALA154      0.1694
     64  C         18.5110  162.6380   49.2350 C.2   154  ALA154      0.2592
     65  O         19.1450  163.0570   48.2740 O.2   154  ALA154     -0.2718
     66  CB        16.7310  164.0330   50.3080 C.3   154  ALA154      0.0304
     67  N         19.0590  161.8720   50.1670 N.am  155  GLY155     -0.1957
     68  CA        20.4690  161.5170   50.1390 C.3   155  GLY155      0.1869
     69  C         20.8100  160.6120   48.9680 C.2   155  GLY155      0.2309
     70  O         21.8150  160.8030   48.2880 O.2   155  GLY155     -0.2863
     71  N         20.8030  162.7460   45.6300 N.3   158  GLY158     -0.1210
     72  CA        21.9520  163.6390   45.5150 C.3   158  GLY158      0.1956
     73  C         23.2390  162.8630   45.2900 C.2   158  GLY158      0.2611
     74  O         24.0880  163.2450   44.4620 O.2   158  GLY158     -0.2717
     75  N         23.4180  161.8060   46.0790 N.am  159  PHE159     -0.1976
     76  CA        24.5670  160.9440   45.9270 C.3   159  PHE159      0.1639
     77  C         24.6770  160.3950   44.5170 C.2   159  PHE159      0.2290
     78  O         25.7160  160.4310   43.8810 O.2   159  PHE159     -0.2864
     79  CB        24.4520  159.7960   46.8700 C.3   159  PHE159      0.0560
     80  CG        25.5600  158.7980   46.7150 C.ar  159  PHE159     -0.0200
     81  CD1       25.4670  157.7660   45.7860 C.ar  159  PHE159     -0.0042
     82  CD2       26.7020  158.8910   47.4830 C.ar  159  PHE159     -0.0042
     83  CE1       26.4770  156.8400   45.6430 C.ar  159  PHE159     -0.0003
     84  CE2       27.7380  157.9790   47.3190 C.ar  159  PHE159     -0.0003
     85  CZ        27.6170  156.9380   46.4160 C.ar  159  PHE159     -0.0000
     86  N         25.7460  162.9110   42.0140 N.3   162  ALA162     -0.1245
     87  CA        27.1300  163.3290   42.1130 C.3   162  ALA162      0.1562
     88  C         28.0850  162.2560   41.5590 C.2   162  ALA162      0.2260
     89  O         28.9460  162.5530   40.7500 O.2   162  ALA162     -0.2867
     90  CB        27.4610  163.6270   43.5450 C.3   162  ALA162      0.0290
@<TRIPOS>BOND
     1    89    88    2
     2    88    87    1
     3    86    87    1
     4    87    90    1
     5    78    77    2
     6    74    73    2
     7    77    76    1
     8    73    72    1
     9    73    75   am
    10    72    71    1
    11    83    81   ar
    12    83    85   ar
    13    81    80   ar
    14    76    75    1
    15    76    79    1
    16    85    84   ar
    17    80    79    1
    18    80    82   ar
    19    84    82   ar
    20    65    64    2
    21    70    69    2
    22    69    68    1
    23    64    63    1
    24    64    67   am
    25    63    62    1
    26    63    66    1
    27    48    46    1
    28    68    67    1
    29    44    43    2
    30    46    47    1
    31    46    45    1
    32    45    42    1
    33    42    43    1
    34    42    41    1
    35    43    49   am
    36    52    51    2
    37    51    50    1
    38    60    59    2
    39    49    50    1
    40    50    53    1
    41    59    58    1
    42    31    30    1
    43    58    57    1
    44    58    61    1
    45    55    54    2
    46    53    54    1
    47    29    28    2
    48    54    56   am
    49    32    30    1
    50    30    27    1
    51    28    27    1
    52    28    33   am
    53    36    35    2
    54    27    26    1
    55    35    34    1
    56    33    34    1
    57    34    37    1
    58    39    38    2
    59    37    38    1
    60    38    40   am
    61     4     3    2
    62    13    11   ar
    63    13    14   ar
    64    23    25   ar
    65    23    21   ar
    66    18    17    2
    67    11     8   ar
    68    25    24   ar
    69    21    20   ar
    70     3     2    1
    71     3    15   am
    72     5     2    1
    73     5     6    1
    74    14    12   ar
    75    17    16    1
    76    16    15    1
    77    16    19    1
    78     8     6   ar
    79     8    10   ar
    80     2     1    1
    81    24    22   ar
    82    20    22   ar
    83    20    19    1
    84     6     7   ar
    85    12    10   ar
    86    10     9   ar
    87     7     9   ar
