@<TRIPOS>MOLECULE
tmp/4bnyC00.pdb
 90 87 0 0 0
SMALL
GASTEIGER

@<TRIPOS>ATOM
      1  N         38.4130   15.7850   37.0500 N.3   112  TRP112     -0.1227
      2  CA        37.1350   15.7960   36.4360 C.3   112  TRP112      0.1737
      3  C         36.5580   17.1950   36.4120 C.2   112  TRP112      0.2595
      4  O         35.9590   17.5780   35.4150 O.2   112  TRP112     -0.2718
      5  CB        36.1580   14.8220   37.1150 C.3   112  TRP112      0.0564
      6  CG        35.9760   15.1520   38.5770 C.ar  112  TRP112      0.0003
      7  CD1       36.7560   14.7190   39.6000 C.ar  112  TRP112      0.0946
      8  CD2       34.9420   15.9790   39.1640 C.ar  112  TRP112      0.0152
      9  NE1       36.2920   15.2500   40.7960 N.ar  112  TRP112     -0.2442
     10  CE2       35.1910   16.0240   40.5540 C.ar  112  TRP112      0.0810
     11  CE3       33.8390   16.6730   38.6500 C.ar  112  TRP112      0.0012
     12  CZ2       34.3560   16.7050   41.4550 C.ar  112  TRP112      0.0191
     13  CZ3       33.0720   17.3760   39.5180 C.ar  112  TRP112      0.0001
     14  CH2       33.3230   17.3810   40.9150 C.ar  112  TRP112      0.0015
     15  N         36.7420   17.9580   37.4800 N.am  113  PHE113     -0.1976
     16  CA        35.9960   19.2610   37.5860 C.3   113  PHE113      0.1639
     17  C         36.5460   20.2360   36.5270 C.2   113  PHE113      0.2290
     18  O         35.8000   20.8830   35.8030 O.2   113  PHE113     -0.2864
     19  CB        36.0550   19.8960   38.9510 C.3   113  PHE113      0.0560
     20  CG        35.2620   21.1650   39.0490 C.ar  113  PHE113     -0.0200
     21  CD1       33.9050   21.1350   39.1180 C.ar  113  PHE113     -0.0042
     22  CD2       35.8620   22.4150   38.9040 C.ar  113  PHE113     -0.0042
     23  CE1       33.1550   22.3000   39.0770 C.ar  113  PHE113     -0.0003
     24  CE2       35.1370   23.5890   38.8880 C.ar  113  PHE113     -0.0003
     25  CZ        33.7690   23.5460   38.9840 C.ar  113  PHE113     -0.0000
     26  N         35.5240   19.1510   32.8470 N.3   116  VAL116     -0.1231
     27  CA        34.1820   19.4570   32.5190 C.3   116  VAL116      0.1692
     28  C         33.9260   20.9450   32.4710 C.2   116  VAL116      0.2592
     29  O         33.2740   21.4650   31.5600 O.2   116  VAL116     -0.2718
     30  CB        33.1540   18.7640   33.4690 C.3   116  VAL116      0.0266
     31  CG1       31.7600   19.1550   33.0850 C.3   116  VAL116      0.0020
     32  CG2       33.2920   17.2820   33.3830 C.3   116  VAL116      0.0020
     33  N         34.4460   21.6770   33.4350 N.am  117  ASN117     -0.1974
     34  CA        34.2530   23.1370   33.5040 C.3   117  ASN117      0.1688
     35  C         34.8020   23.8160   32.2350 C.2   117  ASN117      0.2292
     36  O         34.1300   24.6690   31.6070 O.2   117  ASN117     -0.2864
     37  CB        35.0280   23.6530   34.7190 C.3   117  ASN117      0.1181
     38  CG        34.7750   25.1240   35.0670 C.2   117  ASN117      0.2629
     39  OD1       33.6850   25.5750   35.1660 O.2   117  ASN117     -0.2716
     40  ND2       35.8410   25.7910   35.3920 N.am  117  ASN117     -0.0877
     41  N         32.6430   22.7710   29.1030 N.3   120  LEU120     -0.1231
     42  CA        31.3470   23.4420   29.0000 C.3   120  LEU120      0.1693
     43  C         31.4660   24.9060   28.7610 C.2   120  LEU120      0.2592
     44  O         30.6740   25.5100   28.0000 O.2   120  LEU120     -0.2718
     45  CB        30.4390   23.1050   30.1950 C.3   120  LEU120      0.0284
     46  CG        30.1170   21.6320   30.2950 C.3   120  LEU120      0.0019
     47  CD1       29.2750   21.4560   31.5430 C.3   120  LEU120      0.0001
     48  CD2       29.3550   21.1080   29.0870 C.3   120  LEU120      0.0001
     49  N         32.5010   25.5150   29.3080 N.am  121  ASN121     -0.1974
     50  CA        32.7270   26.9250   29.0340 C.3   121  ASN121      0.1688
     51  C         33.0520   27.1540   27.5670 C.2   121  ASN121      0.2292
     52  O         32.6150   28.1220   26.9930 O.2   121  ASN121     -0.2864
     53  CB        33.7660   27.5310   29.9960 C.3   121  ASN121      0.1181
     54  CG        33.1380   28.0460   31.2800 C.2   121  ASN121      0.2629
     55  OD1       32.8070   29.2170   31.3770 O.2   121  ASN121     -0.2716
     56  ND2       33.0920   27.2040   32.3230 N.am  121  ASN121     -0.0877
     57  N         30.8050   12.1860   34.6330 N.3   162  ALA162     -0.1245
     58  CA        30.6870   13.6320   34.9580 C.3   162  ALA162      0.1562
     59  C         30.5920   14.4790   33.6840 C.2   162  ALA162      0.2260
     60  O         29.7140   15.3750   33.5630 O.2   162  ALA162     -0.2867
     61  CB        31.8710   14.1580   35.7650 C.3   162  ALA162      0.0290
     62  N         27.1280   13.7690   32.1440 N.3   165  ALA165     -0.1231
     63  CA        26.0450   14.4560   32.8980 C.3   165  ALA165      0.1694
     64  C         26.0480   15.9670   32.6380 C.2   165  ALA165      0.2592
     65  O         25.0120   16.5760   32.3790 O.2   165  ALA165     -0.2718
     66  CB        26.1650   14.1890   34.3530 C.3   165  ALA165      0.0304
     67  N         27.2140   16.5510   32.6090 N.am  166  GLY166     -0.1957
     68  CA        27.3640   17.9550   32.2220 C.3   166  GLY166      0.1869
     69  C         26.8270   18.2580   30.8220 C.2   166  GLY166      0.2309
     70  O         26.0150   19.1490   30.6200 O.2   166  GLY166     -0.2863
     71  N         22.9330   17.9350   30.5410 N.3   169  GLY169     -0.1210
     72  CA        22.1680   19.0410   31.1330 C.3   169  GLY169      0.1956
     73  C         22.3630   20.3380   30.4030 C.2   169  GLY169      0.2611
     74  O         21.4510   21.1110   30.2520 O.2   169  GLY169     -0.2717
     75  N         23.5960   20.5880   29.9980 N.am  170  PHE170     -0.1976
     76  CA        23.9650   21.7520   29.2250 C.3   170  PHE170      0.1639
     77  C         23.1240   21.8340   27.9370 C.2   170  PHE170      0.2290
     78  O         22.6020   22.8770   27.5560 O.2   170  PHE170     -0.2864
     79  CB        25.4660   21.7630   28.9390 C.3   170  PHE170      0.0560
     80  CG        25.9160   22.9250   28.0730 C.ar  170  PHE170     -0.0200
     81  CD1       25.8810   22.8490   26.7140 C.ar  170  PHE170     -0.0042
     82  CD2       26.4600   24.0560   28.6750 C.ar  170  PHE170     -0.0042
     83  CE1       26.2610   23.9350   25.9060 C.ar  170  PHE170     -0.0003
     84  CE2       26.9450   25.1060   27.8880 C.ar  170  PHE170     -0.0003
     85  CZ        26.8340   25.0480   26.5140 C.ar  170  PHE170     -0.0000
     86  N         19.5080   22.6120   28.5000 N.3   173  ALA173     -0.1245
     87  CA        19.3220   24.0190   28.8990 C.3   173  ALA173      0.1562
     88  C         19.5150   24.9940   27.7270 C.2   173  ALA173      0.2260
     89  O         18.6710   25.8510   27.4760 O.2   173  ALA173     -0.2867
     90  CB        20.1950   24.3800   30.0750 C.3   173  ALA173      0.0290
@<TRIPOS>BOND
     1    83    85   ar
     2    83    81   ar
     3    85    84   ar
     4    81    80   ar
     5    52    51    2
     6    89    88    2
     7    78    77    2
     8    51    50    1
     9    88    87    1
    10    84    82   ar
    11    77    76    1
    12    44    43    2
    13    80    82   ar
    14    80    79    1
    15    86    87    1
    16    43    42    1
    17    43    49   am
    18    87    90    1
    19    79    76    1
    20    42    41    1
    21    42    45    1
    22    50    49    1
    23    50    53    1
    24    48    46    1
    25    76    75    1
    26    53    54    1
    27    75    73   am
    28    45    46    1
    29    74    73    2
    30    46    47    1
    31    73    72    1
    32    71    72    1
    33    70    69    2
    34    69    68    1
    35    54    55    2
    36    54    56   am
    37    29    28    2
    38    36    35    2
    39    62    63    1
    40    68    67    1
    41    35    34    1
    42    65    64    2
    43    28    27    1
    44    28    33   am
    45    27    26    1
    46    27    30    1
    47    67    64   am
    48    64    63    1
    49    63    66    1
    50    31    30    1
    51    32    30    1
    52    33    34    1
    53    34    37    1
    54    60    59    2
    55    59    58    1
    56    57    58    1
    57    37    38    1
    58    58    61    1
    59    38    39    2
    60    38    40   am
    61     4     3    2
    62    18    17    2
    63     3     2    1
    64     3    15   am
    65     2     1    1
    66     2     5    1
    67    17    16    1
    68     5     6    1
    69    15    16    1
    70    16    19    1
    71     6     8   ar
    72     6     7   ar
    73    11     8   ar
    74    11    13   ar
    75    24    22   ar
    76    24    25   ar
    77    22    20   ar
    78    19    20    1
    79    25    23   ar
    80    20    21   ar
    81    23    21   ar
    82     8    10   ar
    83    13    14   ar
    84     7     9   ar
    85    10     9   ar
    86    10    12   ar
    87    14    12   ar
