@<TRIPOS>MOLECULE
tmp/4bnzC00.pdb
 90 87 0 0 0
SMALL
GASTEIGER

@<TRIPOS>ATOM
      1  N        -38.2210   15.9280  -37.0970 N.3   107  TRP107     -0.1227
      2  CA       -36.8100   15.7630  -36.7830 C.3   107  TRP107      0.1737
      3  C        -36.1220   17.1030  -36.6690 C.2   107  TRP107      0.2595
      4  O        -35.4270   17.3640  -35.6630 O.2   107  TRP107     -0.2718
      5  CB       -36.1030   14.8580  -37.8100 C.3   107  TRP107      0.0564
      6  CG       -36.1430   15.3690  -39.1990 C.ar  107  TRP107      0.0003
      7  CD1      -37.1390   15.2140  -40.1050 C.ar  107  TRP107      0.0946
      8  CD2      -35.1420   16.1590  -39.8250 C.ar  107  TRP107      0.0152
      9  NE1      -36.8240   15.8570  -41.2790 N.ar  107  TRP107     -0.2442
     10  CE2      -35.5960   16.4450  -41.1330 C.ar  107  TRP107      0.0810
     11  CE3      -33.9080   16.6820  -39.4010 C.ar  107  TRP107      0.0012
     12  CZ2      -34.8640   17.2140  -42.0180 C.ar  107  TRP107      0.0191
     13  CZ3      -33.1700   17.4140  -40.3000 C.ar  107  TRP107      0.0001
     14  CH2      -33.6500   17.6800  -41.5860 C.ar  107  TRP107      0.0015
     15  N        -36.3530   17.9770  -37.6470 N.am  108  PHE108     -0.1976
     16  CA       -35.6480   19.2360  -37.6840 C.3   108  PHE108      0.1639
     17  C        -36.0620   20.1530  -36.5540 C.2   108  PHE108      0.2290
     18  O        -35.2120   20.6590  -35.8410 O.2   108  PHE108     -0.2864
     19  CB       -35.8170   19.9500  -39.0170 C.3   108  PHE108      0.0560
     20  CG       -35.0850   21.2510  -39.0840 C.ar  108  PHE108     -0.0200
     21  CD1      -33.7530   21.2750  -39.3750 C.ar  108  PHE108     -0.0042
     22  CD2      -35.7390   22.4520  -38.8180 C.ar  108  PHE108     -0.0042
     23  CE1      -33.0680   22.4730  -39.4190 C.ar  108  PHE108     -0.0003
     24  CE2      -35.0600   23.6450  -38.8380 C.ar  108  PHE108     -0.0003
     25  CZ       -33.7180   23.6560  -39.1310 C.ar  108  PHE108     -0.0000
     26  N        -35.0350   19.2140  -32.8110 N.3   111  VAL111     -0.1231
     27  CA       -33.6380   19.4640  -32.4440 C.3   111  VAL111      0.1692
     28  C        -33.3600   20.9510  -32.3720 C.2   111  VAL111      0.2592
     29  O        -32.7700   21.4490  -31.4360 O.2   111  VAL111     -0.2718
     30  CB       -32.6720   18.8180  -33.4420 C.3   111  VAL111      0.0266
     31  CG1      -31.2400   19.1660  -33.1140 C.3   111  VAL111      0.0020
     32  CG2      -32.8300   17.3050  -33.4360 C.3   111  VAL111      0.0020
     33  N        -33.8330   21.6740  -33.3570 N.am  112  ASN112     -0.1974
     34  CA       -33.6830   23.1190  -33.3790 C.3   112  ASN112      0.1688
     35  C        -34.3190   23.8570  -32.1950 C.2   112  ASN112      0.2292
     36  O        -33.7460   24.7880  -31.6310 O.2   112  ASN112     -0.2864
     37  CB       -34.2870   23.6670  -34.6670 C.3   112  ASN112      0.1181
     38  CG       -33.6280   24.9630  -35.0760 C.2   112  ASN112      0.2629
     39  OD1      -32.3700   25.0570  -35.1690 O.2   112  ASN112     -0.2716
     40  ND2      -34.4410   25.9750  -35.3040 N.am  112  ASN112     -0.0877
     41  N        -32.1820   22.9850  -28.9780 N.3   115  LEU115     -0.1231
     42  CA       -30.8930   23.6600  -28.8480 C.3   115  LEU115      0.1693
     43  C        -31.0730   25.1440  -28.6080 C.2   115  LEU115      0.2592
     44  O        -30.2950   25.7500  -27.9130 O.2   115  LEU115     -0.2718
     45  CB       -29.9890   23.3860  -30.0510 C.3   115  LEU115      0.0284
     46  CG       -29.6430   21.9050  -30.2340 C.3   115  LEU115      0.0019
     47  CD1      -28.6830   21.7760  -31.4040 C.3   115  LEU115      0.0001
     48  CD2      -29.0430   21.2640  -29.0010 C.3   115  LEU115      0.0001
     49  N        -32.1280   25.7190  -29.1440 N.am  116  ASN116     -0.1974
     50  CA       -32.4890   27.0820  -28.7820 C.3   116  ASN116      0.1688
     51  C        -32.8080   27.2150  -27.2920 C.2   116  ASN116      0.2292
     52  O        -32.4300   28.1970  -26.6780 O.2   116  ASN116     -0.2864
     53  CB       -33.6610   27.5710  -29.6390 C.3   116  ASN116      0.1181
     54  CG       -33.2330   27.9480  -31.0570 C.2   116  ASN116      0.2629
     55  OD1      -32.1760   28.5210  -31.2760 O.2   116  ASN116     -0.2716
     56  ND2      -34.0910   27.6650  -32.0220 N.am  116  ASN116     -0.0877
     57  N        -30.2630   12.3020  -34.6910 N.3   157  ALA157     -0.1245
     58  CA       -30.1670   13.7100  -35.0020 C.3   157  ALA157      0.1562
     59  C        -30.0360   14.4940  -33.7060 C.2   157  ALA157      0.2260
     60  O        -29.2030   15.3970  -33.6060 O.2   157  ALA157     -0.2867
     61  CB       -31.3940   14.1750  -35.7950 C.3   157  ALA157      0.0290
     62  N        -26.5790   13.9950  -32.1690 N.3   160  ALA160     -0.1231
     63  CA       -25.5580   14.7330  -32.9210 C.3   160  ALA160      0.1694
     64  C        -25.5810   16.2320  -32.6200 C.2   160  ALA160      0.2592
     65  O        -24.5490   16.8210  -32.3880 O.2   160  ALA160     -0.2718
     66  CB       -25.7610   14.5130  -34.4050 C.3   160  ALA160      0.0304
     67  N        -26.7680   16.8240  -32.5580 N.am  161  GLY161     -0.1957
     68  CA       -26.8920   18.2190  -32.1740 C.3   161  GLY161      0.1869
     69  C        -26.4250   18.4820  -30.7420 C.2   161  GLY161      0.2309
     70  O        -25.6890   19.4330  -30.4730 O.2   161  GLY161     -0.2863
     71  N        -22.5290   18.3390  -30.5600 N.3   164  GLY164     -0.1210
     72  CA       -21.8320   19.4600  -31.1750 C.3   164  GLY164      0.1956
     73  C        -22.0660   20.7200  -30.3630 C.2   164  GLY164      0.2611
     74  O        -21.1280   21.4960  -30.1120 O.2   164  GLY164     -0.2717
     75  N        -23.2990   20.9090  -29.9240 N.am  165  PHE165     -0.1976
     76  CA       -23.6440   22.0890  -29.1110 C.3   165  PHE165      0.1639
     77  C        -22.8580   22.0940  -27.8160 C.2   165  PHE165      0.2290
     78  O        -22.2960   23.1200  -27.4180 O.2   165  PHE165     -0.2864
     79  CB       -25.1270   22.1330  -28.8150 C.3   165  PHE165      0.0560
     80  CG       -25.5250   23.2360  -27.9090 C.ar  165  PHE165     -0.0200
     81  CD1      -25.5070   23.0500  -26.5680 C.ar  165  PHE165     -0.0042
     82  CD2      -26.0390   24.4540  -28.4080 C.ar  165  PHE165     -0.0042
     83  CE1      -25.9280   24.0520  -25.7030 C.ar  165  PHE165     -0.0003
     84  CE2      -26.4320   25.4720  -27.5530 C.ar  165  PHE165     -0.0003
     85  CZ       -26.4020   25.2620  -26.1810 C.ar  165  PHE165     -0.0000
     86  N        -19.2030   22.9090  -28.4000 N.3   168  ALA168     -0.1245
     87  CA       -18.9600   24.2990  -28.7100 C.3   168  ALA168      0.1562
     88  C        -19.1310   25.1760  -27.4820 C.2   168  ALA168      0.2260
     89  O        -18.3160   26.0690  -27.2520 O.2   168  ALA168     -0.2867
     90  CB       -19.8510   24.7660  -29.8500 C.3   168  ALA168      0.0290
@<TRIPOS>BOND
     1    12    14   ar
     2    12    10   ar
     3    14    13   ar
     4     9    10   ar
     5     9     7   ar
     6    10     8   ar
     7    13    11   ar
     8     7     6   ar
     9     8    11   ar
    10     8     6   ar
    11    23    21   ar
    12    23    25   ar
    13    21    20   ar
    14     6     5    1
    15    25    24   ar
    16    20    19    1
    17    20    22   ar
    18    19    16    1
    19    24    22   ar
    20     5     2    1
    21    16    15    1
    22    16    17    1
    23    15     3   am
    24     1     2    1
    25     2     3    1
    26     3     4    2
    27    17    18    2
    28    61    58    1
    29    40    38   am
    30    39    38    2
    31    38    37    1
    32    58    57    1
    33    58    59    1
    34    37    34    1
    35    66    63    1
    36    59    60    2
    37    30    32    1
    38    30    31    1
    39    30    27    1
    40    34    33    1
    41    34    35    1
    42    33    28   am
    43    63    64    1
    44    63    62    1
    45    26    27    1
    46    64    67   am
    47    64    65    2
    48    67    68    1
    49    27    28    1
    50    28    29    2
    51    35    36    2
    52    68    69    1
    53    56    54   am
    54    47    46    1
    55    55    54    2
    56    72    71    1
    57    72    73    1
    58    54    53    1
    59    69    70    2
    60    73    74    2
    61    73    75   am
    62    46    45    1
    63    46    48    1
    64    45    42    1
    65    75    76    1
    66    90    87    1
    67    53    50    1
    68    49    50    1
    69    49    43   am
    70    76    79    1
    71    76    77    1
    72    41    42    1
    73    42    43    1
    74    79    80    1
    75    50    51    1
    76    87    86    1
    77    87    88    1
    78    43    44    2
    79    82    80   ar
    80    82    84   ar
    81    80    81   ar
    82    77    78    2
    83    84    85   ar
    84    88    89    2
    85    51    52    2
    86    81    83   ar
    87    85    83   ar
