@<TRIPOS>MOLECULE
tmp/4bo0D00.pdb
 90 87 0 0 0
SMALL
GASTEIGER

@<TRIPOS>ATOM
      1  N        -21.0780   27.9010  -33.5050 N.3   100  TRP100     -0.1227
      2  CA       -21.5280   26.5920  -33.9720 C.3   100  TRP100      0.1737
      3  C        -23.0240   26.4670  -33.9290 C.2   100  TRP100      0.2595
      4  O        -23.6160   26.0540  -34.9050 O.2   100  TRP100     -0.2718
      5  CB       -20.8880   25.4140  -33.1980 C.3   100  TRP100      0.0564
      6  CG       -21.1200   25.3930  -31.7120 C.ar  100  TRP100      0.0003
      7  CD1      -20.3780   26.0320  -30.7810 C.ar  100  TRP100      0.0946
      8  CD2      -22.0840   24.6260  -30.9960 C.ar  100  TRP100      0.0152
      9  NE1      -20.8150   25.7270  -29.5360 N.ar  100  TRP100     -0.2442
     10  CE2      -21.8870   24.8790  -29.6380 C.ar  100  TRP100      0.0810
     11  CE3      -23.0970   23.7510  -31.3740 C.ar  100  TRP100      0.0012
     12  CZ2      -22.7040   24.3430  -28.6570 C.ar  100  TRP100      0.0191
     13  CZ3      -23.8960   23.1920  -30.4100 C.ar  100  TRP100      0.0001
     14  CH2      -23.6980   23.4900  -29.0640 C.ar  100  TRP100      0.0015
     15  N        -23.6660   26.8210  -32.8210 N.am  101  PHE101     -0.1976
     16  CA       -25.0900   26.5150  -32.7340 C.3   101  PHE101      0.1639
     17  C        -25.9520   27.1420  -33.8250 C.2   101  PHE101      0.2290
     18  O        -26.6870   26.4240  -34.5240 O.2   101  PHE101     -0.2864
     19  CB       -25.6790   26.8490  -31.4010 C.3   101  PHE101      0.0560
     20  CG       -27.1130   26.4180  -31.2910 C.ar  101  PHE101     -0.0200
     21  CD1      -27.4240   25.1010  -30.9870 C.ar  101  PHE101     -0.0042
     22  CD2      -28.1510   27.3110  -31.5100 C.ar  101  PHE101     -0.0042
     23  CE1      -28.7390   24.6870  -30.9000 C.ar  101  PHE101     -0.0003
     24  CE2      -29.4740   26.9030  -31.3990 C.ar  101  PHE101     -0.0003
     25  CZ       -29.7640   25.5920  -31.1080 C.ar  101  PHE101     -0.0000
     26  N        -25.2820   25.6270  -37.4230 N.3   104  VAL104     -0.1231
     27  CA       -25.7350   24.2780  -37.6680 C.3   104  VAL104      0.1692
     28  C        -27.2770   24.2470  -37.6250 C.2   104  VAL104      0.2592
     29  O        -27.9190   23.6660  -38.4920 O.2   104  VAL104     -0.2718
     30  CB       -25.0990   23.2950  -36.6690 C.3   104  VAL104      0.0266
     31  CG1      -25.4980   21.8640  -36.9910 C.3   104  VAL104      0.0020
     32  CG2      -23.5730   23.4250  -36.7000 C.3   104  VAL104      0.0020
     33  N        -27.8600   24.8860  -36.6270 N.am  105  ASN105     -0.1974
     34  CA       -29.3030   24.9520  -36.5260 C.3   105  ASN105      0.1688
     35  C        -29.9380   25.4740  -37.8210 C.2   105  ASN105      0.2292
     36  O        -30.8850   24.8810  -38.3400 O.2   105  ASN105     -0.2864
     37  CB       -29.7300   25.8710  -35.3760 C.3   105  ASN105      0.1181
     38  CG       -31.1720   25.6660  -35.0040 C.2   105  ASN105      0.2629
     39  OD1      -31.6410   24.5270  -34.9200 O.2   105  ASN105     -0.2716
     40  ND2      -31.8980   26.7520  -34.8220 N.am  105  ASN105     -0.0877
     41  N        -29.3110   23.1030  -41.0730 N.3   108  LEU108     -0.1231
     42  CA       -30.1270   21.8890  -41.0910 C.3   108  LEU108      0.1693
     43  C        -31.5980   22.1760  -41.3610 C.2   108  LEU108      0.2592
     44  O        -32.2490   21.4450  -42.1210 O.2   108  LEU108     -0.2718
     45  CB       -29.9560   21.0840  -39.8100 C.3   108  LEU108      0.0284
     46  CG       -28.5910   20.4190  -39.6620 C.3   108  LEU108      0.0019
     47  CD1      -28.5620   19.5690  -38.4140 C.3   108  LEU108      0.0001
     48  CD2      -28.2390   19.5470  -40.8530 C.3   108  LEU108      0.0001
     49  N        -32.1100   23.2480  -40.7680 N.am  109  ASN109     -0.1974
     50  CA       -33.4690   23.6530  -41.0770 C.3   109  ASN109      0.1688
     51  C        -33.6810   23.8650  -42.5540 C.2   109  ASN109      0.2292
     52  O        -34.7230   23.4930  -43.1190 O.2   109  ASN109     -0.2864
     53  CB       -33.8580   24.8740  -40.2860 C.3   109  ASN109      0.1181
     54  CG       -34.3860   24.4850  -38.9210 C.2   109  ASN109      0.2629
     55  OD1      -35.5980   24.4270  -38.7030 O.2   109  ASN109     -0.2716
     56  ND2      -33.4790   24.1220  -38.0250 N.am  109  ASN109     -0.0877
     57  N        -18.8400   20.1450  -35.4560 N.3   150  ALA150     -0.1245
     58  CA       -20.2750   20.2500  -35.1910 C.3   150  ALA150      0.1562
     59  C        -21.0810   20.1930  -36.4850 C.2   150  ALA150      0.2260
     60  O        -22.0370   19.4270  -36.6010 O.2   150  ALA150     -0.2867
     61  CB       -20.5780   21.5360  -34.4430 C.3   150  ALA150      0.0290
     62  N        -20.9110   16.6300  -37.8600 N.3   153  ALA153     -0.1231
     63  CA       -21.7210   15.6600  -37.1090 C.3   153  ALA153      0.1694
     64  C        -23.2340   15.8980  -37.2730 C.2   153  ALA153      0.2592
     65  O        -24.0080   14.9420  -37.3030 O.2   153  ALA153     -0.2718
     66  CB       -21.3540   15.6670  -35.6440 C.3   153  ALA153      0.0304
     67  N        -23.6440   17.1540  -37.4120 N.am  154  GLY154     -0.1957
     68  CA       -25.0430   17.4810  -37.7200 C.3   154  GLY154      0.1869
     69  C        -25.4820   16.9900  -39.0950 C.2   154  GLY154      0.2309
     70  O        -26.5520   16.3920  -39.2540 O.2   154  GLY154     -0.2863
     71  N        -25.6890   12.9800  -39.1810 N.3   157  GLY157     -0.1210
     72  CA       -26.8780   12.4220  -38.5300 C.3   157  GLY157      0.1956
     73  C        -28.1280   12.7100  -39.3350 C.2   157  GLY157      0.2611
     74  O        -28.9460   11.8180  -39.5550 O.2   157  GLY157     -0.2717
     75  N        -28.2640   13.9580  -39.7820 N.am  158  PHE158     -0.1976
     76  CA       -29.3880   14.3710  -40.6180 C.3   158  PHE158      0.1639
     77  C        -29.4970   13.5100  -41.8630 C.2   158  PHE158      0.2290
     78  O        -30.5550   12.9820  -42.2000 O.2   158  PHE158     -0.2864
     79  CB       -29.2010   15.8340  -41.0020 C.3   158  PHE158      0.0560
     80  CG       -30.2230   16.3360  -41.9110 C.ar  158  PHE158     -0.0200
     81  CD1      -31.4210   16.8120  -41.4220 C.ar  158  PHE158     -0.0042
     82  CD2      -30.0210   16.3130  -43.2890 C.ar  158  PHE158     -0.0042
     83  CE1      -32.4110   17.2540  -42.2880 C.ar  158  PHE158     -0.0003
     84  CE2      -31.0180   16.7450  -44.1670 C.ar  158  PHE158     -0.0003
     85  CZ       -32.2000   17.2400  -43.6610 C.ar  158  PHE158     -0.0000
     86  N        -30.6560    9.9420  -41.2060 N.3   161  ALA161     -0.1245
     87  CA       -32.0680    9.8970  -40.8340 C.3   161  ALA161      0.1562
     88  C        -32.9270   10.0510  -42.0910 C.2   161  ALA161      0.2260
     89  O        -33.8500    9.2910  -42.3100 O.2   161  ALA161     -0.2867
     90  CB       -32.3990   10.9870  -39.8170 C.3   161  ALA161      0.0290
@<TRIPOS>BOND
     1    84    85   ar
     2    84    82   ar
     3    85    83   ar
     4    82    80   ar
     5    52    51    2
     6    51    50    1
     7    89    88    2
     8    83    81   ar
     9    78    77    2
    10    44    43    2
    11    88    87    1
    12    80    81   ar
    13    80    79    1
    14    77    76    1
    15    43    42    1
    16    43    49   am
    17    86    87    1
    18    42    41    1
    19    42    45    1
    20    50    49    1
    21    50    53    1
    22    79    76    1
    23    48    46    1
    24    87    90    1
    25    76    75    1
    26    53    54    1
    27    45    46    1
    28    75    73   am
    29    46    47    1
    30    74    73    2
    31    73    72    1
    32    70    69    2
    33    71    72    1
    34    69    68    1
    35    54    55    2
    36    54    56   am
    37    29    28    2
    38    36    35    2
    39    62    63    1
    40    35    34    1
    41    68    67    1
    42    27    28    1
    43    27    26    1
    44    27    30    1
    45    28    33   am
    46    67    64   am
    47    65    64    2
    48    64    63    1
    49    63    66    1
    50    31    30    1
    51    32    30    1
    52    33    34    1
    53    60    59    2
    54    34    37    1
    55    59    58    1
    56    57    58    1
    57    37    38    1
    58    58    61    1
    59    38    39    2
    60    38    40   am
    61     4     3    2
    62    18    17    2
    63     2     3    1
    64     2     1    1
    65     2     5    1
    66     3    15   am
    67    17    16    1
    68     5     6    1
    69    15    16    1
    70    16    19    1
    71     6     8   ar
    72     6     7   ar
    73    22    24   ar
    74    22    20   ar
    75    19    20    1
    76    24    25   ar
    77    11     8   ar
    78    11    13   ar
    79    20    21   ar
    80    25    23   ar
    81     8    10   ar
    82    21    23   ar
    83     7     9   ar
    84    13    14   ar
    85    10     9   ar
    86    10    12   ar
    87    14    12   ar
