@<TRIPOS>MOLECULE
tmp/4bo1D00.pdb
 90 87 0 0 0
SMALL
GASTEIGER

@<TRIPOS>ATOM
      1  N        -20.8130   29.1880  -32.2690 N.3   103  TRP103     -0.1227
      2  CA       -21.0850   27.8870  -32.8350 C.3   103  TRP103      0.1737
      3  C        -22.5740   27.6070  -32.9120 C.2   103  TRP103      0.2595
      4  O        -23.0670   27.0260  -33.8900 O.2   103  TRP103     -0.2718
      5  CB       -20.3240   26.7920  -32.0420 C.3   103  TRP103      0.0564
      6  CG       -20.6640   26.7490  -30.6340 C.ar  103  TRP103      0.0003
      7  CD1      -20.1550   27.5220  -29.6280 C.ar  103  TRP103      0.0946
      8  CD2      -21.6710   25.9220  -30.0500 C.ar  103  TRP103      0.0152
      9  NE1      -20.7980   27.2070  -28.4440 N.ar  103  TRP103     -0.2442
     10  CE2      -21.7360   26.2430  -28.6800 C.ar  103  TRP103      0.0810
     11  CE3      -22.5360   24.9640  -30.5530 C.ar  103  TRP103      0.0012
     12  CZ2      -22.5990   25.6150  -27.8130 C.ar  103  TRP103      0.0191
     13  CZ3      -23.3910   24.3450  -29.6830 C.ar  103  TRP103      0.0001
     14  CH2      -23.4250   24.6880  -28.3130 C.ar  103  TRP103      0.0015
     15  N        -23.3030   28.0070  -31.8930 N.am  104  PHE104     -0.1976
     16  CA       -24.6720   27.5540  -31.8090 C.3   104  PHE104      0.1639
     17  C        -25.4980   28.1520  -32.9380 C.2   104  PHE104      0.2290
     18  O        -26.1950   27.4220  -33.6260 O.2   104  PHE104     -0.2864
     19  CB       -25.3510   27.8320  -30.4850 C.3   104  PHE104      0.0560
     20  CG       -26.7580   27.2810  -30.4490 C.ar  104  PHE104     -0.0200
     21  CD1      -26.9810   25.9620  -30.1170 C.ar  104  PHE104     -0.0042
     22  CD2      -27.8500   28.0530  -30.7920 C.ar  104  PHE104     -0.0042
     23  CE1      -28.2520   25.4180  -30.1020 C.ar  104  PHE104     -0.0003
     24  CE2      -29.1290   27.5110  -30.7810 C.ar  104  PHE104     -0.0003
     25  CZ       -29.3300   26.1940  -30.4480 C.ar  104  PHE104     -0.0000
     26  N        -24.5220   26.8170  -36.5880 N.3   107  VAL107     -0.1231
     27  CA       -24.9410   25.4870  -36.8990 C.3   107  VAL107      0.1692
     28  C        -26.4570   25.4250  -36.9950 C.2   107  VAL107      0.2592
     29  O        -27.0280   24.8340  -37.8950 O.2   107  VAL107     -0.2718
     30  CB       -24.4610   24.5140  -35.8010 C.3   107  VAL107      0.0266
     31  CG1      -24.9900   23.1080  -36.0080 C.3   107  VAL107      0.0020
     32  CG2      -22.9480   24.5070  -35.7560 C.3   107  VAL107      0.0020
     33  N        -27.1240   26.0340  -36.0410 N.am  108  ASN108     -0.1974
     34  CA       -28.5860   26.0550  -36.0650 C.3   108  ASN108      0.1688
     35  C        -29.1530   26.6140  -37.4010 C.2   108  ASN108      0.2292
     36  O        -30.1230   26.1100  -37.9370 O.2   108  ASN108     -0.2864
     37  CB       -29.1100   26.9000  -34.8920 C.3   108  ASN108      0.1181
     38  CG       -30.5700   26.6820  -34.6550 C.2   108  ASN108      0.2629
     39  OD1      -31.0830   25.5700  -34.7200 O.2   108  ASN108     -0.2716
     40  ND2      -31.2640   27.7660  -34.4320 N.am  108  ASN108     -0.0877
     41  N        -28.3480   24.2210  -40.4330 N.3   111  LEU111     -0.1231
     42  CA       -29.1500   23.0420  -40.5230 C.3   111  LEU111      0.1693
     43  C        -30.5720   23.3740  -40.9090 C.2   111  LEU111      0.2592
     44  O        -31.2150   22.6120  -41.6800 O.2   111  LEU111     -0.2718
     45  CB       -29.0930   22.1640  -39.2520 C.3   111  LEU111      0.0284
     46  CG       -27.6860   21.6390  -38.9660 C.3   111  LEU111      0.0019
     47  CD1      -27.6630   20.7960  -37.6810 C.3   111  LEU111      0.0001
     48  CD2      -27.0720   20.8390  -40.1110 C.3   111  LEU111      0.0001
     49  N        -31.0900   24.4610  -40.3800 N.am  112  ASN112     -0.1974
     50  CA       -32.4610   24.8530  -40.7210 C.3   112  ASN112      0.1688
     51  C        -32.5990   25.1870  -42.1910 C.2   112  ASN112      0.2292
     52  O        -33.6150   24.8720  -42.7970 O.2   112  ASN112     -0.2864
     53  CB       -32.9360   25.9890  -39.8090 C.3   112  ASN112      0.1181
     54  CG       -33.3890   25.4680  -38.4360 C.2   112  ASN112      0.2629
     55  OD1      -34.5710   25.2300  -38.2220 O.2   112  ASN112     -0.2716
     56  ND2      -32.4470   25.2120  -37.5430 N.am  112  ASN112     -0.0877
     57  N        -18.2090   21.4930  -34.5390 N.3   152  ALA152     -0.1245
     58  CA       -19.6510   21.5390  -34.2760 C.3   152  ALA152      0.1562
     59  C        -20.4320   21.4560  -35.5660 C.2   152  ALA152      0.2260
     60  O        -21.3950   20.6820  -35.6790 O.2   152  ALA152     -0.2867
     61  CB       -20.0030   22.7940  -33.5120 C.3   152  ALA152      0.0290
     62  N        -20.1570   17.8340  -36.8740 N.3   155  ALA155     -0.1231
     63  CA       -20.9780   16.8630  -36.1380 C.3   155  ALA155      0.1694
     64  C        -22.4830   17.0380  -36.4550 C.2   155  ALA155      0.2592
     65  O        -23.2270   16.0450  -36.6560 O.2   155  ALA155     -0.2718
     66  CB       -20.7450   16.9660  -34.6430 C.3   155  ALA155      0.0304
     67  N        -22.9270   18.2880  -36.5450 N.am  156  GLY156     -0.1957
     68  CA       -24.3350   18.5420  -36.9080 C.3   156  GLY156      0.1869
     69  C        -24.6570   18.0380  -38.2960 C.2   156  GLY156      0.2309
     70  O        -25.6960   17.4200  -38.5460 O.2   156  GLY156     -0.2863
     71  N        -24.8280   14.0610  -38.5840 N.3   159  GLY159     -0.1210
     72  CA       -26.0260   13.4720  -37.9260 C.3   159  GLY159      0.1956
     73  C        -27.2800   13.8390  -38.7220 C.2   159  GLY159      0.2611
     74  O        -28.1800   13.0260  -38.9530 O.2   159  GLY159     -0.2717
     75  N        -27.3340   15.0790  -39.1570 N.am  160  PHE160     -0.1976
     76  CA       -28.4520   15.5340  -39.9790 C.3   160  PHE160      0.1639
     77  C        -28.5430   14.7730  -41.3140 C.2   160  PHE160      0.2290
     78  O        -29.6220   14.3420  -41.7200 O.2   160  PHE160     -0.2864
     79  CB       -28.3280   17.0300  -40.2870 C.3   160  PHE160      0.0560
     80  CG       -29.3580   17.5170  -41.2370 C.ar  160  PHE160     -0.0200
     81  CD1      -30.6310   17.8570  -40.8030 C.ar  160  PHE160     -0.0042
     82  CD2      -29.0850   17.5730  -42.5750 C.ar  160  PHE160     -0.0042
     83  CE1      -31.5980   18.2690  -41.7000 C.ar  160  PHE160     -0.0003
     84  CE2      -30.0340   17.9750  -43.5000 C.ar  160  PHE160     -0.0003
     85  CZ       -31.3030   18.3460  -43.0670 C.ar  160  PHE160     -0.0000
     86  N        -29.8500   11.2460  -40.6790 N.3   163  ALA163     -0.1245
     87  CA       -31.2530   11.2120  -40.3470 C.3   163  ALA163      0.1562
     88  C        -32.0930   11.4540  -41.6090 C.2   163  ALA163      0.2260
     89  O        -33.0540   10.7160  -41.8640 O.2   163  ALA163     -0.2867
     90  CB       -31.5540   12.2640  -39.3420 C.3   163  ALA163      0.0290
@<TRIPOS>BOND
     1    84    85   ar
     2    84    82   ar
     3    85    83   ar
     4    52    51    2
     5    82    80   ar
     6    51    50    1
     7    89    88    2
     8    78    77    2
     9    83    81   ar
    10    44    43    2
    11    88    87    1
    12    77    76    1
    13    80    81   ar
    14    80    79    1
    15    43    42    1
    16    43    49   am
    17    50    49    1
    18    50    53    1
    19    86    87    1
    20    42    41    1
    21    42    45    1
    22    87    90    1
    23    79    76    1
    24    48    46    1
    25    76    75    1
    26    53    54    1
    27    45    46    1
    28    75    73   am
    29    46    47    1
    30    74    73    2
    31    73    72    1
    32    71    72    1
    33    70    69    2
    34    54    55    2
    35    54    56   am
    36    69    68    1
    37    36    35    2
    38    29    28    2
    39    35    34    1
    40    28    27    1
    41    28    33   am
    42    68    67    1
    43    27    26    1
    44    27    30    1
    45    62    63    1
    46    65    64    2
    47    67    64   am
    48    64    63    1
    49    63    66    1
    50    34    33    1
    51    34    37    1
    52    31    30    1
    53    30    32    1
    54    60    59    2
    55    59    58    1
    56    37    38    1
    57    39    38    2
    58    38    40   am
    59    57    58    1
    60    58    61    1
    61     4     3    2
    62    18    17    2
    63    17    16    1
    64     3     2    1
    65     3    15   am
    66     2     1    1
    67     2     5    1
    68     5     6    1
    69    15    16    1
    70    16    19    1
    71    22    24   ar
    72    22    20   ar
    73    24    25   ar
    74     6     8   ar
    75     6     7   ar
    76    11     8   ar
    77    11    13   ar
    78    19    20    1
    79    20    21   ar
    80    25    23   ar
    81    21    23   ar
    82     8    10   ar
    83    13    14   ar
    84     7     9   ar
    85    10     9   ar
    86    10    12   ar
    87    14    12   ar
