@<TRIPOS>MOLECULE
tmp/4bo2B00.pdb
 90 87 0 0 0
SMALL
GASTEIGER

@<TRIPOS>ATOM
      1  N         -0.7920  111.3830  183.9870 N.3    94  TRP94      -0.1227
      2  CA         0.6090  111.3000  183.5490 C.3    94  TRP94       0.1737
      3  C          1.1640  109.8840  183.7050 C.2    94  TRP94       0.2595
      4  O          1.9620  109.4140  182.8760 O.2    94  TRP94      -0.2718
      5  CB         1.4790  112.3160  184.3130 C.3    94  TRP94       0.0564
      6  CG         1.3820  112.2480  185.8010 C.ar   94  TRP94       0.0003
      7  CD1        0.4640  112.9100  186.6170 C.ar   94  TRP94       0.0946
      8  CD2        2.1810  111.4460  186.6780 C.ar   94  TRP94       0.0152
      9  NE1        0.6840  112.5880  187.9260 N.ar   94  TRP94      -0.2442
     10  CE2        1.7370  111.6980  187.9960 C.ar   94  TRP94       0.0810
     11  CE3        3.2580  110.5700  186.4850 C.ar   94  TRP94       0.0012
     12  CZ2        2.3070  111.0630  189.1070 C.ar   94  TRP94       0.0191
     13  CZ3        3.8390  109.9530  187.6040 C.ar   94  TRP94       0.0001
     14  CH2        3.3470  110.1950  188.8920 C.ar   94  TRP94       0.0015
     15  N          0.7830  109.2040  184.7900 N.am   95  PHE95      -0.1976
     16  CA         1.3980  107.9180  185.0630 C.3    95  PHE95       0.1639
     17  C          1.0650  106.8680  184.0070 C.2    95  PHE95       0.2290
     18  O          1.9700  106.2710  183.4040 O.2    95  PHE95      -0.2864
     19  CB         1.1140  107.3780  186.4670 C.3    95  PHE95       0.0560
     20  CG         1.8280  106.0770  186.7170 C.ar   95  PHE95      -0.0200
     21  CD1        3.1660  106.0760  187.0370 C.ar   95  PHE95      -0.0042
     22  CD2        1.2140  104.8760  186.4900 C.ar   95  PHE95      -0.0042
     23  CE1        3.8600  104.8860  187.1990 C.ar   95  PHE95      -0.0003
     24  CE2        1.8980  103.6790  186.6430 C.ar   95  PHE95      -0.0003
     25  CZ         3.2190  103.6830  186.9980 C.ar   95  PHE95      -0.0000
     26  N          2.5010  107.7980  180.3770 N.3    98  VAL98      -0.1231
     27  CA         3.9220  107.5850  180.2030 C.3    98  VAL98       0.1692
     28  C          4.2150  106.0760  180.2470 C.2    98  VAL98       0.2592
     29  O          5.0320  105.5530  179.4910 O.2    98  VAL98      -0.2718
     30  CB         4.7310  108.3260  181.2690 C.3    98  VAL98       0.0266
     31  CG1        6.2040  107.9850  181.1320 C.3    98  VAL98       0.0020
     32  CG2        4.5560  109.8250  181.1260 C.3    98  VAL98       0.0020
     33  N          3.6150  105.3930  181.1990 N.am   99  ASN99      -0.1974
     34  CA         3.9190  103.9850  181.4260 C.3    99  ASN99       0.1688
     35  C          3.5260  103.1210  180.2170 C.2    99  ASN99       0.2292
     36  O          4.2810  102.2470  179.7830 O.2    99  ASN99      -0.2864
     37  CB         3.2720  103.5030  182.7150 C.3    99  ASN99       0.1181
     38  CG         3.7820  102.1530  183.1410 C.2    99  ASN99       0.2629
     39  OD1        3.0490  101.2190  183.0500 O.2    99  ASN99      -0.2716
     40  ND2        5.0680  102.0210  183.4930 N.am   99  ASN99      -0.0877
     41  N          5.9030  104.0620  177.1620 N.3   102  LEU102     -0.1231
     42  CA         7.2170  103.4290  177.2300 C.3   102  LEU102      0.1693
     43  C          7.1100  101.9310  177.0080 C.2   102  LEU102      0.2592
     44  O          7.9680  101.3490  176.3790 O.2   102  LEU102     -0.2718
     45  CB         7.9050  103.7480  178.5430 C.3   102  LEU102      0.0284
     46  CG         8.3190  105.2220  178.6420 C.3   102  LEU102      0.0019
     47  CD1        8.9570  105.4220  179.9700 C.3   102  LEU102      0.0001
     48  CD2        9.2630  105.6600  177.5380 C.3   102  LEU102      0.0001
     49  N          5.9970  101.3350  177.4250 N.am  103  ASN103     -0.1974
     50  CA         5.7770   99.9180  177.1230 C.3   103  ASN103      0.1688
     51  C          5.6270   99.6580  175.6420 C.2   103  ASN103      0.2292
     52  O          6.1480   98.6950  175.1310 O.2   103  ASN103     -0.2864
     53  CB         4.5800   99.3750  177.8880 C.3   103  ASN103      0.1181
     54  CG         4.9820   98.7710  179.1760 C.2   103  ASN103      0.2629
     55  OD1        5.3530   97.6120  179.2270 O.2   103  ASN103     -0.2716
     56  ND2        4.9560   99.5690  180.2410 N.am  103  ASN103     -0.0877
     57  N          7.1680  114.8430  182.5940 N.3   144  ALA144     -0.1245
     58  CA         7.1940  113.4170  182.9160 C.3   144  ALA144      0.1562
     59  C          7.4430  112.5280  181.6790 C.2   144  ALA144      0.2260
     60  O          8.2640  111.6090  181.7220 O.2   144  ALA144     -0.2867
     61  CB         5.8690  113.0170  183.5640 C.3   144  ALA144      0.0290
     62  N         11.0460  113.0440  180.5480 N.3   147  ALA147     -0.1231
     63  CA        11.9660  112.3950  181.4360 C.3   147  ALA147      0.1694
     64  C         11.9830  110.8910  181.1980 C.2   147  ALA147      0.2592
     65  O         13.0400  110.2890  181.1590 O.2   147  ALA147     -0.2718
     66  CB        11.5960  112.6850  182.9050 C.3   147  ALA147      0.0304
     67  N         10.8150  110.2870  181.0430 N.am  148  GLY148     -0.1957
     68  CA        10.7410  108.8820  180.7090 C.3   148  GLY148      0.1869
     69  C         11.3300  108.5770  179.3450 C.2   148  GLY148      0.2309
     70  O         12.1370  107.6330  179.1900 O.2   148  GLY148     -0.2863
     71  N         15.3850  108.8850  179.6380 N.3   151  GLY151     -0.1210
     72  CA        15.9700  107.7720  180.3430 C.3   151  GLY151      0.1956
     73  C         15.8510  106.4730  179.5750 C.2   151  GLY151      0.2611
     74  O         16.7720  105.6810  179.5580 O.2   151  GLY151     -0.2717
     75  N         14.7000  106.2260  178.9890 N.am  152  PHE152     -0.1976
     76  CA        14.5100  105.0250  178.1960 C.3   152  PHE152      0.1639
     77  C         15.5010  104.9850  177.0270 C.2   152  PHE152      0.2290
     78  O         16.1420  103.9700  176.7300 O.2   152  PHE152     -0.2864
     79  CB        13.0540  104.9780  177.7010 C.3   152  PHE152      0.0560
     80  CG        12.7510  103.8140  176.7980 C.ar  152  PHE152     -0.0200
     81  CD1       12.9960  103.9040  175.4470 C.ar  152  PHE152     -0.0042
     82  CD2       12.3060  102.6100  177.3190 C.ar  152  PHE152     -0.0042
     83  CE1       12.7820  102.8360  174.6130 C.ar  152  PHE152     -0.0003
     84  CE2       12.1010  101.5140  176.4880 C.ar  152  PHE152     -0.0003
     85  CZ        12.3590  101.6310  175.1150 C.ar  152  PHE152     -0.0000
     86  N         19.0290  104.2670  178.1010 N.3   155  ALA155     -0.1245
     87  CA        19.2090  102.8550  178.5230 C.3   155  ALA155      0.1562
     88  C         19.2570  101.8930  177.3300 C.2   155  ALA155      0.2260
     89  O         20.1840  101.0840  177.1920 O.2   155  ALA155     -0.2867
     90  CB        18.0870  102.4510  179.4510 C.3   155  ALA155      0.0290
@<TRIPOS>BOND
     1    83    85   ar
     2    83    81   ar
     3    85    84   ar
     4    52    51    2
     5    81    80   ar
     6    51    50    1
     7    44    43    2
     8    84    82   ar
     9    78    77    2
    10    80    82   ar
    11    80    79    1
    12    43    42    1
    13    43    49   am
    14    77    76    1
    15    50    49    1
    16    50    53    1
    17    41    42    1
    18    89    88    2
    19    42    45    1
    20    88    87    1
    21    48    46    1
    22    79    76    1
    23    53    54    1
    24    86    87    1
    25    76    75    1
    26    87    90    1
    27    45    46    1
    28    46    47    1
    29    75    73   am
    30    54    55    2
    31    54    56   am
    32    70    69    2
    33    69    68    1
    34    29    28    2
    35    74    73    2
    36    73    72    1
    37    71    72    1
    38    36    35    2
    39    27    28    1
    40    27    26    1
    41    27    30    1
    42    35    34    1
    43    28    33   am
    44    62    63    1
    45    68    67    1
    46    67    64   am
    47    32    30    1
    48    31    30    1
    49    65    64    2
    50    64    63    1
    51    33    34    1
    52    34    37    1
    53    63    66    1
    54    59    60    2
    55    59    58    1
    56    57    58    1
    57    37    38    1
    58     4     3    2
    59    58    61    1
    60    39    38    2
    61    38    40   am
    62    18    17    2
    63     2     3    1
    64     2     1    1
    65     2     5    1
    66     3    15   am
    67    17    16    1
    68     5     6    1
    69    15    16    1
    70    16    19    1
    71     6     7   ar
    72     6     8   ar
    73    19    20    1
    74    11     8   ar
    75    11    13   ar
    76    22    24   ar
    77    22    20   ar
    78     7     9   ar
    79    24    25   ar
    80     8    10   ar
    81    20    21   ar
    82    25    23   ar
    83    21    23   ar
    84    13    14   ar
    85     9    10   ar
    86    10    12   ar
    87    14    12   ar
