@<TRIPOS>MOLECULE
tmp/4bo2C00.pdb
 90 87 0 0 0
SMALL
GASTEIGER

@<TRIPOS>ATOM
      1  N         40.5660  123.0370  187.3120 N.3    99  TRP99      -0.1227
      2  CA        39.2630  123.0570  186.6580 C.3    99  TRP99       0.1737
      3  C         38.6270  124.4390  186.6750 C.2    99  TRP99       0.2595
      4  O         37.9880  124.8580  185.6960 O.2    99  TRP99      -0.2718
      5  CB        38.2950  122.0240  187.2830 C.3    99  TRP99       0.0564
      6  CG        38.1470  122.1370  188.7790 C.ar   99  TRP99       0.0003
      7  CD1       38.9320  121.5450  189.7130 C.ar   99  TRP99       0.0946
      8  CD2       37.1990  122.9170  189.4900 C.ar   99  TRP99       0.0152
      9  NE1       38.4960  121.8860  190.9550 N.ar   99  TRP99      -0.2442
     10  CE2       37.4700  122.7730  190.8410 C.ar   99  TRP99       0.0810
     11  CE3       36.1350  123.7360  189.1070 C.ar   99  TRP99       0.0012
     12  CZ2       36.6920  123.3730  191.8220 C.ar   99  TRP99       0.0191
     13  CZ3       35.3890  124.3500  190.0760 C.ar   99  TRP99       0.0001
     14  CH2       35.6680  124.1580  191.4270 C.ar   99  TRP99       0.0015
     15  N         38.7990  125.1550  187.7760 N.am  100  PHE100     -0.1976
     16  CA        38.1480  126.4330  187.8940 C.3   100  PHE100      0.1639
     17  C         38.6380  127.4280  186.8820 C.2   100  PHE100      0.2290
     18  O         37.8530  127.9920  186.1350 O.2   100  PHE100     -0.2864
     19  CB        38.2070  127.0370  189.3010 C.3   100  PHE100      0.0560
     20  CG        37.4520  128.3040  189.3860 C.ar  100  PHE100     -0.0200
     21  CD1       36.0550  128.2800  189.4100 C.ar  100  PHE100     -0.0042
     22  CD2       38.0880  129.5170  189.2950 C.ar  100  PHE100     -0.0042
     23  CE1       35.3290  129.4500  189.4090 C.ar  100  PHE100     -0.0003
     24  CE2       37.3670  130.7080  189.3110 C.ar  100  PHE100     -0.0003
     25  CZ        35.9900  130.6740  189.3500 C.ar  100  PHE100     -0.0000
     26  N         37.8440  126.4540  183.1210 N.3   103  VAL103     -0.1231
     27  CA        36.4510  126.6410  182.7270 C.3   103  VAL103      0.1692
     28  C         36.1080  128.1160  182.7240 C.2   103  VAL103      0.2592
     29  O         35.4450  128.6320  181.8210 O.2   103  VAL103     -0.2718
     30  CB        35.4840  125.8730  183.6480 C.3   103  VAL103      0.0266
     31  CG1       34.0440  126.1900  183.2820 C.3   103  VAL103      0.0020
     32  CG2       35.7110  124.3680  183.5590 C.3   103  VAL103      0.0020
     33  N         36.5180  128.8000  183.7620 N.am  104  ASN104     -0.1974
     34  CA        36.1360  130.2050  183.9350 C.3   104  ASN104      0.1688
     35  C         36.7020  131.0750  182.8420 C.2   104  ASN104      0.2292
     36  O         36.0320  131.9640  182.2950 O.2   104  ASN104     -0.2864
     37  CB        36.5930  130.7070  185.2880 C.3   104  ASN104      0.1181
     38  CG        36.0220  132.0280  185.6070 C.2   104  ASN104      0.2629
     39  OD1       36.7390  133.0230  185.7890 O.2   104  ASN104     -0.2716
     40  ND2       34.7500  132.0650  185.6860 N.am  104  ASN104     -0.0877
     41  N         34.9900  130.1700  179.3700 N.3   107  LEU107     -0.1231
     42  CA        33.6730  130.7660  179.2280 C.3   107  LEU107      0.1693
     43  C         33.8000  132.2740  179.0600 C.2   107  LEU107      0.2592
     44  O         33.0630  132.8740  178.3180 O.2   107  LEU107     -0.2718
     45  CB        32.7730  130.3870  180.3890 C.3   107  LEU107      0.0284
     46  CG        32.3750  128.9200  180.4400 C.3   107  LEU107      0.0019
     47  CD1       31.5110  128.6830  181.6480 C.3   107  LEU107      0.0001
     48  CD2       31.6030  128.5030  179.2000 C.3   107  LEU107      0.0001
     49  N         34.7830  132.8810  179.6960 N.am  108  ASN108     -0.1974
     50  CA        35.0540  134.3180  179.4430 C.3   108  ASN108      0.1688
     51  C         35.4730  134.5900  177.9930 C.2   108  ASN108      0.2292
     52  O         35.0390  135.5590  177.3910 O.2   108  ASN108     -0.2864
     53  CB        36.0750  134.8770  180.4190 C.3   108  ASN108      0.1181
     54  CG        35.4230  135.4090  181.6500 C.2   108  ASN108      0.2629
     55  OD1       34.9650  136.5690  181.6670 O.2   108  ASN108     -0.2716
     56  ND2       35.3110  134.5830  182.6780 N.am  108  ASN108     -0.0877
     57  N         32.8980  119.4190  184.7650 N.3   149  ALA149     -0.1245
     58  CA        32.8020  120.8540  185.0680 C.3   149  ALA149      0.1562
     59  C         32.7180  121.7060  183.7960 C.2   149  ALA149      0.2260
     60  O         31.8790  122.6050  183.6830 O.2   149  ALA149     -0.2867
     61  CB        33.9830  121.2780  185.9030 C.3   149  ALA149      0.0290
     62  N         29.2490  121.1030  182.0800 N.3   152  ALA152     -0.1231
     63  CA        28.1880  121.7580  182.8330 C.3   152  ALA152      0.1694
     64  C         28.1990  123.2940  182.5920 C.2   152  ALA152      0.2592
     65  O         27.1750  123.8820  182.3610 O.2   152  ALA152     -0.2718
     66  CB        28.3490  121.4960  184.3240 C.3   152  ALA152      0.0304
     67  N         29.3650  123.8930  182.5860 N.am  153  GLY153     -0.1957
     68  CA        29.4910  125.3290  182.2530 C.3   153  GLY153      0.1869
     69  C         29.1170  125.6150  180.8000 C.2   153  GLY153      0.2309
     70  O         28.4360  126.5580  180.5200 O.2   153  GLY153     -0.2863
     71  N         25.1560  125.3130  180.4360 N.3   156  GLY156     -0.1210
     72  CA        24.4720  126.4500  181.0270 C.3   156  GLY156      0.1956
     73  C         24.7180  127.7450  180.2790 C.2   156  GLY156      0.2611
     74  O         23.8090  128.5390  180.0690 O.2   156  GLY156     -0.2717
     75  N         25.9500  127.9880  179.8730 N.am  157  PHE157     -0.1976
     76  CA        26.2570  129.1720  179.1290 C.3   157  PHE157      0.1639
     77  C         25.5180  129.2430  177.7960 C.2   157  PHE157      0.2290
     78  O         24.9660  130.2630  177.4010 O.2   157  PHE157     -0.2864
     79  CB        27.7930  129.1950  178.8680 C.3   157  PHE157      0.0560
     80  CG        28.2530  130.3800  178.0290 C.ar  157  PHE157     -0.0200
     81  CD1       28.2470  130.3010  176.6370 C.ar  157  PHE157     -0.0042
     82  CD2       28.6640  131.5770  178.6180 C.ar  157  PHE157     -0.0042
     83  CE1       28.6200  131.3630  175.8560 C.ar  157  PHE157     -0.0003
     84  CE2       29.0480  132.6490  177.8250 C.ar  157  PHE157     -0.0003
     85  CZ        29.0360  132.5280  176.4230 C.ar  157  PHE157     -0.0000
     86  N         21.8420  129.9900  178.2070 N.3   160  ALA160     -0.1245
     87  CA        21.6180  131.3820  178.5790 C.3   160  ALA160      0.1562
     88  C         21.7980  132.3380  177.3950 C.2   160  ALA160      0.2260
     89  O         20.9310  133.1100  177.1090 O.2   160  ALA160     -0.2867
     90  CB        22.5350  131.7760  179.7080 C.3   160  ALA160      0.0290
@<TRIPOS>BOND
     1    83    85   ar
     2    83    81   ar
     3    85    84   ar
     4    81    80   ar
     5    89    88    2
     6    52    51    2
     7    88    87    1
     8    78    77    2
     9    77    76    1
    10    84    82   ar
    11    51    50    1
    12    80    82   ar
    13    80    79    1
    14    86    87    1
    15    44    43    2
    16    87    90    1
    17    79    76    1
    18    43    42    1
    19    43    49   am
    20    76    75    1
    21    48    46    1
    22    42    41    1
    23    42    45    1
    24    50    49    1
    25    50    53    1
    26    75    73   am
    27    74    73    2
    28    73    72    1
    29    45    46    1
    30    53    54    1
    31    71    72    1
    32    46    47    1
    33    70    69    2
    34    69    68    1
    35    54    55    2
    36    54    56   am
    37    29    28    2
    38    62    63    1
    39    68    67    1
    40    36    35    2
    41    65    64    2
    42    67    64   am
    43    64    63    1
    44    28    27    1
    45    28    33   am
    46    27    26    1
    47    27    30    1
    48    63    66    1
    49    35    34    1
    50    31    30    1
    51    32    30    1
    52    60    59    2
    53    33    34    1
    54    59    58    1
    55    34    37    1
    56    57    58    1
    57    58    61    1
    58    37    38    1
    59    38    40   am
    60    38    39    2
    61     4     3    2
    62    18    17    2
    63     2     3    1
    64     2     5    1
    65     2     1    1
    66     3    15   am
    67    17    16    1
    68     5     6    1
    69    15    16    1
    70    16    19    1
    71     6     8   ar
    72     6     7   ar
    73    11     8   ar
    74    11    13   ar
    75    22    24   ar
    76    22    20   ar
    77    19    20    1
    78    24    25   ar
    79    25    23   ar
    80    20    21   ar
    81    23    21   ar
    82     8    10   ar
    83     7     9   ar
    84    13    14   ar
    85    10     9   ar
    86    10    12   ar
    87    14    12   ar
