@<TRIPOS>MOLECULE
tmp/4bo3B00.pdb
 82 79 0 0 0
SMALL
GASTEIGER

@<TRIPOS>ATOM
      1  N          2.9910    0.7240  -35.2910 N.3    92  TRP92      -0.1227
      2  CA         1.7110    0.7610  -34.5400 C.3    92  TRP92       0.1737
      3  C          0.9730   -0.5640  -34.5090 C.2    92  TRP92       0.2595
      4  O          0.0990   -0.7710  -33.6610 O.2    92  TRP92      -0.2718
      5  CB         0.7590    1.8060  -35.1490 C.3    92  TRP92       0.0564
      6  CG         0.4600    1.5330  -36.5990 C.ar   92  TRP92       0.0003
      7  CD1        1.1780    1.9540  -37.6570 C.ar   92  TRP92       0.0946
      8  CD2       -0.6410    0.7840  -37.1290 C.ar   92  TRP92       0.0152
      9  NE1        0.6000    1.5320  -38.8160 N.ar   92  TRP92      -0.2442
     10  CE2       -0.5190    0.8070  -38.5250 C.ar   92  TRP92       0.0810
     11  CE3       -1.7250    0.1070  -36.5530 C.ar   92  TRP92       0.0012
     12  CZ2       -1.4140    0.1610  -39.3700 C.ar   92  TRP92       0.0191
     13  CZ3       -2.6420   -0.5130  -37.3840 C.ar   92  TRP92       0.0001
     14  CH2       -2.4730   -0.4870  -38.7860 C.ar   92  TRP92       0.0015
     15  N          1.2520   -1.4350  -35.4710 N.am   93  PHE93      -0.1976
     16  CA         0.3710   -2.5780  -35.6610 C.3    93  PHE93       0.1639
     17  C          0.6880   -3.5870  -34.6050 C.2    93  PHE93       0.2290
     18  O         -0.2200   -4.0780  -33.9310 O.2    93  PHE93      -0.2864
     19  CB         0.5070   -3.2060  -37.0510 C.3    93  PHE93       0.0560
     20  CG        -0.3700   -4.4060  -37.2380 C.ar   93  PHE93      -0.0200
     21  CD1       -1.7160   -4.2570  -37.4540 C.ar   93  PHE93      -0.0042
     22  CD2        0.1490   -5.6830  -37.1610 C.ar   93  PHE93      -0.0042
     23  CE1       -2.5440   -5.3580  -37.6000 C.ar   93  PHE93      -0.0003
     24  CE2       -0.6600   -6.7910  -37.3230 C.ar   93  PHE93      -0.0003
     25  CZ        -2.0200   -6.6230  -37.5370 C.ar   93  PHE93      -0.0000
     26  N         -0.4080   -2.5110  -30.8110 N.3    96  VAL96      -0.1231
     27  CA        -1.8550   -2.5700  -30.5560 C.3    96  VAL96       0.1692
     28  C         -2.3440   -4.0090  -30.4400 C.2    96  VAL96       0.2592
     29  O         -3.0320   -4.3760  -29.5210 O.2    96  VAL96      -0.2718
     30  CB        -2.6140   -1.8300  -31.6690 C.3    96  VAL96       0.0266
     31  CG1       -4.1070   -2.0920  -31.6010 C.3    96  VAL96       0.0020
     32  CG2       -2.3280   -0.3410  -31.5340 C.3    96  VAL96       0.0020
     33  N         -1.9320   -4.8160  -31.3820 N.am   97  ASN97      -0.1974
     34  CA        -2.1820   -6.2410  -31.3580 C.3    97  ASN97       0.1688
     35  C         -1.6830   -6.9610  -30.1100 C.2    97  ASN97       0.2292
     36  O         -2.3220   -7.8960  -29.6130 O.2    97  ASN97      -0.2864
     37  CB        -1.3770   -6.8140  -32.5380 C.3    97  ASN97       0.1181
     38  CG        -1.8940   -8.1220  -33.0420 C.2    97  ASN97       0.2629
     39  OD1       -3.0980   -8.3840  -33.0030 O.2    97  ASN97      -0.2716
     40  ND2       -0.9940   -8.9360  -33.5910 N.am   97  ASN97      -0.0877
     41  N         -3.8840   -6.0230  -27.1580 N.3   100  LEU100     -0.1245
     42  CA        -5.1650   -6.6760  -27.1900 C.3   100  LEU100      0.1561
     43  C         -5.0550   -8.1380  -26.8320 C.2   100  LEU100      0.2260
     44  O         -5.9810   -8.6950  -26.2300 O.2   100  LEU100     -0.2867
     45  CB        -5.8610   -6.4870  -28.5450 C.3   100  LEU100      0.0270
     46  CG        -6.2200   -5.0420  -28.9100 C.3   100  LEU100      0.0019
     47  CD1       -6.8720   -5.0250  -30.2750 C.3   100  LEU100      0.0001
     48  CD2       -7.1270   -4.3520  -27.8930 C.3   100  LEU100      0.0001
     49  N         -5.2420    4.3300  -33.3520 N.3   138  ALA138     -0.1245
     50  CA        -5.3770    2.8780  -33.5700 C.3   138  ALA138      0.1562
     51  C         -5.6620    2.1370  -32.2630 C.2   138  ALA138      0.2260
     52  O         -6.4860    1.2340  -32.2200 O.2   138  ALA138     -0.2867
     53  CB        -4.1100    2.3270  -34.2060 C.3   138  ALA138      0.0290
     54  N         -9.2920    2.8240  -31.1390 N.3   141  ALA141     -0.1231
     55  CA       -10.2710    2.1020  -31.9360 C.3   141  ALA141      0.1694
     56  C        -10.2640    0.5990  -31.6230 C.2   141  ALA141      0.2592
     57  O        -11.3400   -0.0280  -31.5680 O.2   141  ALA141     -0.2718
     58  CB       -10.0290    2.3500  -33.4160 C.3   141  ALA141      0.0304
     59  N         -9.0730    0.0390  -31.3920 N.am  142  GLY142     -0.1957
     60  CA        -8.9510   -1.3440  -30.9760 C.3   142  GLY142      0.1869
     61  C         -9.5300   -1.5920  -29.5800 C.2   142  GLY142      0.2309
     62  O        -10.2410   -2.5830  -29.3460 O.2   142  GLY142     -0.2863
     63  N        -13.5580   -1.3410  -29.7620 N.3   145  GLY145     -0.1210
     64  CA       -14.1290   -2.4840  -30.4490 C.3   145  GLY145      0.1956
     65  C        -13.9960   -3.7290  -29.6130 C.2   145  GLY145      0.2611
     66  O        -14.9240   -4.5010  -29.4940 O.2   145  GLY145     -0.2717
     67  N        -12.8380   -3.9000  -29.0140 N.am  146  PHE146     -0.1976
     68  CA       -12.5950   -5.0450  -28.1680 C.3   146  PHE146      0.1639
     69  C        -13.5370   -5.0810  -27.0070 C.2   146  PHE146      0.2290
     70  O        -14.0480   -6.1220  -26.6480 O.2   146  PHE146     -0.2864
     71  CB       -11.1670   -4.9760  -27.6320 C.3   146  PHE146      0.0560
     72  CG       -10.8400   -6.0640  -26.6950 C.ar  146  PHE146     -0.0200
     73  CD1      -10.4290   -7.2840  -27.1580 C.ar  146  PHE146     -0.0042
     74  CD2      -10.9770   -5.8750  -25.3560 C.ar  146  PHE146     -0.0042
     75  CE1      -10.1350   -8.3100  -26.2890 C.ar  146  PHE146     -0.0003
     76  CE2      -10.6950   -6.8890  -24.4780 C.ar  146  PHE146     -0.0003
     77  CZ       -10.2600   -8.1090  -24.9410 C.ar  146  PHE146     -0.0000
     78  N        -17.0920   -5.8880  -28.0590 N.3   149  ALA149     -0.1245
     79  CA       -17.2510   -7.2940  -28.4610 C.3   149  ALA149      0.1562
     80  C        -17.2950   -8.2000  -27.2640 C.2   149  ALA149      0.2260
     81  O        -18.1410   -9.0900  -27.1710 O.2   149  ALA149     -0.2867
     82  CB       -16.1370   -7.7090  -29.4100 C.3   149  ALA149      0.0290
@<TRIPOS>BOND
     1    12    14   ar
     2    12    10   ar
     3     9    10   ar
     4     9     7   ar
     5    14    13   ar
     6    10     8   ar
     7     7     6   ar
     8    23    25   ar
     9    23    21   ar
    10    25    24   ar
    11    21    20   ar
    12    13    11   ar
    13    24    22   ar
    14    20    22   ar
    15    20    19    1
    16     8     6   ar
    17     8    11   ar
    18    19    16    1
    19     6     5    1
    20    16    15    1
    21    16    17    1
    22    15     3   am
    23     1     2    1
    24     5     2    1
    25    17    18    2
    26     2     3    1
    27     3     4    2
    28    53    50    1
    29    40    38   am
    30    50    49    1
    31    50    51    1
    32    58    55    1
    33    38    39    2
    34    38    37    1
    35    37    34    1
    36    51    52    2
    37    55    56    1
    38    55    54    1
    39    30    31    1
    40    30    32    1
    41    30    27    1
    42    56    57    2
    43    56    59   am
    44    59    60    1
    45    33    34    1
    46    33    28   am
    47    34    35    1
    48    60    61    1
    49    26    27    1
    50    27    28    1
    51    64    63    1
    52    64    65    1
    53    28    29    2
    54    47    46    1
    55    35    36    2
    56    65    66    2
    57    65    67   am
    58    61    62    2
    59    82    79    1
    60    67    68    1
    61    46    45    1
    62    46    48    1
    63    45    42    1
    64    79    78    1
    65    79    80    1
    66    68    71    1
    67    68    69    1
    68    71    72    1
    69    80    81    2
    70    42    41    1
    71    42    43    1
    72    73    72   ar
    73    73    75   ar
    74    69    70    2
    75    43    44    2
    76    72    74   ar
    77    75    77   ar
    78    74    76   ar
    79    77    76   ar
