@<TRIPOS>MOLECULE
tmp/4bo4C00.pdb
 90 87 0 0 0
SMALL
GASTEIGER

@<TRIPOS>ATOM
      1  N        -39.1610  -15.8170   37.5310 N.3   119  TRP119     -0.1227
      2  CA       -37.8780  -15.7850   36.8180 C.3   119  TRP119      0.1737
      3  C        -37.2070  -17.1590   36.8000 C.2   119  TRP119      0.2595
      4  O        -36.6390  -17.5630   35.7760 O.2   119  TRP119     -0.2718
      5  CB       -36.9160  -14.7590   37.4210 C.3   119  TRP119      0.0564
      6  CG       -36.6750  -14.9820   38.8820 C.ar  119  TRP119      0.0003
      7  CD1      -37.4460  -14.5410   39.9170 C.ar  119  TRP119      0.0946
      8  CD2      -35.5830  -15.6950   39.4650 C.ar  119  TRP119      0.0152
      9  NE1      -36.9160  -14.9500   41.1030 N.ar  119  TRP119     -0.2442
     10  CE2      -35.7640  -15.6530   40.8600 C.ar  119  TRP119      0.0810
     11  CE3      -34.4730  -16.3630   38.9490 C.ar  119  TRP119      0.0012
     12  CZ2      -34.8820  -16.2460   41.7380 C.ar  119  TRP119      0.0191
     13  CZ3      -33.6040  -16.9530   39.8300 C.ar  119  TRP119      0.0001
     14  CH2      -33.8110  -16.8950   41.2030 C.ar  119  TRP119      0.0015
     15  N        -37.2520  -17.8740   37.9200 N.am  120  PHE120     -0.1976
     16  CA       -36.5240  -19.1270   37.9780 C.3   120  PHE120      0.1639
     17  C        -37.0130  -20.1270   36.9710 C.2   120  PHE120      0.2290
     18  O        -36.2360  -20.6200   36.1670 O.2   120  PHE120     -0.2864
     19  CB       -36.5470  -19.8040   39.3230 C.3   120  PHE120      0.0560
     20  CG       -35.6840  -21.0140   39.3410 C.ar  120  PHE120     -0.0200
     21  CD1      -34.3040  -20.8790   39.4160 C.ar  120  PHE120     -0.0042
     22  CD2      -36.2330  -22.2910   39.1740 C.ar  120  PHE120     -0.0042
     23  CE1      -33.5030  -21.9950   39.4080 C.ar  120  PHE120     -0.0003
     24  CE2      -35.4220  -23.4170   39.1490 C.ar  120  PHE120     -0.0003
     25  CZ       -34.0600  -23.2690   39.2760 C.ar  120  PHE120     -0.0000
     26  N        -36.3860  -19.0030   33.1800 N.3   123  VAL123     -0.1231
     27  CA       -34.9890  -19.0560   32.7250 C.3   123  VAL123      0.1692
     28  C        -34.5100  -20.5060   32.6960 C.2   123  VAL123      0.2592
     29  O        -33.7930  -20.9210   31.7830 O.2   123  VAL123     -0.2718
     30  CB       -34.0750  -18.2100   33.6290 C.3   123  VAL123      0.0266
     31  CG1      -32.6060  -18.3670   33.2360 C.3   123  VAL123      0.0020
     32  CG2      -34.4800  -16.7520   33.5710 C.3   123  VAL123      0.0020
     33  N        -34.9200  -21.2830   33.6880 N.am  124  ASN124     -0.1974
     34  CA       -34.5050  -22.6820   33.7540 C.3   124  ASN124      0.1688
     35  C        -35.0640  -23.4760   32.6000 C.2   124  ASN124      0.2292
     36  O        -34.3740  -24.3110   32.0050 O.2   124  ASN124     -0.2864
     37  CB       -34.9440  -23.3130   35.0630 C.3   124  ASN124      0.1181
     38  CG       -34.1960  -24.6040   35.3660 C.2   124  ASN124      0.2629
     39  OD1      -34.8060  -25.5610   35.8120 O.2   124  ASN124     -0.2716
     40  ND2      -32.8790  -24.6250   35.1590 N.am  124  ASN124     -0.0877
     41  N        -33.2970  -22.4090   29.3070 N.3   127  LEU127     -0.1231
     42  CA       -31.9590  -22.9760   29.1620 C.3   127  LEU127      0.1693
     43  C        -31.9780  -24.4940   28.9800 C.2   127  LEU127      0.2592
     44  O        -31.1620  -25.0600   28.2780 O.2   127  LEU127     -0.2718
     45  CB       -31.1060  -22.5770   30.3530 C.3   127  LEU127      0.0284
     46  CG       -30.8090  -21.0770   30.4770 C.3   127  LEU127      0.0019
     47  CD1      -30.1140  -20.7910   31.7890 C.3   127  LEU127      0.0001
     48  CD2      -29.9280  -20.6160   29.3500 C.3   127  LEU127      0.0001
     49  N        -32.9400  -25.1640   29.5920 N.am  128  ASN128     -0.1974
     50  CA       -33.1550  -26.5720   29.2780 C.3   128  ASN128      0.1688
     51  C        -33.4880  -26.7830   27.7920 C.2   128  ASN128      0.2292
     52  O        -33.0420  -27.7610   27.2170 O.2   128  ASN128     -0.2864
     53  CB       -34.1980  -27.1830   30.2040 C.3   128  ASN128      0.1181
     54  CG       -33.5790  -27.7350   31.4830 C.2   128  ASN128      0.2629
     55  OD1      -33.2970  -28.9270   31.5670 O.2   128  ASN128     -0.2716
     56  ND2      -33.3810  -26.8810   32.4860 N.am  128  ASN128     -0.0877
     57  N        -31.4010  -11.8900   34.9440 N.3   167  ALA167     -0.1245
     58  CA       -31.1890  -13.3190   35.2310 C.3   167  ALA167      0.1562
     59  C        -31.0570  -14.1370   33.9340 C.2   167  ALA167      0.2260
     60  O        -30.2120  -15.0400   33.8400 O.2   167  ALA167     -0.2867
     61  CB       -32.3320  -13.8730   36.0480 C.3   167  ALA167      0.0290
     62  N        -27.6080  -13.4820   32.3330 N.3   170  ALA170     -0.1231
     63  CA       -26.5080  -14.1390   33.0450 C.3   170  ALA170      0.1694
     64  C        -26.5240  -15.6570   32.8130 C.2   170  ALA170      0.2592
     65  O        -25.4860  -16.2770   32.6600 O.2   170  ALA170     -0.2718
     66  CB       -26.6140  -13.8490   34.5210 C.3   170  ALA170      0.0304
     67  N        -27.7180  -16.2440   32.7750 N.am  171  GLY171     -0.1957
     68  CA       -27.8630  -17.6450   32.4330 C.3   171  GLY171      0.1869
     69  C        -27.3420  -17.9310   31.0370 C.2   171  GLY171      0.2309
     70  O        -26.6130  -18.8970   30.8060 O.2   171  GLY171     -0.2863
     71  N        -23.3390  -17.6840   30.8870 N.3   174  GLY174     -0.1210
     72  CA       -22.7280  -18.8560   31.5010 C.3   174  GLY174      0.1956
     73  C        -22.9820  -20.1120   30.6910 C.2   174  GLY174      0.2611
     74  O        -22.0770  -20.8660   30.4190 O.2   174  GLY174     -0.2717
     75  N        -24.2210  -20.2960   30.2370 N.am  175  PHE175     -0.1976
     76  CA       -24.5480  -21.4420   29.4080 C.3   175  PHE175      0.1639
     77  C        -23.7140  -21.4730   28.1450 C.2   175  PHE175      0.2290
     78  O        -23.1160  -22.4890   27.8150 O.2   175  PHE175     -0.2864
     79  CB       -26.0170  -21.4370   29.0150 C.3   175  PHE175      0.0560
     80  CG       -26.4020  -22.5940   28.1520 C.ar  175  PHE175     -0.0200
     81  CD1      -26.7700  -23.8030   28.7160 C.ar  175  PHE175     -0.0042
     82  CD2      -26.3940  -22.4720   26.7660 C.ar  175  PHE175     -0.0042
     83  CE1      -27.1270  -24.8770   27.9190 C.ar  175  PHE175     -0.0003
     84  CE2      -26.7660  -23.5290   25.9530 C.ar  175  PHE175     -0.0003
     85  CZ       -27.1290  -24.7370   26.5280 C.ar  175  PHE175     -0.0000
     86  N        -20.0250  -22.3050   28.6810 N.3   178  ALA178     -0.1245
     87  CA       -19.7610  -23.6810   29.0680 C.3   178  ALA178      0.1562
     88  C        -19.8900  -24.5940   27.8560 C.2   178  ALA178      0.2260
     89  O        -19.0170  -25.4350   27.6150 O.2   178  ALA178     -0.2867
     90  CB       -20.7250  -24.1330   30.1720 C.3   178  ALA178      0.0290
@<TRIPOS>BOND
     1    84    85   ar
     2    84    82   ar
     3    85    83   ar
     4    82    80   ar
     5    52    51    2
     6    89    88    2
     7    51    50    1
     8    78    77    2
     9    88    87    1
    10    83    81   ar
    11    77    76    1
    12    80    81   ar
    13    80    79    1
    14    44    43    2
    15    86    87    1
    16    43    42    1
    17    43    49   am
    18    79    76    1
    19    87    90    1
    20    42    41    1
    21    42    45    1
    22    50    49    1
    23    50    53    1
    24    48    46    1
    25    76    75    1
    26    53    54    1
    27    75    73   am
    28    45    46    1
    29    74    73    2
    30    46    47    1
    31    73    72    1
    32    70    69    2
    33    71    72    1
    34    69    68    1
    35    54    55    2
    36    54    56   am
    37    29    28    2
    38    36    35    2
    39    62    63    1
    40    68    67    1
    41    35    34    1
    42    65    64    2
    43    28    27    1
    44    28    33   am
    45    27    26    1
    46    27    30    1
    47    67    64   am
    48    64    63    1
    49    63    66    1
    50    31    30    1
    51    32    30    1
    52    33    34    1
    53    34    37    1
    54    60    59    2
    55    59    58    1
    56    57    58    1
    57    37    38    1
    58    40    38   am
    59    58    61    1
    60    38    39    2
    61     4     3    2
    62    18    17    2
    63     3     2    1
    64     3    15   am
    65     2     5    1
    66     2     1    1
    67    17    16    1
    68     5     6    1
    69    15    16    1
    70    16    19    1
    71     6     8   ar
    72     6     7   ar
    73    11     8   ar
    74    11    13   ar
    75    24    22   ar
    76    24    25   ar
    77    22    20   ar
    78    25    23   ar
    79    19    20    1
    80    20    21   ar
    81    23    21   ar
    82     8    10   ar
    83    13    14   ar
    84     7     9   ar
    85    10     9   ar
    86    10    12   ar
    87    14    12   ar
