@<TRIPOS>MOLECULE
tmp/4bo5B00.pdb
 82 79 0 0 0
SMALL
GASTEIGER

@<TRIPOS>ATOM
      1  N        -21.0150  -28.9460   32.3970 N.3    95  TRP95      -0.1227
      2  CA       -21.2140  -27.6460   32.9720 C.3    95  TRP95       0.1737
      3  C        -22.6710  -27.2560   33.0760 C.2    95  TRP95       0.2595
      4  O        -23.0930  -26.7150   34.0940 O.2    95  TRP95      -0.2718
      5  CB       -20.4350  -26.5880   32.1900 C.3    95  TRP95       0.0564
      6  CG       -20.7920  -26.4620   30.7260 C.ar   95  TRP95       0.0003
      7  CD1      -20.2600  -27.1700   29.7230 C.ar   95  TRP95       0.0946
      8  CD2      -21.7690  -25.5900   30.1310 C.ar   95  TRP95       0.0152
      9  NE1      -20.8740  -26.8440   28.5320 N.ar   95  TRP95      -0.2442
     10  CE2      -21.7910  -25.8610   28.7640 C.ar   95  TRP95       0.0810
     11  CE3      -22.6330  -24.6360   30.6320 C.ar   95  TRP95       0.0012
     12  CZ2      -22.6250  -25.1970   27.8810 C.ar   95  TRP95       0.0191
     13  CZ3      -23.4620  -23.9680   29.7670 C.ar   95  TRP95       0.0001
     14  CH2      -23.4610  -24.2550   28.4040 C.ar   95  TRP95       0.0015
     15  N        -23.4610  -27.5550   32.0570 N.am   96  PHE96      -0.1976
     16  CA       -24.8250  -27.0880   32.0360 C.3    96  PHE96       0.1639
     17  C        -25.6560  -27.7440   33.1150 C.2    96  PHE96       0.2290
     18  O        -26.3820  -27.0690   33.8360 O.2    96  PHE96      -0.2864
     19  CB       -25.4760  -27.2900   30.6670 C.3    96  PHE96       0.0560
     20  CG       -26.8620  -26.7270   30.5890 C.ar   96  PHE96      -0.0200
     21  CD1      -27.0560  -25.3890   30.3250 C.ar   96  PHE96      -0.0042
     22  CD2      -27.9620  -27.5150   30.8290 C.ar   96  PHE96      -0.0042
     23  CE1      -28.3320  -24.8480   30.2640 C.ar   96  PHE96      -0.0003
     24  CE2      -29.2270  -26.9790   30.7900 C.ar   96  PHE96      -0.0003
     25  CZ       -29.4140  -25.6410   30.5150 C.ar   96  PHE96      -0.0000
     26  N        -24.5520  -26.4420   36.8180 N.3    99  VAL99      -0.1231
     27  CA       -24.9600  -25.1000   37.1510 C.3    99  VAL99       0.1692
     28  C        -26.4560  -25.0880   37.3260 C.2    99  VAL99       0.2592
     29  O        -26.9760  -24.5750   38.2990 O.2    99  VAL99      -0.2718
     30  CB       -24.5440  -24.1220   36.0510 C.3    99  VAL99       0.0266
     31  CG1      -25.0990  -22.7390   36.3090 C.3    99  VAL99       0.0020
     32  CG2      -23.0300  -24.0470   35.9570 C.3    99  VAL99       0.0020
     33  N        -27.1610  -25.6700   36.3730 N.am  100  ASN100     -0.1974
     34  CA       -28.6160  -25.7540   36.4580 C.3   100  ASN100      0.1688
     35  C        -29.1100  -26.3400   37.7900 C.2   100  ASN100      0.2292
     36  O        -29.9730  -25.7600   38.4630 O.2   100  ASN100     -0.2864
     37  CB       -29.1440  -26.5980   35.2990 C.3   100  ASN100      0.1181
     38  CG       -30.5900  -26.3240   35.0090 C.2   100  ASN100      0.2629
     39  OD1      -30.9590  -25.2110   34.6160 O.2   100  ASN100     -0.2716
     40  ND2      -31.4220  -27.3290   35.1930 N.am  100  ASN100     -0.0877
     41  N        -28.3290  -23.9400   40.7950 N.3   103  LEU103     -0.1245
     42  CA       -29.2320  -22.8200   40.8810 C.3   103  LEU103      0.1561
     43  C        -30.6580  -23.2140   41.3180 C.2   103  LEU103      0.2260
     44  O        -31.3100  -22.4850   42.0680 O.2   103  LEU103     -0.2867
     45  CB       -29.2490  -22.0250   39.5750 C.3   103  LEU103      0.0270
     46  CG       -27.8960  -21.4240   39.1880 C.3   103  LEU103      0.0019
     47  CD1      -28.0650  -20.4790   38.0080 C.3   103  LEU103      0.0001
     48  CD2      -27.2050  -20.7070   40.3230 C.3   103  LEU103      0.0001
     49  N        -18.3850  -21.1720   34.5440 N.3   145  ALA145     -0.1245
     50  CA       -19.8390  -21.2230   34.3830 C.3   145  ALA145      0.1562
     51  C        -20.5710  -21.1430   35.7290 C.2   145  ALA145      0.2260
     52  O        -21.5400  -20.3800   35.8820 O.2   145  ALA145     -0.2867
     53  CB       -20.2300  -22.4780   33.6450 C.3   145  ALA145      0.0290
     54  N        -20.3800  -17.6830   37.0760 N.3   148  ALA148     -0.1231
     55  CA       -21.2120  -16.7040   36.3710 C.3   148  ALA148      0.1694
     56  C        -22.6780  -16.8740   36.7960 C.2   148  ALA148      0.2592
     57  O        -23.3860  -15.8970   37.0620 O.2   148  ALA148     -0.2718
     58  CB       -21.0450  -16.8440   34.8700 C.3   148  ALA148      0.0304
     59  N        -23.1100  -18.1150   36.8920 N.am  149  GLY149     -0.1957
     60  CA       -24.4420  -18.4310   37.3840 C.3   149  GLY149      0.1869
     61  C        -24.6860  -17.9550   38.7990 C.2   149  GLY149      0.2309
     62  O        -25.7290  -17.3710   39.1160 O.2   149  GLY149     -0.2863
     63  N        -24.9730  -13.9430   38.7140 N.3   152  GLY152     -0.1210
     64  CA       -26.2380  -13.4410   38.1590 C.3   152  GLY152      0.1956
     65  C        -27.4080  -13.7370   39.0690 C.2   152  GLY152      0.2611
     66  O        -28.2610  -12.8740   39.3290 O.2   152  GLY152     -0.2717
     67  N        -27.4500  -14.9640   39.5590 N.am  153  PHE153     -0.1976
     68  CA       -28.4940  -15.4050   40.4810 C.3   153  PHE153      0.1639
     69  C        -28.5160  -14.5680   41.7450 C.2   153  PHE153      0.2290
     70  O        -29.5420  -14.0480   42.1500 O.2   153  PHE153     -0.2864
     71  CB       -28.2750  -16.8740   40.8720 C.3   153  PHE153      0.0560
     72  CG       -29.3030  -17.3960   41.8310 C.ar  153  PHE153     -0.0200
     73  CD1      -30.5280  -17.8600   41.3770 C.ar  153  PHE153     -0.0042
     74  CD2      -29.0840  -17.3250   43.2010 C.ar  153  PHE153     -0.0042
     75  CE1      -31.4920  -18.3000   42.2710 C.ar  153  PHE153     -0.0003
     76  CE2      -30.0510  -17.7480   44.1040 C.ar  153  PHE153     -0.0003
     77  CZ       -31.2520  -18.2550   43.6420 C.ar  153  PHE153     -0.0000
     78  N        -29.7870  -11.0830   41.1410 N.3   156  ALA156     -0.1245
     79  CA       -31.2260  -10.9740   40.8560 C.3   156  ALA156      0.1562
     80  C        -32.0660  -11.1770   42.1110 C.2   156  ALA156      0.2260
     81  O        -33.0380  -10.4360   42.3630 O.2   156  ALA156     -0.2867
     82  CB       -31.6390  -11.9520   39.7630 C.3   156  ALA156      0.0290
@<TRIPOS>BOND
     1    12    14   ar
     2    12    10   ar
     3    14    13   ar
     4     9    10   ar
     5     9     7   ar
     6    10     8   ar
     7     7     6   ar
     8    13    11   ar
     9     8    11   ar
    10     8     6   ar
    11    23    21   ar
    12    23    25   ar
    13    21    20   ar
    14    25    24   ar
    15    20    19    1
    16    20    22   ar
    17    19    16    1
    18     6     5    1
    19    24    22   ar
    20    16    15    1
    21    16    17    1
    22    15     3   am
    23     5     2    1
    24     1     2    1
    25     2     3    1
    26     3     4    2
    27    17    18    2
    28    53    50    1
    29    50    49    1
    30    50    51    1
    31    39    38    2
    32    58    55    1
    33    38    40   am
    34    38    37    1
    35    37    34    1
    36    51    52    2
    37    32    30    1
    38    30    31    1
    39    30    27    1
    40    55    56    1
    41    55    54    1
    42    33    34    1
    43    33    28   am
    44    34    35    1
    45    56    59   am
    46    56    57    2
    47    26    27    1
    48    59    60    1
    49    27    28    1
    50    28    29    2
    51    60    61    1
    52    35    36    2
    53    47    46    1
    54    64    63    1
    55    64    65    1
    56    61    62    2
    57    65    66    2
    58    65    67   am
    59    46    45    1
    60    46    48    1
    61    67    68    1
    62    45    42    1
    63    82    79    1
    64    68    71    1
    65    68    69    1
    66    41    42    1
    67    79    78    1
    68    79    80    1
    69    71    72    1
    70    42    43    1
    71    43    44    2
    72    73    72   ar
    73    73    75   ar
    74    69    70    2
    75    72    74   ar
    76    80    81    2
    77    75    77   ar
    78    74    76   ar
    79    77    76   ar
