@<TRIPOS>MOLECULE
tmp/4bo6B00.pdb
 90 87 0 0 0
SMALL
GASTEIGER

@<TRIPOS>ATOM
      1  N          3.7080    3.8620  -35.4090 N.3   101  TRP101     -0.1227
      2  CA         2.3220    4.1900  -35.0320 C.3   101  TRP101      0.1737
      3  C          1.4410    2.9500  -34.8380 C.2   101  TRP101      0.2595
      4  O          0.7020    2.8980  -33.8810 O.2   101  TRP101     -0.2718
      5  CB         1.6690    5.1380  -36.0590 C.3   101  TRP101      0.0564
      6  CG         1.6490    4.5960  -37.4490 C.ar  101  TRP101      0.0003
      7  CD1        2.6930    4.5670  -38.3310 C.ar  101  TRP101      0.0946
      8  CD2        0.5530    3.9690  -38.1110 C.ar  101  TRP101      0.0152
      9  NE1        2.3150    3.9610  -39.5110 N.ar  101  TRP101     -0.2442
     10  CE2        1.0040    3.5900  -39.4050 C.ar  101  TRP101      0.0810
     11  CE3       -0.7590    3.6740  -37.7410 C.ar  101  TRP101      0.0012
     12  CZ2        0.1820    2.9520  -40.3230 C.ar  101  TRP101      0.0191
     13  CZ3       -1.5770    3.0390  -38.6590 C.ar  101  TRP101      0.0001
     14  CH2       -1.1060    2.6910  -39.9360 C.ar  101  TRP101      0.0015
     15  N          1.5530    1.9580  -35.7350 N.am  102  PHE102     -0.1976
     16  CA         0.6850    0.7760  -35.7570 C.3   102  PHE102      0.1639
     17  C          1.0750   -0.2170  -34.7030 C.2   102  PHE102      0.2290
     18  O          0.2150   -0.7360  -34.0130 O.2   102  PHE102     -0.2864
     19  CB         0.7280    0.1190  -37.1410 C.3   102  PHE102      0.0560
     20  CG         0.0070   -1.2080  -37.2340 C.ar  102  PHE102     -0.0200
     21  CD1        0.6820   -2.3940  -36.9880 C.ar  102  PHE102     -0.0042
     22  CD2       -1.3310   -1.2780  -37.6160 C.ar  102  PHE102     -0.0042
     23  CE1        0.0300   -3.6090  -37.0910 C.ar  102  PHE102     -0.0003
     24  CE2       -1.9770   -2.4950  -37.7280 C.ar  102  PHE102     -0.0003
     25  CZ        -1.2960   -3.6610  -37.4620 C.ar  102  PHE102     -0.0000
     26  N         -0.1040    0.7870  -30.9990 N.3   105  VAL105     -0.1231
     27  CA        -1.5400    0.6150  -30.7840 C.3   105  VAL105      0.1692
     28  C         -1.9030   -0.8730  -30.8110 C.2   105  VAL105      0.2592
     29  O         -2.6520   -1.3340  -29.9530 O.2   105  VAL105     -0.2718
     30  CB        -2.3880    1.3250  -31.8570 C.3   105  VAL105      0.0266
     31  CG1       -3.8720    1.1270  -31.5770 C.3   105  VAL105      0.0020
     32  CG2       -2.0740    2.8110  -31.9300 C.3   105  VAL105      0.0020
     33  N         -1.3710   -1.6070  -31.7900 N.am  106  ASN106     -0.1974
     34  CA        -1.6530   -3.0320  -31.9470 C.3   106  ASN106      0.1688
     35  C         -1.1440   -3.8630  -30.7970 C.2   106  ASN106      0.2292
     36  O         -1.8240   -4.7550  -30.3230 O.2   106  ASN106     -0.2864
     37  CB        -1.0350   -3.5620  -33.2500 C.3   106  ASN106      0.1181
     38  CG        -1.2970   -5.0450  -33.4650 C.2   106  ASN106      0.2629
     39  OD1       -2.4400   -5.4750  -33.6380 O.2   106  ASN106     -0.2716
     40  ND2       -0.2440   -5.8210  -33.4810 N.am  106  ASN106     -0.0877
     41  N         -3.4240   -3.0670  -27.5960 N.3   109  LEU109     -0.1231
     42  CA        -4.7520   -3.6860  -27.6330 C.3   109  LEU109      0.1693
     43  C         -4.6960   -5.1970  -27.4330 C.2   109  LEU109      0.2592
     44  O         -5.5820   -5.7650  -26.7930 O.2   109  LEU109     -0.2718
     45  CB        -5.4770   -3.3480  -28.9310 C.3   109  LEU109      0.0284
     46  CG        -5.8490   -1.8710  -29.0580 C.3   109  LEU109      0.0019
     47  CD1       -6.2920   -1.5080  -30.4550 C.3   109  LEU109      0.0001
     48  CD2       -6.9480   -1.5470  -28.0850 C.3   109  LEU109      0.0001
     49  N         -3.6410   -5.8370  -27.9440 N.am  110  ASN110     -0.1974
     50  CA        -3.3810   -7.2340  -27.6160 C.3   110  ASN110      0.1688
     51  C         -3.1380   -7.4740  -26.1410 C.2   110  ASN110      0.2292
     52  O         -3.5470   -8.4960  -25.6070 O.2   110  ASN110     -0.2864
     53  CB        -2.1950   -7.7630  -28.4070 C.3   110  ASN110      0.1181
     54  CG        -2.5970   -8.2440  -29.7750 C.2   110  ASN110      0.2629
     55  OD1       -3.1360   -9.3370  -29.9290 O.2   110  ASN110     -0.2716
     56  ND2       -2.3630   -7.4210  -30.7690 N.am  110  ASN110     -0.0877
     57  N         -5.0030    7.9210  -32.9760 N.3   146  ALA146     -0.1245
     58  CA        -5.1160    6.5500  -33.3600 C.3   146  ALA146      0.1562
     59  C         -5.3320    5.6910  -32.1300 C.2   146  ALA146      0.2260
     60  O         -6.2050    4.8270  -32.1270 O.2   146  ALA146     -0.2867
     61  CB        -3.8580    6.1170  -34.1120 C.3   146  ALA146      0.0290
     62  N         -8.7430    6.0190  -31.0760 N.3   149  ALA149     -0.1231
     63  CA        -9.6880    5.3400  -31.9700 C.3   149  ALA149      0.1694
     64  C         -9.7390    3.8470  -31.7050 C.2   149  ALA149      0.2592
     65  O        -10.8030    3.2640  -31.7420 O.2   149  ALA149     -0.2718
     66  CB        -9.3050    5.6000  -33.4130 C.3   149  ALA149      0.0304
     67  N         -8.5800    3.2360  -31.4770 N.am  150  GLY150     -0.1957
     68  CA        -8.4830    1.8060  -31.2900 C.3   150  GLY150      0.1869
     69  C         -8.9930    1.3770  -29.9370 C.2   150  GLY150      0.2309
     70  O         -9.6780    0.3480  -29.8100 O.2   150  GLY150     -0.2863
     71  N        -12.9300    1.6910  -30.0300 N.3   153  GLY153     -0.1210
     72  CA       -13.5280    0.5630  -30.7350 C.3   153  GLY153      0.1956
     73  C        -13.4160   -0.7220  -29.9350 C.2   153  GLY153      0.2611
     74  O        -14.3800   -1.4620  -29.7810 O.2   153  GLY153     -0.2717
     75  N        -12.2350   -0.9510  -29.3950 N.am  154  PHE154     -0.1976
     76  CA       -11.9900   -2.1090  -28.5580 C.3   154  PHE154      0.1639
     77  C        -12.9240   -2.1790  -27.3650 C.2   154  PHE154      0.2290
     78  O        -13.5510   -3.2110  -27.1180 O.2   154  PHE154     -0.2864
     79  CB       -10.5740   -2.0890  -28.0400 C.3   154  PHE154      0.0560
     80  CG       -10.2710   -3.2310  -27.1470 C.ar  154  PHE154     -0.0200
     81  CD1       -9.9830   -4.4710  -27.6720 C.ar  154  PHE154     -0.0042
     82  CD2      -10.3010   -3.0860  -25.7790 C.ar  154  PHE154     -0.0042
     83  CE1       -9.7080   -5.5550  -26.8340 C.ar  154  PHE154     -0.0003
     84  CE2      -10.0420   -4.1540  -24.9420 C.ar  154  PHE154     -0.0003
     85  CZ        -9.7450   -5.3900  -25.4620 C.ar  154  PHE154     -0.0000
     86  N        -16.5560   -3.0050  -28.1190 N.3   157  ALA157     -0.1245
     87  CA       -16.8190   -4.3710  -28.5450 C.3   157  ALA157      0.1562
     88  C        -16.7960   -5.3090  -27.3480 C.2   157  ALA157      0.2260
     89  O        -17.6710   -6.1490  -27.2100 O.2   157  ALA157     -0.2867
     90  CB       -15.7890   -4.8130  -29.5690 C.3   157  ALA157      0.0290
@<TRIPOS>BOND
     1    12    14   ar
     2    12    10   ar
     3    14    13   ar
     4     9    10   ar
     5     9     7   ar
     6    10     8   ar
     7    13    11   ar
     8     7     6   ar
     9     8    11   ar
    10     8     6   ar
    11    24    22   ar
    12    24    25   ar
    13    22    20   ar
    14    25    23   ar
    15     6     5    1
    16    20    19    1
    17    20    21   ar
    18    19    16    1
    19    23    21   ar
    20     5     2    1
    21    16    15    1
    22    16    17    1
    23    15     3   am
    24     1     2    1
    25     2     3    1
    26     3     4    2
    27    17    18    2
    28    61    58    1
    29    39    38    2
    30    40    38   am
    31    38    37    1
    32    66    63    1
    33    58    57    1
    34    58    59    1
    35    37    34    1
    36    59    60    2
    37    63    64    1
    38    63    62    1
    39    34    33    1
    40    34    35    1
    41    32    30    1
    42    30    31    1
    43    30    27    1
    44    33    28   am
    45    65    64    2
    46    64    67   am
    47    67    68    1
    48    68    69    1
    49    26    27    1
    50    28    27    1
    51    28    29    2
    52    35    36    2
    53    56    54   am
    54    72    71    1
    55    72    73    1
    56    47    46    1
    57    69    70    2
    58    73    74    2
    59    73    75   am
    60    55    54    2
    61    54    53    1
    62    90    87    1
    63    75    76    1
    64    46    45    1
    65    46    48    1
    66    45    42    1
    67    76    79    1
    68    76    77    1
    69    87    86    1
    70    87    88    1
    71    53    50    1
    72    79    80    1
    73    49    50    1
    74    49    43   am
    75    81    80   ar
    76    81    83   ar
    77    42    41    1
    78    42    43    1
    79    50    51    1
    80    43    44    2
    81    77    78    2
    82    88    89    2
    83    80    82   ar
    84    83    85   ar
    85    51    52    2
    86    82    84   ar
    87    85    84   ar
