@<TRIPOS>MOLECULE
tmp/4bo7A00.pdb
 90 87 0 0 0
SMALL
GASTEIGER

@<TRIPOS>ATOM
      1  N        -14.1760  -14.1680  -32.3730 N.3    97  TRP97      -0.1227
      2  CA       -13.9600  -12.8300  -32.9340 C.3    97  TRP97       0.1737
      3  C        -12.5220  -12.3260  -32.8480 C.2    97  TRP97       0.2595
      4  O        -12.0070  -11.7270  -33.7860 O.2    97  TRP97      -0.2718
      5  CB       -14.9150  -11.7960  -32.3110 C.3    97  TRP97       0.0564
      6  CG       -14.8210  -11.6940  -30.8480 C.ar   97  TRP97       0.0003
      7  CD1      -15.4750  -12.4680  -29.9220 C.ar   97  TRP97       0.0946
      8  CD2      -14.0380  -10.7620  -30.1160 C.ar   97  TRP97       0.0152
      9  NE1      -15.1350  -12.0760  -28.6690 N.ar   97  TRP97      -0.2442
     10  CE2      -14.2460  -11.0300  -28.7570 C.ar   97  TRP97       0.0810
     11  CE3      -13.1580   -9.7400  -30.4750 C.ar   97  TRP97       0.0012
     12  CZ2      -13.6190  -10.3120  -27.7670 C.ar   97  TRP97       0.0191
     13  CZ3      -12.5480   -9.0190  -29.4820 C.ar   97  TRP97       0.0001
     14  CH2      -12.7750   -9.3080  -28.1500 C.ar   97  TRP97       0.0015
     15  N        -11.8970  -12.5100  -31.7040 N.am   98  PHE98      -0.1976
     16  CA       -10.5820  -11.9580  -31.5140 C.3    98  PHE98       0.1639
     17  C         -9.5870  -12.5820  -32.4770 C.2    98  PHE98       0.2290
     18  O         -8.8480  -11.8610  -33.1500 O.2    98  PHE98      -0.2864
     19  CB       -10.0990  -12.1450  -30.0800 C.3    98  PHE98       0.0560
     20  CG        -8.7850  -11.4850  -29.8150 C.ar   98  PHE98      -0.0200
     21  CD1       -8.7170  -10.1200  -29.6220 C.ar   98  PHE98      -0.0042
     22  CD2       -7.6080  -12.2170  -29.8270 C.ar   98  PHE98      -0.0042
     23  CE1       -7.5050   -9.5140  -29.4260 C.ar   98  PHE98      -0.0003
     24  CE2       -6.3860  -11.6060  -29.6260 C.ar   98  PHE98      -0.0003
     25  CZ        -6.3420  -10.2520  -29.4250 C.ar   98  PHE98      -0.0000
     26  N        -10.4320  -11.4120  -36.3900 N.3   101  VAL101     -0.1231
     27  CA       -10.0280  -10.0440  -36.7030 C.3   101  VAL101      0.1692
     28  C         -8.5090   -9.9330  -36.7790 C.2   101  VAL101      0.2592
     29  O         -7.9590   -9.3630  -37.7180 O.2   101  VAL101     -0.2718
     30  CB       -10.5720   -9.0660  -35.6540 C.3   101  VAL101      0.0266
     31  CG1       -9.9740   -7.6630  -35.8150 C.3   101  VAL101      0.0020
     32  CG2      -12.0900   -8.9950  -35.7660 C.3   101  VAL101      0.0020
     33  N         -7.8430  -10.5000  -35.7860 N.am  102  ASN102     -0.1974
     34  CA        -6.3810  -10.4890  -35.7170 C.3   102  ASN102      0.1688
     35  C         -5.7290  -11.0750  -36.9620 C.2   102  ASN102      0.2292
     36  O         -4.7600  -10.5310  -37.4890 O.2   102  ASN102     -0.2864
     37  CB        -5.9390  -11.2880  -34.5010 C.3   102  ASN102      0.1181
     38  CG        -4.6970  -10.7310  -33.8440 C.2   102  ASN102      0.2629
     39  OD1       -3.7420  -11.4590  -33.5310 O.2   102  ASN102     -0.2716
     40  ND2       -4.6930   -9.4160  -33.6410 N.am  102  ASN102     -0.0877
     41  N         -6.2260   -8.7140  -40.0790 N.3   105  LEU105     -0.1231
     42  CA        -5.4150   -7.5090  -40.0970 C.3   105  LEU105      0.1693
     43  C         -3.9770   -7.8890  -40.3600 C.2   105  LEU105      0.2592
     44  O         -3.2950   -7.1710  -41.0580 O.2   105  LEU105     -0.2718
     45  CB        -5.6040   -6.6710  -38.8290 C.3   105  LEU105      0.0284
     46  CG        -7.0330   -6.1670  -38.5940 C.3   105  LEU105      0.0019
     47  CD1       -7.0980   -5.4210  -37.2850 C.3   105  LEU105      0.0001
     48  CD2       -7.5710   -5.2760  -39.7070 C.3   105  LEU105      0.0001
     49  N         -3.5270   -9.0370  -39.8660 N.am  106  ASN106     -0.1974
     50  CA        -2.1990   -9.5100  -40.2290 C.3   106  ASN106      0.1688
     51  C         -2.0620   -9.7620  -41.7250 C.2   106  ASN106      0.2292
     52  O         -1.0370   -9.4410  -42.3130 O.2   106  ASN106     -0.2864
     53  CB        -1.7950  -10.7440  -39.4440 C.3   106  ASN106      0.1181
     54  CG        -1.3160  -10.4320  -38.0290 C.2   106  ASN106      0.2629
     55  OD1       -0.6550  -11.2140  -37.2760 O.2   106  ASN106     -0.2716
     56  ND2       -1.6600   -9.2360  -37.6540 N.am  106  ASN106     -0.0877
     57  N        -16.6520   -6.1210  -34.7000 N.3   147  ALA147     -0.1245
     58  CA       -15.2390   -6.1580  -34.3280 C.3   147  ALA147      0.1562
     59  C        -14.3730   -5.9990  -35.5550 C.2   147  ALA147      0.2260
     60  O        -13.4670   -5.1700  -35.5960 O.2   147  ALA147     -0.2867
     61  CB       -14.9230   -7.4550  -33.6190 C.3   147  ALA147      0.0290
     62  N        -14.6230   -2.3940  -36.9240 N.3   150  ALA150     -0.1231
     63  CA       -13.8800   -1.4220  -36.1320 C.3   150  ALA150      0.1694
     64  C        -12.3760   -1.5660  -36.3520 C.2   150  ALA150      0.2592
     65  O        -11.6490   -0.5750  -36.5060 O.2   150  ALA150     -0.2718
     66  CB       -14.2180   -1.5650  -34.6740 C.3   150  ALA150      0.0304
     67  N        -11.9090   -2.7990  -36.4230 N.am  151  GLY151     -0.1957
     68  CA       -10.4880   -3.0660  -36.6820 C.3   151  GLY151      0.1869
     69  C        -10.0560   -2.5900  -38.0650 C.2   151  GLY151      0.2309
     70  O         -9.0120   -1.9580  -38.2180 O.2   151  GLY151     -0.2863
     71  N         -9.8550    1.4630  -38.1630 N.3   154  GLY154     -0.1210
     72  CA        -8.7240    2.0440  -37.4880 C.3   154  GLY154      0.1956
     73  C         -7.4430    1.6690  -38.1930 C.2   154  GLY154      0.2611
     74  O         -6.5070    2.4700  -38.2840 O.2   154  GLY154     -0.2717
     75  N         -7.3840    0.4290  -38.6590 N.am  155  PHE155     -0.1976
     76  CA        -6.2620   -0.0280  -39.4590 C.3   155  PHE155      0.1639
     77  C         -6.1170    0.8370  -40.6850 C.2   155  PHE155      0.2290
     78  O         -5.0230    1.2890  -40.9850 O.2   155  PHE155     -0.2864
     79  CB        -6.4480   -1.4570  -39.9010 C.3   155  PHE155      0.0560
     80  CG        -5.3360   -1.9550  -40.7570 C.ar  155  PHE155     -0.0200
     81  CD1       -4.2200   -2.5500  -40.1890 C.ar  155  PHE155     -0.0042
     82  CD2       -5.4020   -1.8240  -42.1390 C.ar  155  PHE155     -0.0042
     83  CE1       -3.1910   -2.9980  -40.9870 C.ar  155  PHE155     -0.0003
     84  CE2       -4.3710   -2.2800  -42.9490 C.ar  155  PHE155     -0.0003
     85  CZ        -3.2720   -2.8740  -42.3770 C.ar  155  PHE155     -0.0000
     86  N         -4.9090    4.3790  -39.8110 N.3   158  ALA158     -0.1245
     87  CA        -3.5120    4.3930  -39.3770 C.3   158  ALA158      0.1562
     88  C         -2.5450    4.2130  -40.5220 C.2   158  ALA158      0.2260
     89  O         -1.5730    4.9510  -40.6410 O.2   158  ALA158     -0.2867
     90  CB        -3.2840    3.3160  -38.3320 C.3   158  ALA158      0.0290
@<TRIPOS>BOND
     1    84    85   ar
     2    84    82   ar
     3    85    83   ar
     4    52    51    2
     5    82    80   ar
     6    51    50    1
     7    44    43    2
     8    83    81   ar
     9    78    77    2
    10    80    81   ar
    11    80    79    1
    12    77    76    1
    13    89    88    2
    14    88    87    1
    15    43    42    1
    16    43    49   am
    17    50    49    1
    18    50    53    1
    19    42    41    1
    20    42    45    1
    21    79    76    1
    22    86    87    1
    23    48    46    1
    24    76    75    1
    25    53    54    1
    26    87    90    1
    27    45    46    1
    28    75    73   am
    29    46    47    1
    30    74    73    2
    31    70    69    2
    32    73    72    1
    33    71    72    1
    34    69    68    1
    35    54    56   am
    36    54    55    2
    37    29    28    2
    38    36    35    2
    39    35    34    1
    40    62    63    1
    41    28    27    1
    42    28    33   am
    43    27    26    1
    44    27    30    1
    45    68    67    1
    46    65    64    2
    47    67    64   am
    48    64    63    1
    49    63    66    1
    50    31    30    1
    51    33    34    1
    52    32    30    1
    53    34    37    1
    54    60    59    2
    55    59    58    1
    56    57    58    1
    57    37    38    1
    58    58    61    1
    59    38    40   am
    60    38    39    2
    61     4     3    2
    62    18    17    2
    63     2     3    1
    64     2     1    1
    65     2     5    1
    66     3    15   am
    67    17    16    1
    68     5     6    1
    69    15    16    1
    70    16    19    1
    71     6     8   ar
    72     6     7   ar
    73    11     8   ar
    74    11    13   ar
    75     8    10   ar
    76    19    20    1
    77     7     9   ar
    78    22    20   ar
    79    22    24   ar
    80    20    21   ar
    81    24    25   ar
    82    21    23   ar
    83    13    14   ar
    84    23    25   ar
    85    10     9   ar
    86    10    12   ar
    87    14    12   ar
