@<TRIPOS>MOLECULE
tmp/4bo8C00.pdb
 90 87 0 0 0
SMALL
GASTEIGER

@<TRIPOS>ATOM
      1  N        -38.5820   15.9510  -37.3750 N.3   103  TRP103     -0.1227
      2  CA       -37.1820   15.6510  -37.0490 C.3   103  TRP103      0.1737
      3  C        -36.3610   16.9300  -36.8390 C.2   103  TRP103      0.2595
      4  O        -35.6280   17.0400  -35.8600 O.2   103  TRP103     -0.2718
      5  CB       -36.5220   14.7530  -38.1210 C.3   103  TRP103      0.0564
      6  CG       -36.4860   15.3890  -39.4840 C.ar  103  TRP103      0.0003
      7  CD1      -37.5040   15.4440  -40.3960 C.ar  103  TRP103      0.0946
      8  CD2      -35.4040   16.1240  -40.0520 C.ar  103  TRP103      0.0152
      9  NE1      -37.1170   16.1550  -41.5160 N.ar  103  TRP103     -0.2442
     10  CE2      -35.8320   16.5890  -41.3260 C.ar  103  TRP103      0.0810
     11  CE3      -34.1220   16.4480  -39.6080 C.ar  103  TRP103      0.0012
     12  CZ2      -35.0100   17.3430  -42.1540 C.ar  103  TRP103      0.0191
     13  CZ3      -33.3070   17.1790  -40.4310 C.ar  103  TRP103      0.0001
     14  CH2      -33.7480   17.6220  -41.6940 C.ar  103  TRP103      0.0015
     15  N        -36.5260   17.9010  -37.7430 N.am  104  PHE104     -0.1976
     16  CA       -35.8150   19.1960  -37.7020 C.3   104  PHE104      0.1639
     17  C        -36.2720   20.1340  -36.5710 C.2   104  PHE104      0.2290
     18  O        -35.4480   20.6020  -35.7700 O.2   104  PHE104     -0.2864
     19  CB       -35.9570   19.9120  -39.0610 C.3   104  PHE104      0.0560
     20  CG       -35.2830   21.2490  -39.1180 C.ar  104  PHE104     -0.0200
     21  CD1      -33.9240   21.3320  -39.3190 C.ar  104  PHE104     -0.0042
     22  CD2      -36.0080   22.4210  -38.9420 C.ar  104  PHE104     -0.0042
     23  CE1      -33.2880   22.5660  -39.3400 C.ar  104  PHE104     -0.0003
     24  CE2      -35.3820   23.6620  -38.9730 C.ar  104  PHE104     -0.0003
     25  CZ       -34.0160   23.7350  -39.1830 C.ar  104  PHE104     -0.0000
     26  N        -35.2670   19.2240  -32.9050 N.3   107  VAL107     -0.1231
     27  CA       -33.8910   19.5400  -32.5700 C.3   107  VAL107      0.1692
     28  C        -33.6500   21.0610  -32.5480 C.2   107  VAL107      0.2592
     29  O        -33.0070   21.5950  -31.6310 O.2   107  VAL107     -0.2718
     30  CB       -32.9090   18.8470  -33.5300 C.3   107  VAL107      0.0266
     31  CG1      -31.4870   19.3230  -33.2830 C.3   107  VAL107      0.0020
     32  CG2      -32.9890   17.3360  -33.3680 C.3   107  VAL107      0.0020
     33  N        -34.1660   21.7580  -33.5500 N.am  108  ASN108     -0.1974
     34  CA       -33.9820   23.2100  -33.5950 C.3   108  ASN108      0.1688
     35  C        -34.5480   23.9100  -32.3750 C.2   108  ASN108      0.2292
     36  O        -33.9330   24.8230  -31.8280 O.2   108  ASN108     -0.2864
     37  CB       -34.6270   23.8040  -34.8490 C.3   108  ASN108      0.1181
     38  CG       -34.1310   25.2060  -35.1540 C.2   108  ASN108      0.2629
     39  OD1      -34.9320   26.0910  -35.3350 O.2   108  ASN108     -0.2716
     40  ND2      -32.8160   25.4070  -35.2280 N.am  108  ASN108     -0.0877
     41  N        -32.4290   22.9750  -29.0660 N.3   111  LEU111     -0.1231
     42  CA       -31.1360   23.6430  -28.9890 C.3   111  LEU111      0.1693
     43  C        -31.2610   25.1450  -28.7790 C.2   111  LEU111      0.2592
     44  O        -30.4110   25.7530  -28.1290 O.2   111  LEU111     -0.2718
     45  CB       -30.2870   23.3290  -30.2190 C.3   111  LEU111      0.0284
     46  CG       -29.8850   21.8570  -30.3330 C.3   111  LEU111      0.0019
     47  CD1      -29.1330   21.6140  -31.6340 C.3   111  LEU111      0.0001
     48  CD2      -29.0300   21.4320  -29.1680 C.3   111  LEU111      0.0001
     49  N        -32.3240   25.7390  -29.3050 N.am  112  ASN112     -0.1974
     50  CA       -32.6220   27.1410  -28.9950 C.3   112  ASN112      0.1688
     51  C        -32.9510   27.3560  -27.5180 C.2   112  ASN112      0.2292
     52  O        -32.5840   28.3870  -26.9500 O.2   112  ASN112     -0.2864
     53  CB       -33.7460   27.6760  -29.8890 C.3   112  ASN112      0.1181
     54  CG       -33.2460   28.0160  -31.2760 C.2   112  ASN112      0.2629
     55  OD1      -32.2990   28.7870  -31.4160 O.2   112  ASN112     -0.2716
     56  ND2      -33.8600   27.4490  -32.2990 N.am  112  ASN112     -0.0877
     57  N        -29.9880   12.3340  -34.9500 N.3   149  ALA149     -0.1245
     58  CA       -29.9700   13.7800  -35.1740 C.3   149  ALA149      0.1562
     59  C        -29.9270   14.5690  -33.8700 C.2   149  ALA149      0.2260
     60  O        -29.1440   15.5040  -33.7310 O.2   149  ALA149     -0.2867
     61  CB       -31.1960   14.2020  -35.9790 C.3   149  ALA149      0.0290
     62  N        -26.4270   14.1240  -32.4200 N.3   152  ALA152     -0.1231
     63  CA       -25.3920   14.8970  -33.1060 C.3   152  ALA152      0.1694
     64  C        -25.5170   16.3780  -32.7770 C.2   152  ALA152      0.2592
     65  O        -24.5280   17.0590  -32.6370 O.2   152  ALA152     -0.2718
     66  CB       -25.4950   14.6930  -34.6060 C.3   152  ALA152      0.0304
     67  N        -26.7460   16.8540  -32.6170 N.am  153  GLY153     -0.1957
     68  CA       -26.9900   18.2470  -32.2980 C.3   153  GLY153      0.1869
     69  C        -26.5390   18.5700  -30.8950 C.2   153  GLY153      0.2309
     70  O        -25.9050   19.5930  -30.6520 O.2   153  GLY153     -0.2863
     71  N        -22.4320   18.3810  -30.7030 N.3   156  GLY156     -0.1210
     72  CA       -21.7400   19.5200  -31.2950 C.3   156  GLY156      0.1956
     73  C        -22.0260   20.7860  -30.5140 C.2   156  GLY156      0.2611
     74  O        -21.1670   21.6400  -30.3680 O.2   156  GLY156     -0.2717
     75  N        -23.2620   20.9200  -30.0360 N.am  157  PHE157     -0.1976
     76  CA       -23.6610   22.0720  -29.2590 C.3   157  PHE157      0.1639
     77  C        -22.8840   22.1040  -27.9660 C.2   157  PHE157      0.2290
     78  O        -22.3350   23.1260  -27.5980 O.2   157  PHE157     -0.2864
     79  CB       -25.1500   22.0260  -28.9480 C.3   157  PHE157      0.0560
     80  CG       -25.6090   23.1450  -28.0930 C.ar  157  PHE157     -0.0200
     81  CD1      -25.5780   23.0360  -26.7060 C.ar  157  PHE157     -0.0042
     82  CD2      -26.0730   24.3180  -28.6700 C.ar  157  PHE157     -0.0042
     83  CE1      -25.9990   24.0710  -25.9010 C.ar  157  PHE157     -0.0003
     84  CE2      -26.4960   25.3590  -27.8800 C.ar  157  PHE157     -0.0003
     85  CZ       -26.4560   25.2410  -26.4860 C.ar  157  PHE157     -0.0000
     86  N        -19.2500   22.8840  -28.5360 N.3   160  ALA160     -0.1245
     87  CA       -19.0310   24.2840  -28.8920 C.3   160  ALA160      0.1562
     88  C        -19.2030   25.2290  -27.7030 C.2   160  ALA160      0.2260
     89  O        -18.4070   26.1500  -27.5030 O.2   160  ALA160     -0.2867
     90  CB       -19.9590   24.6960  -30.0230 C.3   160  ALA160      0.0290
@<TRIPOS>BOND
     1    12    14   ar
     2    12    10   ar
     3    14    13   ar
     4     9    10   ar
     5     9     7   ar
     6    10     8   ar
     7    13    11   ar
     8     7     6   ar
     9     8    11   ar
    10     8     6   ar
    11     6     5    1
    12    23    21   ar
    13    23    25   ar
    14    21    20   ar
    15    25    24   ar
    16    20    19    1
    17    20    22   ar
    18    19    16    1
    19    24    22   ar
    20     5     2    1
    21    15    16    1
    22    15     3   am
    23    16    17    1
    24     1     2    1
    25     2     3    1
    26     3     4    2
    27    17    18    2
    28    61    58    1
    29    39    38    2
    30    40    38   am
    31    58    57    1
    32    58    59    1
    33    38    37    1
    34    37    34    1
    35    66    63    1
    36    59    60    2
    37    34    33    1
    38    34    35    1
    39    33    28   am
    40    30    32    1
    41    30    31    1
    42    30    27    1
    43    63    64    1
    44    63    62    1
    45    26    27    1
    46    64    65    2
    47    64    67   am
    48    67    68    1
    49    27    28    1
    50    28    29    2
    51    35    36    2
    52    56    54   am
    53    68    69    1
    54    47    46    1
    55    55    54    2
    56    72    71    1
    57    72    73    1
    58    54    53    1
    59    69    70    2
    60    73    74    2
    61    73    75   am
    62    46    45    1
    63    46    48    1
    64    45    42    1
    65    75    76    1
    66    90    87    1
    67    53    50    1
    68    49    50    1
    69    49    43   am
    70    76    79    1
    71    76    77    1
    72    41    42    1
    73    50    51    1
    74    42    43    1
    75    79    80    1
    76    87    86    1
    77    87    88    1
    78    43    44    2
    79    82    80   ar
    80    82    84   ar
    81    80    81   ar
    82    77    78    2
    83    84    85   ar
    84    88    89    2
    85    51    52    2
    86    81    83   ar
    87    85    83   ar
