@<TRIPOS>MOLECULE
tmp/4bo9A00.pdb
 90 87 0 0 0
SMALL
GASTEIGER

@<TRIPOS>ATOM
      1  N         15.9920   95.5930   32.6660 N.3    94  TRP94      -0.1227
      2  CA        15.9030   96.9320   33.2980 C.3    94  TRP94       0.1737
      3  C         14.4840   97.4780   33.2020 C.2    94  TRP94       0.2595
      4  O         14.0060   98.1270   34.1220 O.2    94  TRP94      -0.2718
      5  CB        16.8960   97.9450   32.6830 C.3    94  TRP94       0.0564
      6  CG        16.8680   97.9880   31.2050 C.ar   94  TRP94       0.0003
      7  CD1       17.6180   97.2330   30.3530 C.ar   94  TRP94       0.0946
      8  CD2       16.0370   98.8140   30.3840 C.ar   94  TRP94       0.0152
      9  NE1       17.3080   97.5380   29.0570 N.ar   94  TRP94      -0.2442
     10  CE2       16.3390   98.5070   29.0470 C.ar   94  TRP94       0.0810
     11  CE3       15.0640   99.7860   30.6490 C.ar   94  TRP94       0.0012
     12  CZ2       15.7150   99.1430   27.9740 C.ar   94  TRP94       0.0191
     13  CZ3       14.4440  100.4180   29.5730 C.ar   94  TRP94       0.0001
     14  CH2       14.7780  100.0940   28.2580 C.ar   94  TRP94       0.0015
     15  N         13.8060   97.2140   32.0910 N.am   95  PHE95      -0.1976
     16  CA        12.4580   97.7180   31.9100 C.3    95  PHE95       0.1639
     17  C         11.4940   97.0980   32.9170 C.2    95  PHE95       0.2290
     18  O         10.8780   97.8260   33.6930 O.2    95  PHE95      -0.2864
     19  CB        11.9770   97.4960   30.4870 C.3    95  PHE95       0.0560
     20  CG        10.6950   98.2030   30.1800 C.ar   95  PHE95      -0.0200
     21  CD1       10.6730   99.5740   30.0190 C.ar   95  PHE95      -0.0042
     22  CD2        9.5020   97.5040   30.0740 C.ar   95  PHE95      -0.0042
     23  CE1        9.4840  100.2330   29.7490 C.ar   95  PHE95      -0.0003
     24  CE2        8.3190   98.1610   29.8070 C.ar   95  PHE95      -0.0003
     25  CZ         8.3070   99.5270   29.6420 C.ar   95  PHE95      -0.0000
     26  N         12.1670   98.3490   36.5840 N.3    98  VAL98      -0.1231
     27  CA        11.7520   99.7200   36.8160 C.3    98  VAL98       0.1692
     28  C         10.2450   99.8620   36.7250 C.2    98  VAL98       0.2592
     29  O          9.6510  100.5890   37.5070 O.2    98  VAL98      -0.2718
     30  CB        12.4260  100.6830   35.8240 C.3    98  VAL98       0.0266
     31  CG1       11.8690  102.0940   35.9840 C.3    98  VAL98       0.0020
     32  CG2       13.9290  100.6830   36.0400 C.3    98  VAL98       0.0020
     33  N          9.6390   99.1840   35.7590 N.am   99  ASN99      -0.1974
     34  CA         8.1850   99.2470   35.5830 C.3    99  ASN99       0.1688
     35  C          7.4510   98.7680   36.8180 C.2    99  ASN99       0.2292
     36  O          6.5260   99.3980   37.2710 O.2    99  ASN99      -0.2864
     37  CB         7.7380   98.4350   34.3660 C.3    99  ASN99       0.1181
     38  CG         6.2490   98.5690   34.0890 C.2    99  ASN99       0.2629
     39  OD1        5.6360   99.5990   34.3760 O.2    99  ASN99      -0.2716
     40  ND2        5.6570   97.5290   33.5150 N.am   99  ASN99      -0.0877
     41  N          7.7820  101.3090   39.9930 N.3   102  LEU102     -0.1231
     42  CA         6.9960  102.5300   39.9300 C.3   102  LEU102      0.1693
     43  C          5.5160  102.2340   40.0920 C.2   102  LEU102      0.2592
     44  O          4.8230  102.9550   40.7970 O.2   102  LEU102     -0.2718
     45  CB         7.2770  103.3280   38.6550 C.3   102  LEU102      0.0284
     46  CG         8.6890  103.9000   38.5150 C.3   102  LEU102      0.0019
     47  CD1        8.7450  104.9820   37.4530 C.3   102  LEU102      0.0001
     48  CD2        9.2020  104.4790   39.8200 C.3   102  LEU102      0.0001
     49  N          5.0400  101.1520   39.4930 N.am  103  ASN103     -0.1974
     50  CA         3.6610  100.7060   39.7150 C.3   103  ASN103      0.1688
     51  C          3.3750  100.4760   41.1880 C.2   103  ASN103      0.2292
     52  O          2.2950  100.7970   41.6770 O.2   103  ASN103     -0.2864
     53  CB         3.3580   99.4410   38.9270 C.3   103  ASN103      0.1181
     54  CG         3.2610   99.7000   37.4350 C.2   103  ASN103      0.2629
     55  OD1        2.5470  100.6010   36.9950 O.2   103  ASN103     -0.2716
     56  ND2        3.9720   98.9190   36.6530 N.am  103  ASN103     -0.0877
     57  N         18.6830  103.6570   35.3780 N.3   144  ALA144     -0.1245
     58  CA        17.3260  103.5450   34.8630 C.3   144  ALA144      0.1562
     59  C         16.2650  103.7310   35.9390 C.2   144  ALA144      0.2260
     60  O         15.2470  104.3610   35.7110 O.2   144  ALA144     -0.2867
     61  CB        17.1440  102.2000   34.1770 C.3   144  ALA144      0.0290
     62  N         16.3800  107.1630   37.3530 N.3   147  ALA147     -0.1231
     63  CA        15.7110  108.0840   36.4440 C.3   147  ALA147      0.1694
     64  C         14.2000  108.0380   36.6700 C.2   147  ALA147      0.2592
     65  O         13.5220  109.0640   36.6680 O.2   147  ALA147     -0.2718
     66  CB        16.0320  107.7310   35.0070 C.3   147  ALA147      0.0304
     67  N         13.6930  106.8310   36.8420 N.am  148  GLY148     -0.1957
     68  CA        12.3010  106.6300   37.0980 C.3   148  GLY148      0.1869
     69  C         11.9070  107.2810   38.4000 C.2   148  GLY148      0.2309
     70  O         10.8900  107.9750   38.4850 O.2   148  GLY148     -0.2863
     71  N         11.7790  111.1140   38.2470 N.3   151  GLY151     -0.1210
     72  CA        10.6780  111.5980   37.4290 C.3   151  GLY151      0.1956
     73  C          9.3620  111.3730   38.1300 C.2   151  GLY151      0.2611
     74  O          8.6280  112.3190   38.3930 O.2   151  GLY151     -0.2717
     75  N          9.1180  110.1180   38.4820 N.am  152  PHE152     -0.1976
     76  CA         7.9530  109.7430   39.2170 C.3   152  PHE152      0.1639
     77  C          7.7070  110.6300   40.3940 C.2   152  PHE152      0.2290
     78  O          6.5930  111.1230   40.6000 O.2   152  PHE152     -0.2864
     79  CB         8.0720  108.3220   39.7570 C.3   152  PHE152      0.0560
     80  CG         6.8940  107.9130   40.5870 C.ar  152  PHE152     -0.0200
     81  CD1        5.7270  107.4940   39.9770 C.ar  152  PHE152     -0.0042
     82  CD2        6.9330  108.0080   41.9510 C.ar  152  PHE152     -0.0042
     83  CE1        4.6300  107.1210   40.7220 C.ar  152  PHE152     -0.0003
     84  CE2        5.8540  107.6460   42.7110 C.ar  152  PHE152     -0.0003
     85  CZ         4.6890  107.1940   42.1000 C.ar  152  PHE152     -0.0000
     86  N          6.5550  114.1200   39.6180 N.3   155  ALA155     -0.1245
     87  CA         5.2420  114.1700   39.0450 C.3   155  ALA155      0.1562
     88  C          4.2060  114.1080   40.1620 C.2   155  ALA155      0.2260
     89  O          3.2940  114.9320   40.2370 O.2   155  ALA155     -0.2867
     90  CB         5.0580  113.0110   38.0810 C.3   155  ALA155      0.0290
@<TRIPOS>BOND
     1    12    14   ar
     2    12    10   ar
     3    14    13   ar
     4    10     9   ar
     5    10     8   ar
     6     9     7   ar
     7    13    11   ar
     8    25    23   ar
     9    25    24   ar
    10    23    21   ar
    11    24    22   ar
    12    21    20   ar
    13    22    20   ar
    14    20    19    1
    15     7     6   ar
    16     8    11   ar
    17     8     6   ar
    18    19    16    1
    19     6     5    1
    20    16    15    1
    21    16    17    1
    22    15     3   am
    23     1     2    1
    24     5     2    1
    25    17    18    2
    26     3     2    1
    27     3     4    2
    28    40    38   am
    29    38    37    1
    30    38    39    2
    31    61    58    1
    32    37    34    1
    33    58    57    1
    34    58    59    1
    35    66    63    1
    36    34    33    1
    37    34    35    1
    38    60    59    2
    39    33    28   am
    40    30    31    1
    41    30    32    1
    42    30    27    1
    43    63    64    1
    44    63    62    1
    45    26    27    1
    46    56    54   am
    47    65    64    2
    48    64    67   am
    49    28    27    1
    50    28    29    2
    51    35    36    2
    52    67    68    1
    53    55    54    2
    54    68    69    1
    55    72    73    1
    56    72    71    1
    57    54    53    1
    58    47    46    1
    59    90    87    1
    60    73    74    2
    61    73    75   am
    62    69    70    2
    63    75    76    1
    64    46    45    1
    65    46    48    1
    66    45    42    1
    67    53    50    1
    68    87    86    1
    69    87    88    1
    70    76    79    1
    71    76    77    1
    72    49    50    1
    73    49    43   am
    74    50    51    1
    75    79    80    1
    76    42    41    1
    77    42    43    1
    78    81    80   ar
    79    81    83   ar
    80    43    44    2
    81    88    89    2
    82    77    78    2
    83    80    82   ar
    84    83    85   ar
    85    51    52    2
    86    82    84   ar
    87    85    84   ar
