@<TRIPOS>MOLECULE
tmp/4boeA01.pdb
 111 109 0 0 0
SMALL
GASTEIGER

@<TRIPOS>ATOM
      1  N          7.6750   29.7840    8.3480 N.3    13  TYR13      -0.1227
      2  CA         7.7650   29.5490    9.7720 C.3    13  TYR13       0.1736
      3  C          9.0370   28.8170   10.1000 C.2    13  TYR13       0.2595
      4  O          9.3600   27.8320    9.4330 O.2    13  TYR13      -0.2718
      5  CB         6.5900   28.6830   10.2420 C.3    13  TYR13       0.0548
      6  CG         5.2440   29.2740    9.9070 C.ar   13  TYR13      -0.0200
      7  CD1        4.6650   29.0800    8.6510 C.ar   13  TYR13      -0.0009
      8  CD2        4.5760   30.0790   10.8150 C.ar   13  TYR13      -0.0009
      9  CE1        3.4580   29.6820    8.3110 C.ar   13  TYR13       0.0417
     10  CE2        3.3450   30.6390   10.5130 C.ar   13  TYR13       0.0417
     11  CZ         2.7950   30.4630    9.2490 C.ar   13  TYR13       0.1957
     12  OH         1.5720   31.0250    8.9680 O.3    13  TYR13      -0.2866
     13  N          9.7260   29.2610   11.1780 N.am   14  LEU14      -0.1966
     14  CA        10.9540   28.6270   11.6350 C.3    14  LEU14       0.1728
     15  C         10.6020   27.2860   12.2710 C.2    14  LEU14       0.2616
     16  O          9.8090   27.2260   13.2050 O.2    14  LEU14      -0.2715
     17  CB        11.7020   29.5320   12.6390 C.3    14  LEU14       0.0311
     18  CG        13.0430   29.0010   13.1480 C.3    14  LEU14       0.0022
     19  CD1       14.0470   28.8970   12.0280 C.3    14  LEU14       0.0001
     20  CD2       13.5500   29.8840   14.2820 C.3    14  LEU14       0.0001
     21  N         11.0790   26.2110   11.6720 N.am   15  ALA15      -0.1977
     22  CA        10.7610   24.8520   12.1340 C.3    15  ALA15       0.1597
     23  C         11.9420   24.1930   12.8380 C.2    15  ALA15       0.2287
     24  O         11.7590   23.2190   13.5480 O.2    15  ALA15      -0.2864
     25  CB        10.3370   24.0070   10.9490 C.3    15  ALA15       0.0319
     26  N          7.2360   31.7340   18.2200 N.3    28  CYS28      -0.1221
     27  CA         6.3480   32.0190   17.0910 C.3    28  CYS28       0.1808
     28  C          7.0880   32.7540   15.9360 C.2    28  CYS28       0.2601
     29  O          6.5040   33.6470   15.3350 O.2    28  CYS28      -0.2717
     30  CB         5.1300   32.8170   17.5760 C.3    28  CYS28       0.0970
     31  SG         4.2670   32.1100   19.0280 S.3    28  CYS28      -0.0800
     32  N          8.3630   32.3780   15.6370 N.am   29  VAL29      -0.1979
     33  CA         9.1990   33.0460   14.6140 C.3    29  VAL29       0.1595
     34  C          8.6990   32.7140   13.2250 C.2    29  VAL29       0.2287
     35  O          8.5200   31.5380   12.8720 O.2    29  VAL29      -0.2864
     36  CB        10.7120   32.7660   14.7770 C.3    29  VAL29       0.0276
     37  CG1       11.5320   33.4520   13.6870 C.3    29  VAL29       0.0022
     38  CG2       11.1920   33.2110   16.1410 C.3    29  VAL29       0.0022
     39  N          9.5390   26.4540    6.8530 N.3   118  VAL118     -0.1245
     40  CA         8.4810   25.7640    6.1540 C.3   118  VAL118      0.1561
     41  C          7.2950   26.6980    5.9640 C.2   118  VAL118      0.2260
     42  O          7.0920   27.6100    6.7570 O.2   118  VAL118     -0.2867
     43  CB         8.0450   24.4530    6.8720 C.3   118  VAL118      0.0252
     44  CG1        9.1800   23.4360    6.9390 C.3   118  VAL118      0.0019
     45  CG2        7.4460   24.7070    8.2540 C.3   118  VAL118      0.0019
     46  N          3.5530   22.9290    8.8820 N.3   123  VAL123     -0.1245
     47  CA         3.7720   23.3670   10.2770 C.3   123  VAL123      0.1561
     48  C          3.4470   22.2910   11.3350 C.2   123  VAL123      0.2260
     49  O          4.1410   22.2050   12.3550 O.2   123  VAL123     -0.2867
     50  CB         3.0950   24.7170   10.6550 C.3   123  VAL123      0.0252
     51  CG1        3.7310   25.8770    9.9090 C.3   123  VAL123      0.0019
     52  CG2        1.5840   24.6970   10.4810 C.3   123  VAL123      0.0019
     53  N          6.3280   17.9060    9.6420 N.3   126  ILE126     -0.1245
     54  CA         7.4780   18.0620    8.7590 C.3   126  ILE126      0.1561
     55  C          7.6130   16.7540    7.9820 C.2   126  ILE126      0.2260
     56  O          7.6620   15.7150    8.6130 O.2   126  ILE126     -0.2867
     57  CB         8.7750   18.3560    9.5890 C.3   126  ILE126      0.0252
     58  CG1        8.6220   19.6270   10.5120 C.3   126  ILE126      0.0019
     59  CG2        9.9950   18.4990    8.6700 C.3   126  ILE126      0.0019
     60  CD1        8.4880   20.9340    9.8110 C.3   126  ILE126      0.0001
     61  N         11.6210   23.1410   16.3890 N.3   144  VAL144     -0.1231
     62  CA        10.7400   24.1220   17.0170 C.3   144  VAL144      0.1678
     63  C          9.3870   23.3690   17.1050 C.2   144  VAL144      0.2434
     64  O          8.8040   23.0920   16.0690 O.2   144  VAL144     -0.2733
     65  CB        10.6260   25.4560   16.2230 C.3   144  VAL144      0.0265
     66  CG1        9.6070   26.4050   16.8830 C.3   144  VAL144      0.0020
     67  CG2       11.9930   26.1410   16.1030 C.3   144  VAL144      0.0020
     68  N          8.9120   23.0040   18.3070 N.am  145  PRO145     -0.2718
     69  CA         7.6340   22.2780   18.4000 C.3   145  PRO145      0.1535
     70  C          6.4270   23.1110   17.9800 C.2   145  PRO145      0.2599
     71  O          6.4260   24.3240   18.1360 O.2   145  PRO145     -0.2715
     72  CB         7.5410   21.8920   19.8720 C.3   145  PRO145      0.0310
     73  CG         8.3290   22.9370   20.5980 C.3   145  PRO145      0.0237
     74  CD         9.3520   23.4970   19.6320 C.3   145  PRO145      0.0939
     75  N          5.4250   22.4540   17.4160 N.am  146  PHE146     -0.1960
     76  CA         4.1740   23.1030   17.0230 C.3   146  PHE146      0.1771
     77  C          3.4410   23.6960   18.2130 C.2   146  PHE146      0.2619
     78  O          3.3540   23.0680   19.2660 O.2   146  PHE146     -0.2715
     79  CB         3.2570   22.1340   16.2780 C.3   146  PHE146      0.0574
     80  CG         1.9510   22.7600   15.8380 C.ar  146  PHE146     -0.0200
     81  CD1        1.8930   23.5580   14.7090 C.ar  146  PHE146     -0.0042
     82  CD2        0.7790   22.5340   16.5450 C.ar  146  PHE146     -0.0042
     83  CE1        0.6920   24.1410   14.3070 C.ar  146  PHE146     -0.0003
     84  CE2       -0.4250   23.1000   16.1280 C.ar  146  PHE146     -0.0003
     85  CZ        -0.4630   23.9000   15.0130 C.ar  146  PHE146     -0.0000
     86  N          2.9370   24.9240   18.0480 N.am  147  ASP147     -0.1971
     87  CA         2.1830   25.6060   19.0970 C.3   147  ASP147      0.1709
     88  C          1.0100   26.3610   18.4580 C.2   147  ASP147      0.2293
     89  O          1.2240   27.2900   17.6770 O.2   147  ASP147     -0.2864
     90  CB         3.1070   26.5370   19.8870 C.3   147  ASP147      0.1436
     91  CG         2.5250   27.0160   21.2050 C.2   147  ASP147      0.3671
     92  OD1        1.2830   27.0440   21.3330 O.co2 147  ASP147     -0.2456
     93  OD2        3.3120   27.3960   22.0960 O.co2 147  ASP147     -0.2456
     94  N          0.6580   30.2900   18.2730 N.3   150  CYS150     -0.1221
     95  CA         1.4850   31.0970   17.3650 C.3   150  CYS150      0.1808
     96  C          0.7770   31.5140   16.0660 C.2   150  CYS150      0.2601
     97  O          1.4190   32.0750   15.1730 O.2   150  CYS150     -0.2717
     98  CB         2.7940   30.3580   17.0770 C.3   150  CYS150      0.0970
     99  SG         3.8360   30.1580   18.5410 S.3   150  CYS150     -0.0800
    100  N         -0.5220   31.2730   15.9650 N.am  151  TYR151     -0.1976
    101  CA        -1.2990   31.5450   14.7560 C.3   151  TYR151      0.1639
    102  C         -2.4770   32.4670   14.9950 C.2   151  TYR151      0.2290
    103  O         -3.0370   32.4340   16.0880 O.2   151  TYR151     -0.2864
    104  CB        -1.8350   30.2300   14.2040 C.3   151  TYR151      0.0560
    105  CG        -0.7130   29.3160   13.8180 C.ar  151  TYR151     -0.0198
    106  CD1       -0.0720   29.4550   12.5960 C.ar  151  TYR151     -0.0009
    107  CD2       -0.1810   28.4170   14.7320 C.ar  151  TYR151     -0.0009
    108  CE1        1.0100   28.6590   12.2550 C.ar  151  TYR151      0.0417
    109  CE2        0.9360   27.6530   14.4220 C.ar  151  TYR151      0.0417
    110  CZ         1.5270   27.7770   13.1800 C.ar  151  TYR151      0.1957
    111  OH         2.6400   27.0540   12.8950 O.3   151  TYR151     -0.2866
@<TRIPOS>BOND
     1    41    40    1
     2    41    42    2
     3    40    39    1
     4    40    43    1
     5    43    44    1
     6    43    45    1
     7    55    56    2
     8    55    54    1
     9     9     7   ar
    10     9    11   ar
    11     1     2    1
    12     7     6   ar
    13    59    57    1
    14    54    57    1
    15    54    53    1
    16    46    47    1
    17    12    11    1
    18    11    10   ar
    19     4     3    2
    20    57    58    1
    21     2     3    1
    22     2     5    1
    23    60    58    1
    24     6     5    1
    25     6     8   ar
    26    51    50    1
    27     3    13   am
    28    47    50    1
    29    47    48    1
    30    52    50    1
    31    10     8   ar
    32    25    22    1
    33    13    14    1
    34    48    49    2
    35    14    15    1
    36    14    17    1
    37    21    22    1
    38    21    15   am
    39    19    18    1
    40    22    23    1
    41   108   106   ar
    42   108   110   ar
    43    15    16    2
    44   106   105   ar
    45    17    18    1
    46    23    24    2
    47    35    34    2
    48   111   110    1
    49    18    20    1
    50   110   109   ar
    51    34    33    1
    52    37    36    1
    53   105   104    1
    54   105   107   ar
    55   104   101    1
    56    83    81   ar
    57    83    85   ar
    58   109   107   ar
    59    33    36    1
    60    33    32    1
    61    81    80   ar
    62   101   102    1
    63   101   100    1
    64    36    38    1
    65   102   103    2
    66    85    84   ar
    67    97    96    2
    68    29    28    2
    69    32    28   am
    70    80    79    1
    71    80    82   ar
    72    28    27    1
    73   100    96   am
    74    96    95    1
    75    64    63    2
    76    67    65    1
    77    84    82   ar
    78    65    66    1
    79    65    62    1
    80    79    76    1
    81    61    62    1
    82    62    63    1
    83    76    75    1
    84    76    77    1
    85    98    95    1
    86    98    99    1
    87    27    30    1
    88    27    26    1
    89    63    68   am
    90    95    94    1
    91    75    70   am
    92    30    31    1
    93    89    88    2
    94    70    71    2
    95    70    69    1
    96    86    77   am
    97    86    87    1
    98    77    78    2
    99    68    69    1
   100    68    74    1
   101    69    72    1
   102    88    87    1
   103    99    31    1
   104    87    90    1
   105    74    73    1
   106    72    73    1
   107    90    91    1
   108    91    92   ar
   109    91    93   ar
