@<TRIPOS>MOLECULE
tmp/4bofA00.pdb
 111 108 0 0 0
SMALL
GASTEIGER

@<TRIPOS>ATOM
      1  N         16.8870  -22.9740  -47.5930 N.3    68  LEU68      -0.1245
      2  CA        17.0800  -23.5550  -48.9090 C.3    68  LEU68       0.1561
      3  C         16.1210  -22.9400  -49.9360 C.2    68  LEU68       0.2260
      4  O         16.5810  -22.5370  -51.0170 O.2    68  LEU68      -0.2867
      5  CB        16.9190  -25.0900  -48.8520 C.3    68  LEU68       0.0270
      6  CG        17.0600  -25.8730  -50.1730 C.3    68  LEU68       0.0019
      7  CD1       18.4610  -25.8720  -50.6690 C.3    68  LEU68       0.0001
      8  CD2       16.5710  -27.2540  -50.0170 C.3    68  LEU68       0.0001
      9  N         11.8550  -35.4370  -48.2270 N.3   157  ASN157     -0.1225
     10  CA        13.1100  -35.4230  -47.4780 C.3   157  ASN157      0.1785
     11  C         13.8610  -34.0850  -47.5650 C.2   157  ASN157      0.2597
     12  O         14.8710  -33.9190  -46.8920 O.2   157  ASN157     -0.2718
     13  CB        14.0130  -36.5720  -47.9070 C.3   157  ASN157      0.1169
     14  CG        13.4080  -37.9020  -47.5800 C.2   157  ASN157      0.2627
     15  OD1       12.6960  -38.4820  -48.3820 O.2   157  ASN157     -0.2716
     16  ND2       13.6000  -38.3670  -46.3760 N.am  157  ASN157     -0.0877
     17  N         13.3460  -33.1070  -48.2740 N.am  158  LEU158     -0.1980
     18  CA        14.0320  -31.8190  -48.3880 C.3   158  LEU158      0.1596
     19  C         14.4380  -31.2000  -47.0470 C.2   158  LEU158      0.2287
     20  O         15.4070  -30.4610  -47.0410 O.2   158  LEU158     -0.2864
     21  CB        13.1930  -30.8010  -49.1780 C.3   158  LEU158      0.0297
     22  CG        13.3070  -30.8810  -50.7100 C.3   158  LEU158      0.0022
     23  CD1       12.1400  -30.2330  -51.3460 C.3   158  LEU158      0.0001
     24  CD2       14.5750  -30.2050  -51.2110 C.3   158  LEU158      0.0001
     25  N         15.9410  -32.4170  -44.6880 N.3   160  PHE160     -0.1227
     26  CA        17.1820  -33.0450  -44.2950 C.3   160  PHE160      0.1736
     27  C         18.2080  -32.5170  -45.3070 C.2   160  PHE160      0.2596
     28  O         18.5150  -33.1780  -46.2940 O.2   160  PHE160     -0.2718
     29  CB        17.0630  -34.6010  -44.2660 C.3   160  PHE160      0.0547
     30  CG        16.0420  -35.1950  -43.3250 C.ar  160  PHE160     -0.0202
     31  CD1       16.2390  -35.1700  -41.9510 C.ar  160  PHE160     -0.0042
     32  CD2       14.9160  -35.8260  -43.8100 C.ar  160  PHE160     -0.0042
     33  CE1       15.2830  -35.6590  -41.0860 C.ar  160  PHE160     -0.0003
     34  CE2       13.9780  -36.3790  -42.9320 C.ar  160  PHE160     -0.0003
     35  CZ        14.1940  -36.3250  -41.5750 C.ar  160  PHE160     -0.0000
     36  N         18.6640  -31.2690  -45.0790 N.am  161  THR161     -0.1953
     37  CA        19.5940  -30.5110  -45.9070 C.3   161  THR161      0.1897
     38  C         21.0670  -31.0420  -45.7840 C.2   161  THR161      0.2313
     39  O         21.9630  -30.5450  -46.4820 O.2   161  THR161     -0.2863
     40  CB        19.4580  -29.0130  -45.5630 C.3   161  THR161      0.1794
     41  OG1       19.5050  -28.8370  -44.1490 O.3   161  THR161     -0.2208
     42  CG2       18.1610  -28.4420  -46.0140 C.3   161  THR161      0.0378
     43  N         22.2440  -34.1660  -46.7830 N.3   163  ASP163     -0.1225
     44  CA        22.6580  -35.0440  -47.8920 C.3   163  ASP163      0.1790
     45  C         22.8210  -34.4640  -49.3290 C.2   163  ASP163      0.2440
     46  O         23.7990  -34.8490  -49.9760 O.2   163  ASP163     -0.2733
     47  CB        21.7420  -36.2630  -47.9410 C.3   163  ASP163      0.1423
     48  CG        21.7150  -36.9590  -46.5910 C.2   163  ASP163      0.3668
     49  OD1       22.7760  -37.5030  -46.1780 O.co2 163  ASP163     -0.2456
     50  OD2       20.6670  -36.8770  -45.9050 O.co2 163  ASP163     -0.2456
     51  N         21.9420  -33.6190  -49.8880 N.am  164  PRO164     -0.2718
     52  CA        22.1130  -33.2270  -51.3080 C.3   164  PRO164      0.1535
     53  C         23.3790  -32.4340  -51.6220 C.2   164  PRO164      0.2598
     54  O         23.8290  -32.4890  -52.7640 O.2   164  PRO164     -0.2715
     55  CB        20.8680  -32.4040  -51.6000 C.3   164  PRO164      0.0310
     56  CG        19.8980  -32.9260  -50.6500 C.3   164  PRO164      0.0237
     57  CD        20.6650  -33.1040  -49.3690 C.3   164  PRO164      0.0939
     58  N         23.9270  -31.6900  -50.6510 N.am  165  PHE165     -0.1974
     59  CA        25.2100  -31.0480  -50.8630 C.3   165  PHE165      0.1639
     60  C         25.8790  -30.8270  -49.5300 C.2   165  PHE165      0.2290
     61  O         25.1800  -30.5390  -48.5770 O.2   165  PHE165     -0.2864
     62  CB        25.1340  -29.7500  -51.6870 C.3   165  PHE165      0.0560
     63  CG        24.3040  -28.6460  -51.1130 C.ar  165  PHE165     -0.0200
     64  CD1       24.7610  -27.9000  -50.0410 C.ar  165  PHE165     -0.0042
     65  CD2       23.1180  -28.2720  -51.7150 C.ar  165  PHE165     -0.0042
     66  CE1       24.0070  -26.8630  -49.5330 C.ar  165  PHE165     -0.0003
     67  CE2       22.3910  -27.1920  -51.2410 C.ar  165  PHE165     -0.0003
     68  CZ        22.8460  -26.4920  -50.1620 C.ar  165  PHE165     -0.0000
     69  N         15.5420  -39.2950  -55.1050 N.3   182  ARG182     -0.1245
     70  CA        16.1360  -38.3970  -54.0800 C.3   182  ARG182      0.1563
     71  C         17.0480  -37.3440  -54.7210 C.2   182  ARG182      0.2260
     72  O         17.2200  -36.2350  -54.2000 O.2   182  ARG182     -0.2867
     73  CB        16.9600  -39.1990  -53.0560 C.3   182  ARG182      0.0307
     74  CG        16.1510  -40.0020  -52.0560 C.3   182  ARG182      0.0489
     75  CD        15.3680  -39.1240  -51.0980 C.3   182  ARG182      0.2205
     76  NE        16.1160  -37.9960  -50.5300 N.pl3 182  ARG182     -0.0865
     77  CZ        16.8570  -38.0670  -49.4300 C.cat 182  ARG182      0.5346
     78  NH1       17.0330  -39.2280  -48.8150 N.pl3 182  ARG182      0.1354
     79  NH2       17.4300  -36.9760  -48.9370 N.pl3 182  ARG182      0.1354
     80  N         16.2810  -33.4720  -55.6410 N.3   185  GLU185     -0.1231
     81  CA        16.5360  -32.5160  -54.5790 C.3   185  GLU185      0.1699
     82  C         17.7980  -31.6910  -54.8040 C.2   185  GLU185      0.2592
     83  O         17.8360  -30.5570  -54.3390 O.2   185  GLU185     -0.2718
     84  CB        16.6320  -33.2780  -53.2600 C.3   185  GLU185      0.0402
     85  CG        15.2520  -33.6560  -52.7560 C.3   185  GLU185      0.1161
     86  CD        15.0430  -34.9850  -52.0690 C.2   185  GLU185      0.3649
     87  OE1       15.4130  -35.0990  -50.8840 O.co2 185  GLU185     -0.2457
     88  OE2       14.3680  -35.8560  -52.6560 O.co2 185  GLU185     -0.2457
     89  N         18.7930  -32.2100  -55.5590 N.am  186  THR186     -0.1953
     90  CA        20.0850  -31.5450  -55.8190 C.3   186  THR186      0.1897
     91  C         19.9710  -30.4130  -56.8740 C.2   186  THR186      0.2313
     92  O         20.9530  -29.7030  -57.1340 O.2   186  THR186     -0.2863
     93  CB        21.1470  -32.5840  -56.2150 C.3   186  THR186      0.1794
     94  OG1       20.7480  -33.2510  -57.4100 O.3   186  THR186     -0.2208
     95  CG2       21.3880  -33.6110  -55.1280 C.3   186  THR186      0.0378
     96  N         18.1530  -27.6910  -56.4610 N.3   188  TYR188     -0.1227
     97  CA        18.1540  -26.4240  -55.7180 C.3   188  TYR188      0.1736
     98  C         19.5680  -25.9620  -55.3980 C.2   188  TYR188      0.2596
     99  O         19.8720  -24.8030  -55.6350 O.2   188  TYR188     -0.2718
    100  CB        17.3020  -26.5150  -54.4680 C.3   188  TYR188      0.0548
    101  CG        15.8790  -26.8830  -54.8230 C.ar  188  TYR188     -0.0200
    102  CD1       15.0370  -25.9600  -55.4440 C.ar  188  TYR188     -0.0009
    103  CD2       15.4010  -28.1800  -54.6200 C.ar  188  TYR188     -0.0009
    104  CE1       13.7470  -26.3010  -55.8190 C.ar  188  TYR188      0.0417
    105  CE2       14.1160  -28.5370  -55.0050 C.ar  188  TYR188      0.0417
    106  CZ        13.2870  -27.5870  -55.5850 C.ar  188  TYR188      0.1957
    107  OH        12.0090  -27.9170  -55.9180 O.3   188  TYR188     -0.2866
    108  N         20.4430  -26.8790  -55.0210 N.am  189  GLY189     -0.1957
    109  CA        21.8580  -26.5910  -54.7860 C.3   189  GLY189      0.1869
    110  C         22.5470  -26.1340  -56.0560 C.2   189  GLY189      0.2309
    111  O         23.2950  -25.1580  -56.0280 O.2   189  GLY189     -0.2863
@<TRIPOS>BOND
     1    94    93    1
     2    92    91    2
     3    91    90    1
     4    96    97    1
     5    93    90    1
     6    93    95    1
     7   110   111    2
     8   110   109    1
     9   107   106    1
    10    90    89    1
    11   104   106   ar
    12   104   102   ar
    13    97    98    1
    14    97   100    1
    15    80    81    1
    16    99    98    2
    17   106   105   ar
    18    89    82   am
    19   102   101   ar
    20    98   108   am
    21    69    70    1
    22   108   109    1
    23   105   103   ar
    24   101   103   ar
    25   101   100    1
    26    82    81    1
    27    82    83    2
    28    71    72    2
    29    71    70    1
    30    81    84    1
    31    70    73    1
    32    84    85    1
    33    73    74    1
    34    54    53    2
    35    85    86    1
    36    88    86   ar
    37    86    87   ar
    38    74    75    1
    39    65    67   ar
    40    65    63   ar
    41    62    63    1
    42    62    59    1
    43    53    52    1
    44    53    58   am
    45    55    52    1
    46    55    56    1
    47    23    22    1
    48    52    51    1
    49    67    68   ar
    50    24    22    1
    51    63    64   ar
    52    75    76    1
    53     4     3    2
    54    59    58    1
    55    59    60    1
    56    22    21    1
    57     7     6    1
    58    56    57    1
    59    76    77    2
    60     6     8    1
    61     6     5    1
    62    68    66   ar
    63    64    66   ar
    64    46    45    2
    65     3     2    1
    66    51    57    1
    67    51    45   am
    68    60    61    2
    69    77    79    1
    70    77    78    1
    71    45    44    1
    72    21    18    1
    73     2     5    1
    74     2     1    1
    75    18    17    1
    76    18    19    1
    77    15    14    2
    78    17    11   am
    79     9    10    1
    80    47    44    1
    81    47    48    1
    82    13    14    1
    83    13    10    1
    84    44    43    1
    85    14    16   am
    86    11    10    1
    87    11    12    2
    88    19    20    2
    89    48    49   ar
    90    48    50   ar
    91    39    38    2
    92    28    27    2
    93    42    40    1
    94    37    38    1
    95    37    40    1
    96    37    36    1
    97    40    41    1
    98    27    36   am
    99    27    26    1
   100    25    26    1
   101    26    29    1
   102    29    30    1
   103    32    30   ar
   104    32    34   ar
   105    30    31   ar
   106    34    35   ar
   107    31    33   ar
   108    35    33   ar
