@<TRIPOS>MOLECULE
tmp/4bofG00.pdb
 105 102 0 0 0
SMALL
GASTEIGER

@<TRIPOS>ATOM
      1  N         20.4680  -13.2720   12.8780 N.3   344  ARG344     -0.1231
      2  CA        20.1800  -14.1610   11.7620 C.3   344  ARG344      0.1694
      3  C         19.8940  -13.3330   10.4890 C.2   344  ARG344      0.2591
      4  O         20.4170  -13.6380    9.4210 O.2   344  ARG344     -0.2718
      5  CB        18.9420  -15.0050   12.1620 C.3   344  ARG344      0.0321
      6  CG        18.4920  -16.1300   11.2390 C.3   344  ARG344      0.0489
      7  CD        17.0170  -16.5060   11.4440 C.3   344  ARG344      0.2205
      8  NE        16.6030  -16.5690   12.8530 N.pl3 344  ARG344     -0.0865
      9  CZ        15.4180  -16.1520   13.3080 C.cat 344  ARG344      0.5346
     10  NH1       14.5120  -15.6690   12.4740 N.pl3 344  ARG344      0.1354
     11  NH2       15.1280  -16.2350   14.6010 N.pl3 344  ARG344      0.1354
     12  N         19.0680  -12.2840   10.6190 N.am  345  GLU345     -0.1979
     13  CA        18.6240  -11.4940    9.4790 C.3   345  GLU345      0.1602
     14  C         19.6870  -10.5490    8.9980 C.2   345  GLU345      0.2287
     15  O         19.7290  -10.2600    7.8060 O.2   345  GLU345     -0.2864
     16  CB        17.3090  -10.7670    9.7830 C.3   345  GLU345      0.0415
     17  CG        16.1690  -11.7790    9.8130 C.3   345  GLU345      0.1163
     18  CD        14.7370  -11.3010    9.6930 C.2   345  GLU345      0.3649
     19  OE1       14.4930  -10.0790    9.8300 O.co2 345  GLU345     -0.2457
     20  OE2       13.8510  -12.1680    9.4960 O.co2 345  GLU345     -0.2457
     21  N         22.9050  -11.2460    8.9930 N.3   347  TRP347     -0.1227
     22  CA        23.7390  -12.1830    8.2580 C.3   347  TRP347      0.1737
     23  C         23.2310  -12.3680    6.8110 C.2   347  TRP347      0.2595
     24  O         24.0380  -12.5890    5.9070 O.2   347  TRP347     -0.2718
     25  CB        23.7360  -13.5010    9.0330 C.3   347  TRP347      0.0564
     26  CG        24.3760  -14.6620    8.3600 C.ar  347  TRP347      0.0003
     27  CD1       23.7460  -15.6940    7.7290 C.ar  347  TRP347      0.0946
     28  CD2       25.7690  -14.9570    8.3260 C.ar  347  TRP347      0.0152
     29  NE1       24.6690  -16.6100    7.2850 N.ar  347  TRP347     -0.2442
     30  CE2       25.9180  -16.1910    7.6550 C.ar  347  TRP347      0.0810
     31  CE3       26.9130  -14.2810    8.7710 C.ar  347  TRP347      0.0012
     32  CZ2       27.1590  -16.7860    7.4610 C.ar  347  TRP347      0.0191
     33  CZ3       28.1460  -14.8790    8.5920 C.ar  347  TRP347      0.0001
     34  CH2       28.2620  -16.1120    7.9310 C.ar  347  TRP347      0.0015
     35  N         21.9160  -12.1970    6.5910 N.am  348  ASN348     -0.1974
     36  CA        21.2700  -12.2900    5.2820 C.3   348  ASN348      0.1688
     37  C         21.0330  -10.9410    4.6330 C.2   348  ASN348      0.2292
     38  O         20.1700  -10.8030    3.7640 O.2   348  ASN348     -0.2864
     39  CB        19.9870  -13.0160    5.4280 C.3   348  ASN348      0.1181
     40  CG        20.2640  -14.4400    5.6400 C.2   348  ASN348      0.2629
     41  OD1       20.8420  -15.1070    4.7840 O.2   348  ASN348     -0.2716
     42  ND2       20.0770  -14.8650    6.8450 N.am  348  ASN348     -0.0877
     43  N         13.5500  -14.1980    2.6710 N.3   366  ARG366     -0.1231
     44  CA        13.9650  -14.8660    3.9130 C.3   366  ARG366      0.1694
     45  C         14.0390  -13.9380    5.1500 C.2   366  ARG366      0.2592
     46  O         14.0050  -14.4370    6.2820 O.2   366  ARG366     -0.2718
     47  CB        15.3100  -15.5930    3.7110 C.3   366  ARG366      0.0321
     48  CG        16.5490  -14.7160    3.5670 C.3   366  ARG366      0.0489
     49  CD        17.6140  -15.3590    2.6900 C.3   366  ARG366      0.2205
     50  NE        18.0770  -16.6520    3.1920 N.pl3 366  ARG366     -0.0865
     51  CZ        17.8330  -17.8290    2.6320 C.cat 366  ARG366      0.5346
     52  NH1       17.0930  -17.9110    1.5340 N.pl3 366  ARG366      0.1354
     53  NH2       18.3040  -18.9400    3.1810 N.pl3 366  ARG366      0.1354
     54  N         14.1240  -12.6220    4.9490 N.am  367  ASN367     -0.1960
     55  CA        14.2330  -11.6920    6.0830 C.3   367  ASN367      0.1819
     56  C         12.8280  -11.2250    6.5100 C.2   367  ASN367      0.2622
     57  O         12.5170  -10.0290    6.4970 O.2   367  ASN367     -0.2715
     58  CB        15.1900  -10.5360    5.7490 C.3   367  ASN367      0.1195
     59  CG        16.6080  -11.0220    5.4680 C.2   367  ASN367      0.2630
     60  OD1       17.1390  -11.8770    6.1500 O.2   367  ASN367     -0.2716
     61  ND2       17.2550  -10.5250    4.4520 N.am  367  ASN367     -0.0877
     62  N         12.0090  -12.2180    6.9280 N.am  368  THR368     -0.1937
     63  CA        10.6040  -12.1470    7.3450 C.3   368  THR368      0.2028
     64  C         10.3330  -11.0770    8.4040 C.2   368  THR368      0.2642
     65  O          9.4060  -10.2920    8.2100 O.2   368  THR368     -0.2714
     66  CB        10.1000  -13.5230    7.8310 C.3   368  THR368      0.1808
     67  OG1       11.0400  -14.1170    8.7230 O.3   368  THR368     -0.2208
     68  CG2        9.8770  -14.4950    6.6790 C.3   368  THR368      0.0379
     69  N         11.1200  -11.0350    9.5050 N.am  369  ILE369     -0.1977
     70  CA        10.9550  -10.0770   10.6140 C.3   369  ILE369      0.1596
     71  C         11.2170   -8.6450   10.1580 C.2   369  ILE369      0.2287
     72  O         10.4000   -7.7760   10.4580 O.2   369  ILE369     -0.2864
     73  CB        11.8300  -10.4210   11.8640 C.3   369  ILE369      0.0276
     74  CG1       11.8450  -11.9360   12.2380 C.3   369  ILE369      0.0022
     75  CG2       11.5130   -9.5070   13.0540 C.3   369  ILE369      0.0022
     76  CD1       10.5330  -12.6600   12.4430 C.3   369  ILE369      0.0001
     77  N         22.3230  -15.4400   -1.8710 N.3   390  VAL390     -0.1231
     78  CA        22.7230  -15.0410   -0.5200 C.3   390  VAL390      0.1692
     79  C         23.9320  -15.8640   -0.0420 C.2   390  VAL390      0.2591
     80  O         24.5110  -15.5230    0.9770 O.2   390  VAL390     -0.2718
     81  CB        21.5560  -15.0880    0.5100 C.3   390  VAL390      0.0266
     82  CG1       21.2240  -16.5240    0.9460 C.3   390  VAL390      0.0020
     83  CG2       21.8600  -14.1940    1.7130 C.3   390  VAL390      0.0020
     84  N         24.3150  -16.9220   -0.7710 N.am  391  ARG391     -0.1980
     85  CA        25.4640  -17.7570   -0.4110 C.3   391  ARG391      0.1597
     86  C         26.7640  -16.9650   -0.5240 C.2   391  ARG391      0.2287
     87  O         27.7090  -17.2420    0.2000 O.2   391  ARG391     -0.2864
     88  CB        25.5160  -19.0490   -1.2530 C.3   391  ARG391      0.0334
     89  CG        24.5420  -20.1270   -0.7520 C.3   391  ARG391      0.0492
     90  CD        24.6010  -21.3920   -1.5860 C.3   391  ARG391      0.2205
     91  NE        23.2460  -21.8210   -1.9110 N.pl3 391  ARG391     -0.0865
     92  CZ        22.6110  -22.8590   -1.3840 C.cat 391  ARG391      0.5346
     93  NH1       23.2320  -23.6730   -0.5500 N.pl3 391  ARG391      0.1354
     94  NH2       21.3680  -23.1210   -1.7310 N.pl3 391  ARG391      0.1354
     95  N         27.0250  -13.9800    0.5390 N.3   393  ARG393     -0.1245
     96  CA        26.9280  -13.0600    1.6930 C.3   393  ARG393      0.1563
     97  C         26.6970  -11.6200    1.2360 C.2   393  ARG393      0.2260
     98  O         27.4860  -10.7120    1.5680 O.2   393  ARG393     -0.2867
     99  CB        28.1920  -13.1110    2.6190 C.3   393  ARG393      0.0307
    100  CG        28.2590  -14.0910    3.7890 C.3   393  ARG393      0.0489
    101  CD        27.2210  -14.0720    4.9210 C.3   393  ARG393      0.2205
    102  NE        25.8600  -14.4830    4.5240 N.pl3 393  ARG393     -0.0865
    103  CZ        25.4680  -15.7140    4.1740 C.cat 393  ARG393      0.5346
    104  NH1       26.3360  -16.7120    4.1320 N.pl3 393  ARG393      0.1354
    105  NH2       24.2090  -15.9460    3.8490 N.pl3 393  ARG393      0.1354
@<TRIPOS>BOND
     1    91    90    1
     2    91    92    2
     3    77    78    1
     4    94    92    1
     5    90    89    1
     6    92    93    1
     7    88    89    1
     8    88    85    1
     9    84    85    1
    10    84    79   am
    11    86    85    1
    12    86    87    2
    13    78    79    1
    14    78    81    1
    15    79    80    2
    16    81    82    1
    17    81    83    1
    18    95    96    1
    19    97    98    2
    20    97    96    1
    21    52    51    1
    22    96    99    1
    23    99   100    1
    24    51    53    1
    25    51    50    2
    26    43    44    1
    27    49    50    1
    28    49    48    1
    29    48    47    1
    30    47    44    1
    31    38    37    2
    32   100   101    1
    33   105   103    1
    34    44    45    1
    35   104   103    1
    36   103   102    2
    37    61    59   am
    38   102   101    1
    39    37    36    1
    40    41    40    2
    41    54    45   am
    42    54    55    1
    43    45    46    2
    44    36    39    1
    45    36    35    1
    46    39    40    1
    47    59    58    1
    48    59    60    2
    49    40    42   am
    50    58    55    1
    51    24    23    2
    52    55    56    1
    53    57    56    2
    54    56    62   am
    55    35    23   am
    56    68    66    1
    57    23    22    1
    58    62    63    1
    59    29    30   ar
    60    29    27   ar
    61    63    66    1
    62    63    64    1
    63    32    30   ar
    64    32    34   ar
    65    30    28   ar
    66    27    26   ar
    67    15    14    2
    68    66    67    1
    69    34    33   ar
    70    65    64    2
    71    22    21    1
    72    22    25    1
    73    28    26   ar
    74    28    31   ar
    75    26    25    1
    76    64    69   am
    77    33    31   ar
    78    14    13    1
    79     4     3    2
    80    13    16    1
    81    13    12    1
    82    20    18   ar
    83    69    70    1
    84    18    17    1
    85    18    19   ar
    86    16    17    1
    87    71    72    2
    88    71    70    1
    89     3    12   am
    90     3     2    1
    91    70    73    1
    92     6     7    1
    93     6     5    1
    94     7     8    1
    95     2     5    1
    96     2     1    1
    97    73    74    1
    98    73    75    1
    99    74    76    1
   100    10     9    1
   101     8     9    2
   102     9    11    1
