@<TRIPOS>MOLECULE
tmp/4bofF00.pdb
 88 86 0 0 0
SMALL
GASTEIGER

@<TRIPOS>ATOM
      1  N         16.3650  -24.6130   13.7180 N.3    26  ILE26      -0.1231
      2  CA        16.9940  -23.9870   12.5480 C.3    26  ILE26       0.1692
      3  C         16.8870  -22.4610   12.6740 C.2    26  ILE26       0.2591
      4  O         17.7340  -21.7300   12.1600 O.2    26  ILE26      -0.2718
      5  CB        16.2920  -24.5380   11.2500 C.3    26  ILE26       0.0266
      6  CG1       16.6050  -26.0350   11.0060 C.3    26  ILE26       0.0019
      7  CG2       16.5480  -23.6650    9.9840 C.3    26  ILE26       0.0020
      8  CD1       18.0490  -26.4350   11.0690 C.3    26  ILE26       0.0001
      9  N         15.8340  -21.9900   13.3440 N.am   27  GLU27      -0.1979
     10  CA        15.5670  -20.5740   13.5950 C.3    27  GLU27       0.1602
     11  C         16.4840  -20.0510   14.6740 C.2    27  GLU27       0.2287
     12  O         16.8330  -18.8720   14.6760 O.2    27  GLU27      -0.2864
     13  CB        14.1080  -20.3890   14.0280 C.3    27  GLU27       0.0415
     14  CG        13.2850  -19.5660   13.0620 C.3    27  GLU27       0.1163
     15  CD        11.8980  -19.2550   13.5840 C.2    27  GLU27       0.3649
     16  OE1       11.7650  -18.5520   14.6150 O.co2  27  GLU27      -0.2457
     17  OE2       10.9310  -19.7210   12.9460 O.co2  27  GLU27      -0.2457
     18  N         25.6910  -23.0660    6.9670 N.3    41  ASP41      -0.1225
     19  CA        25.0100  -21.8090    6.7290 C.3    41  ASP41       0.1805
     20  C         23.7330  -21.8390    7.5270 C.2    41  ASP41       0.2598
     21  O         23.3450  -22.8980    8.0140 O.2    41  ASP41      -0.2718
     22  CB        24.7550  -21.6330    5.2100 C.3    41  ASP41       0.1424
     23  CG        24.6160  -20.2090    4.7080 C.2    41  ASP41       0.3668
     24  OD1       24.0930  -19.3600    5.4640 O.co2  41  ASP41      -0.2456
     25  OD2       24.9910  -19.9490    3.5330 O.co2  41  ASP41      -0.2456
     26  N         23.1230  -20.6780    7.7470 N.am   42  ILE42      -0.1966
     27  CA        21.8490  -20.5620    8.4610 C.3    42  ILE42       0.1712
     28  C         20.7210  -20.7200    7.4050 C.2    42  ILE42       0.2458
     29  O         20.6860  -19.9210    6.5280 O.2    42  ILE42      -0.2730
     30  CB        21.7880  -19.1890    9.2210 C.3    42  ILE42       0.0289
     31  CG1       22.9990  -19.0410   10.1500 C.3    42  ILE42       0.0022
     32  CG2       20.4570  -19.0130    9.9870 C.3    42  ILE42       0.0023
     33  CD1       23.2610  -17.7140   10.7090 C.3    42  ILE42       0.0001
     34  N         19.8430  -21.7100    7.3550 N.am   43  PRO43      -0.2716
     35  CA        18.8380  -21.7170    6.2600 C.3    43  PRO43       0.1536
     36  C         17.5480  -20.9770    6.5980 C.2    43  PRO43       0.2599
     37  O         17.2900  -20.7850    7.7660 O.2    43  PRO43      -0.2715
     38  CB        18.5220  -23.2020    6.0720 C.3    43  PRO43       0.0310
     39  CG        19.0800  -23.9060    7.3350 C.3    43  PRO43       0.0237
     40  CD        19.7350  -22.8930    8.2300 C.3    43  PRO43       0.0939
     41  N         16.6990  -20.6060    5.5730 N.am   44  PHE44      -0.1960
     42  CA        15.3750  -19.9930    5.7440 C.3    44  PHE44       0.1771
     43  C         14.3700  -21.1190    6.0880 C.2    44  PHE44       0.2619
     44  O         14.0350  -21.9170    5.2290 O.2    44  PHE44      -0.2715
     45  CB        14.9980  -19.2020    4.5060 C.3    44  PHE44       0.0574
     46  CG        13.6270  -18.5550    4.4620 C.ar   44  PHE44      -0.0200
     47  CD1       13.0240  -18.0780    5.6160 C.ar   44  PHE44      -0.0042
     48  CD2       12.9700  -18.3510    3.2490 C.ar   44  PHE44      -0.0042
     49  CE1       11.7570  -17.4670    5.5670 C.ar   44  PHE44      -0.0003
     50  CE2       11.7110  -17.7330    3.2070 C.ar   44  PHE44      -0.0003
     51  CZ        11.1130  -17.3040    4.3660 C.ar   44  PHE44      -0.0000
     52  N         13.9730  -21.2190    7.3610 N.am   45  LEU45      -0.1963
     53  CA        13.0900  -22.2470    7.9100 C.3    45  LEU45       0.1728
     54  C         11.8500  -22.5220    7.0560 C.2    45  LEU45       0.2616
     55  O         11.5890  -23.6910    6.7360 O.2    45  LEU45      -0.2715
     56  CB        12.6510  -21.9340    9.3550 C.3    45  LEU45       0.0311
     57  CG        11.8400  -23.0350   10.0520 C.3    45  LEU45       0.0022
     58  CD1       12.5910  -24.3680   10.0430 C.3    45  LEU45       0.0001
     59  CD2       11.4800  -22.6350   11.4840 C.3    45  LEU45       0.0001
     60  N         11.0830  -21.4770    6.7030 N.am   46  GLU46      -0.1977
     61  CA         9.8710  -21.6190    5.8910 C.3    46  GLU46       0.1602
     62  C         10.1780  -22.3480    4.5650 C.2    46  GLU46       0.2287
     63  O          9.4460  -23.2800    4.2070 O.2    46  GLU46      -0.2864
     64  CB         9.2340  -20.2530    5.6240 C.3    46  GLU46       0.0415
     65  CG         7.9560  -20.3010    4.7940 C.3    46  GLU46       0.1163
     66  CD         7.6460  -18.9980    4.0830 C.2    46  GLU46       0.3649
     67  OE1        7.4040  -17.9880    4.7830 O.co2  46  GLU46      -0.2457
     68  OE2        7.6750  -18.9750    2.8300 O.co2  46  GLU46      -0.2457
     69  N         17.8870  -25.0770    0.6370 N.3   389  GLU389     -0.1245
     70  CA        17.9270  -24.7490    2.0740 C.3   389  GLU389      0.1567
     71  C         18.3880  -25.9370    2.9080 C.2   389  GLU389      0.2260
     72  O         19.1520  -25.7450    3.8150 O.2   389  GLU389     -0.2867
     73  CB        16.5570  -24.2610    2.5710 C.3   389  GLU389      0.0388
     74  CG        16.0290  -23.0210    1.8760 C.3   389  GLU389      0.1160
     75  CD        16.7740  -21.7130    2.0790 C.2   389  GLU389      0.3649
     76  OE1       17.4870  -21.5560    3.0950 O.co2 389  GLU389     -0.2457
     77  OE2       16.5790  -20.8020    1.2460 O.co2 389  GLU389     -0.2457
     78  N         22.2050  -26.9570    3.1820 N.3   392  ARG392     -0.1245
     79  CA        22.9990  -26.0650    4.0240 C.3   392  ARG392      0.1563
     80  C         23.5270  -26.8070    5.2340 C.2   392  ARG392      0.2260
     81  O         24.5640  -26.4340    5.7750 O.2   392  ARG392     -0.2867
     82  CB        22.1920  -24.8170    4.4510 C.3   392  ARG392      0.0307
     83  CG        22.2190  -23.7480    3.3830 C.3   392  ARG392      0.0489
     84  CD        21.4700  -22.5030    3.7860 C.3   392  ARG392      0.2205
     85  NE        20.5950  -22.1310    2.6870 N.pl3 392  ARG392     -0.0865
     86  CZ        20.7790  -21.0970    1.8850 C.cat 392  ARG392      0.5346
     87  NH1       21.7620  -20.2460    2.1090 N.pl3 392  ARG392      0.1354
     88  NH2       19.9510  -20.8820    0.8780 N.pl3 392  ARG392      0.1354
@<TRIPOS>BOND
     1    69    70    1
     2    88    86    1
     3    77    75   ar
     4    74    75    1
     5    74    73    1
     6    86    87    1
     7    86    85    2
     8    70    73    1
     9    70    71    1
    10    75    76   ar
    11    85    84    1
    12    68    66   ar
    13    71    72    2
    14    78    79    1
    15    50    48   ar
    16    50    51   ar
    17    48    46   ar
    18    83    84    1
    19    83    82    1
    20    25    23   ar
    21    79    82    1
    22    79    80    1
    23    66    67   ar
    24    66    65    1
    25    63    62    2
    26    51    49   ar
    27    46    45    1
    28    46    47   ar
    29    45    42    1
    30    62    61    1
    31    23    22    1
    32    23    24   ar
    33    65    64    1
    34    22    19    1
    35    44    43    2
    36    80    81    2
    37    49    47   ar
    38    41    42    1
    39    41    36   am
    40    64    61    1
    41    42    43    1
    42    61    60    1
    43    38    35    1
    44    38    39    1
    45    43    52   am
    46    35    36    1
    47    35    34    1
    48    29    28    2
    49    36    37    2
    50    60    54   am
    51    19    18    1
    52    19    20    1
    53    55    54    2
    54    54    53    1
    55    39    40    1
    56    34    28   am
    57    34    40    1
    58    52    53    1
    59    28    27    1
    60    20    26   am
    61    20    21    2
    62    26    27    1
    63    53    56    1
    64    27    30    1
    65    30    32    1
    66    30    31    1
    67    56    57    1
    68     7     5    1
    69    58    57    1
    70    57    59    1
    71    31    33    1
    72     6     8    1
    73     6     5    1
    74     5     2    1
    75     4     3    2
    76     2     3    1
    77     2     1    1
    78     3     9   am
    79    17    15   ar
    80    14    15    1
    81    14    13    1
    82     9    10    1
    83    15    16   ar
    84    10    13    1
    85    10    11    1
    86    11    12    2
