@<TRIPOS>MOLECULE
tmp/4bofF01.pdb
 112 107 0 0 0
SMALL
GASTEIGER

@<TRIPOS>ATOM
      1  N         30.3500  -25.0760   15.7850 N.3    36  ARG36      -0.1231
      2  CA        30.0400  -26.1010   16.7810 C.3    36  ARG36       0.1694
      3  C         28.7950  -26.9100   16.3970 C.2    36  ARG36       0.2591
      4  O         28.8530  -28.1490   16.2910 O.2    36  ARG36      -0.2718
      5  CB        29.8280  -25.4720   18.1780 C.3    36  ARG36       0.0321
      6  CG        30.0500  -23.9620   18.2750 C.3    36  ARG36       0.0489
      7  CD        30.1500  -23.5480   19.7260 C.3    36  ARG36       0.2205
      8  NE        28.9400  -23.9200   20.4510 N.pl3  36  ARG36      -0.0865
      9  CZ        28.1010  -23.0590   21.0130 C.cat  36  ARG36       0.5346
     10  NH1       28.3740  -21.7590   21.0180 N.pl3  36  ARG36       0.1354
     11  NH2       27.0100  -23.4920   21.6230 N.pl3  36  ARG36       0.1354
     12  N         27.6820  -26.1970   16.1500 N.am   37  LEU37      -0.1980
     13  CA        26.3990  -26.8130   15.8590 C.3    37  LEU37       0.1596
     14  C         26.3840  -27.5290   14.4790 C.2    37  LEU37       0.2287
     15  O         25.3210  -27.8690   13.9620 O.2    37  LEU37      -0.2864
     16  CB        25.2910  -25.7620   15.9930 C.3    37  LEU37       0.0297
     17  CG        25.2610  -25.0120   17.3340 C.3    37  LEU37       0.0022
     18  CD1       24.3390  -23.8220   17.2790 C.3    37  LEU37       0.0001
     19  CD2       24.8830  -25.9340   18.4740 C.3    37  LEU37       0.0001
     20  N         21.1970  -31.1800   28.9270 N.3    94  ALA94      -0.1231
     21  CA        21.0700  -29.9050   28.2400 C.3    94  ALA94       0.1694
     22  C         22.1120  -28.8940   28.6090 C.2    94  ALA94       0.2592
     23  O         21.9930  -27.7720   28.1560 O.2    94  ALA94      -0.2718
     24  CB        19.6810  -29.3240   28.4980 C.3    94  ALA94       0.0304
     25  N         23.1000  -29.2530   29.4470 N.am   95  ASN95      -0.1974
     26  CA        24.2000  -28.4020   29.8790 C.3    95  ASN95       0.1688
     27  C         23.7260  -26.9850   30.2850 C.2    95  ASN95       0.2292
     28  O         24.2750  -25.9740   29.8280 O.2    95  ASN95      -0.2864
     29  CB        25.2970  -28.3280   28.7910 C.3    95  ASN95       0.1181
     30  CG        25.7820  -29.6710   28.2990 C.2    95  ASN95       0.2629
     31  OD1       26.3640  -30.4670   29.0370 O.2    95  ASN95      -0.2716
     32  ND2       25.5450  -29.9600   27.0410 N.am   95  ASN95      -0.0877
     33  N         23.3880  -23.7710   32.5340 N.3    97  ARG97      -0.1245
     34  CA        24.2420  -23.0020   33.4240 C.3    97  ARG97       0.1563
     35  C         23.3490  -22.3670   34.4950 C.2    97  ARG97       0.2260
     36  O         22.6060  -21.4290   34.1970 O.2    97  ARG97      -0.2867
     37  CB        25.0480  -21.9410   32.6310 C.3    97  ARG97       0.0307
     38  CG        25.9370  -22.5060   31.5090 C.3    97  ARG97       0.0489
     39  CD        26.8040  -21.4420   30.8320 C.3    97  ARG97       0.2205
     40  NE        26.0150  -20.3780   30.2000 N.pl3  97  ARG97      -0.0865
     41  CZ        26.4460  -19.5790   29.2240 C.cat  97  ARG97       0.5346
     42  NH1       27.6710  -19.7220   28.7250 N.pl3  97  ARG97       0.1354
     43  NH2       25.6480  -18.6500   28.7240 N.pl3  97  ARG97       0.1354
     44  N         26.0150  -14.8110   25.6760 N.3   149  TYR149     -0.1241
     45  CA        25.4790  -15.9960   25.0190 C.3   149  TYR149      0.1605
     46  C         23.9290  -15.9930   25.1040 C.2   149  TYR149      0.2264
     47  O         23.3790  -15.8400   26.1910 O.2   149  TYR149     -0.2867
     48  CB        26.0920  -17.2770   25.6000 C.3   149  TYR149      0.0534
     49  CG        25.8580  -18.4670   24.6970 C.ar  149  TYR149     -0.0201
     50  CD1       26.4370  -18.5320   23.4330 C.ar  149  TYR149     -0.0009
     51  CD2       25.0110  -19.5000   25.0810 C.ar  149  TYR149     -0.0009
     52  CE1       26.1760  -19.5880   22.5770 C.ar  149  TYR149      0.0417
     53  CE2       24.7650  -20.5770   24.2410 C.ar  149  TYR149      0.0417
     54  CZ        25.3430  -20.6080   22.9850 C.ar  149  TYR149      0.1957
     55  OH        25.1050  -21.6570   22.1460 O.3   149  TYR149     -0.2866
     56  N         21.4780  -18.3240   24.4090 N.3   151  PHE151     -0.1227
     57  CA        20.7060  -19.5400   24.6970 C.3   151  PHE151      0.1736
     58  C         20.9070  -20.0810   26.0900 C.2   151  PHE151      0.2595
     59  O         22.0350  -20.1160   26.5840 O.2   151  PHE151     -0.2718
     60  CB        21.0280  -20.6610   23.6830 C.3   151  PHE151      0.0547
     61  CG        20.7580  -20.2430   22.2630 C.ar  151  PHE151     -0.0202
     62  CD1       19.4500  -20.1000   21.7970 C.ar  151  PHE151     -0.0042
     63  CD2       21.8060  -19.9170   21.4090 C.ar  151  PHE151     -0.0042
     64  CE1       19.1990  -19.6490   20.5020 C.ar  151  PHE151     -0.0003
     65  CE2       21.5530  -19.4900   20.1030 C.ar  151  PHE151     -0.0003
     66  CZ        20.2510  -19.3490   19.6670 C.ar  151  PHE151     -0.0000
     67  N         19.7890  -20.5270   26.7090 N.am  152  ALA152     -0.1980
     68  CA        19.7630  -21.2190   28.0020 C.3   152  ALA152      0.1597
     69  C         19.9800  -22.7360   27.7290 C.2   152  ALA152      0.2287
     70  O         20.6840  -23.4470   28.4630 O.2   152  ALA152     -0.2864
     71  CB        18.4490  -20.9580   28.7060 C.3   152  ALA152      0.0319
     72  N         20.8290  -24.8930   24.0200 N.3   154  ASP154     -0.1225
     73  CA        21.1760  -24.8630   22.6120 C.3   154  ASP154      0.1790
     74  C         20.2020  -25.6380   21.7690 C.2   154  ASP154      0.2440
     75  O         19.7060  -26.6700   22.2160 O.2   154  ASP154     -0.2733
     76  CB        22.5660  -25.4730   22.3970 C.3   154  ASP154      0.1423
     77  CG        23.7770  -24.5840   22.7190 C.2   154  ASP154      0.3668
     78  OD1       23.5970  -23.3680   22.9030 O.co2 154  ASP154     -0.2456
     79  OD2       24.8960  -25.1050   22.7610 O.co2 154  ASP154     -0.2456
     80  N         19.9450  -25.2230   20.5010 N.am  155  PRO155     -0.2718
     81  CA        19.0900  -26.0620   19.6220 C.3   155  PRO155      0.1535
     82  C         19.8530  -27.3210   19.1690 C.2   155  PRO155      0.2598
     83  O         21.0680  -27.4020   19.4000 O.2   155  PRO155     -0.2715
     84  CB        18.8030  -25.1280   18.4510 C.3   155  PRO155      0.0310
     85  CG        20.0030  -24.2410   18.3740 C.3   155  PRO155      0.0237
     86  CD        20.4620  -24.0240   19.7830 C.3   155  PRO155      0.0939
     87  N         19.1640  -28.2950   18.5190 N.am  156  MET156     -0.1978
     88  CA        19.7900  -29.4910   17.8860 C.3   156  MET156      0.1605
     89  C         19.4930  -29.3630   16.3870 C.2   156  MET156      0.2287
     90  O         18.5100  -29.9480   15.9280 O.2   156  MET156     -0.2864
     91  CB        19.2580  -30.8220   18.4810 C.3   156  MET156      0.0413
     92  CG        19.4050  -30.9320   19.9850 C.3   156  MET156      0.0598
     93  SD        18.7700  -32.4810   20.6000 S.3   156  MET156     -0.1393
     94  CE        17.7750  -31.9130   21.9870 C.3   156  MET156      0.0692
     95  N         27.6400  -33.3890   22.1870 N.3   182  THR182     -0.1218
     96  CA        26.6660  -32.3450   21.9380 C.3   182  THR182      0.1862
     97  C         25.6770  -32.8130   20.8410 C.2   182  THR182      0.2287
     98  O         24.4790  -32.5620   20.9800 O.2   182  THR182     -0.2866
     99  CB        27.4210  -31.0430   21.6170 C.3   182  THR182      0.1770
    100  OG1       28.4220  -31.3110   20.6300 O.3   182  THR182     -0.2211
    101  CG2       28.1000  -30.4390   22.8610 C.3   182  THR182      0.0375
    102  N         23.0460  -35.4900   22.0230 N.3   185  ARG185     -0.1245
    103  CA        21.8130  -35.0950   22.7200 C.3   185  ARG185      0.1563
    104  C         20.5800  -35.5850   21.9410 C.2   185  ARG185      0.2260
    105  O         19.5400  -35.8550   22.5370 O.2   185  ARG185     -0.2867
    106  CB        21.7490  -33.5790   22.9360 C.3   185  ARG185      0.0307
    107  CG        22.7530  -33.0250   23.9510 C.3   185  ARG185      0.0489
    108  CD        22.6140  -31.4950   24.1010 C.3   185  ARG185      0.2205
    109  NE        21.2670  -31.0640   24.5290 N.pl3 185  ARG185     -0.0865
    110  CZ        20.5880  -30.0320   24.0190 C.cat 185  ARG185      0.5346
    111  NH1       21.1330  -29.2620   23.0950 N.pl3 185  ARG185      0.1354
    112  NH2       19.3640  -29.7610   24.4400 N.pl3 185  ARG185      0.1354
@<TRIPOS>BOND
     1    15    14    2
     2    14    13    1
     3     1     2    1
     4    13    16    1
     5    13    12    1
     6    90    89    2
     7    16    17    1
     8    12     3   am
     9     4     3    2
    10    89    88    1
    11     3     2    1
    12     2     5    1
    13    18    17    1
    14    17    19    1
    15    88    91    1
    16    88    87    1
    17     5     6    1
    18     6     7    1
    19    85    84    1
    20    85    86    1
    21    84    81    1
    22    91    92    1
    23    87    82   am
    24    82    83    2
    25    82    81    1
    26    81    80    1
    27    66    65   ar
    28    66    64   ar
    29     7     8    1
    30    86    80    1
    31    92    93    1
    32    65    63   ar
    33     8     9    2
    34    80    74   am
    35    64    62   ar
    36    93    94    1
    37   100    99    1
    38    97    98    2
    39    97    96    1
    40     9    10    1
    41     9    11    1
    42    63    61   ar
    43    99    96    1
    44    99   101    1
    45    74    75    2
    46    74    73    1
    47    62    61   ar
    48    96    95    1
    49   104   105    2
    50   104   103    1
    51   102   103    1
    52    55    54    1
    53    61    60    1
    54    76    73    1
    55    76    77    1
    56    52    54   ar
    57    52    50   ar
    58    73    72    1
    59    77    79   ar
    60    77    78   ar
    61   103   106    1
    62   106   107    1
    63    54    53   ar
    64   111   110    1
    65    50    49   ar
    66    60    57    1
    67   107   108    1
    68   110   112    1
    69   110   109    2
    70   108   109    1
    71    53    51   ar
    72    56    57    1
    73    57    58    1
    74    49    51   ar
    75    49    48    1
    76    45    46    1
    77    45    48    1
    78    45    44    1
    79    46    47    2
    80    58    59    2
    81    58    67   am
    82    67    68    1
    83    32    30   am
    84    69    68    1
    85    69    70    2
    86    68    71    1
    87    23    22    2
    88    21    24    1
    89    21    22    1
    90    21    20    1
    91    30    29    1
    92    30    31    2
    93    22    25   am
    94    43    41    1
    95    42    41    1
    96    29    26    1
    97    41    40    2
    98    25    26    1
    99    28    27    2
   100    26    27    1
   101    40    39    1
   102    39    38    1
   103    38    37    1
   104    33    34    1
   105    37    34    1
   106    34    35    1
   107    36    35    2
