@<TRIPOS>MOLECULE
tmp/4bojA00.pdb
 126 119 0 0 0
SMALL
GASTEIGER

@<TRIPOS>ATOM
      1  N         19.9670   13.6640   30.9330 N.3    86  ASP86      -0.1239
      2  CA        19.3560   14.6270   30.0190 C.3    86  ASP86       0.1674
      3  C         18.2360   14.0220   29.1560 C.2    86  ASP86       0.2266
      4  O         17.1870   14.6470   29.0490 O.2    86  ASP86      -0.2867
      5  CB        20.4150   15.4230   29.2160 C.3    86  ASP86       0.1410
      6  CG        21.3730   14.5560   28.4240 C.2    86  ASP86       0.3668
      7  OD1       21.4290   13.3220   28.6010 O.co2  86  ASP86      -0.2456
      8  OD2       22.1150   15.1840   27.6340 O.co2  86  ASP86      -0.2456
      9  N         25.2390   14.6850   34.5400 N.3   134  TRP134     -0.1241
     10  CA        24.8370   14.4120   33.1590 C.3   134  TRP134      0.1605
     11  C         24.3160   12.9700   33.0160 C.2   134  TRP134      0.2264
     12  O         23.2860   12.7360   32.3710 O.2   134  TRP134     -0.2867
     13  CB        26.0400   14.6230   32.2340 C.3   134  TRP134      0.0550
     14  CG        25.7150   14.4880   30.8000 C.ar  134  TRP134      0.0003
     15  CD1       24.6350   15.0040   30.1360 C.ar  134  TRP134      0.0946
     16  CD2       26.5040   13.8300   29.8150 C.ar  134  TRP134      0.0152
     17  NE1       24.6920   14.6860   28.8010 N.ar  134  TRP134     -0.2442
     18  CE2       25.8360   13.9610   28.5800 C.ar  134  TRP134      0.0810
     19  CE3       27.7360   13.1560   29.8610 C.ar  134  TRP134      0.0012
     20  CZ2       26.3470   13.4460   27.3820 C.ar  134  TRP134      0.0191
     21  CZ3       28.2460   12.6250   28.6740 C.ar  134  TRP134      0.0001
     22  CH2       27.5360   12.7680   27.4500 C.ar  134  TRP134      0.0015
     23  N         26.1350   19.2890   33.6800 N.3   143  ASN143     -0.1240
     24  CA        26.0350   19.9690   32.4020 C.3   143  ASN143      0.1653
     25  C         24.8540   20.9320   32.3230 C.2   143  ASN143      0.2266
     26  O         23.7900   20.6630   32.9250 O.2   143  ASN143     -0.2867
     27  CB        25.9140   18.9650   31.2470 C.3   143  ASN143      0.1155
     28  CG        27.0870   17.9980   31.1370 C.2   143  ASN143      0.2627
     29  OD1       27.6610   17.5680   32.1300 O.2   143  ASN143     -0.2716
     30  ND2       27.4240   17.6970   29.8940 N.am  143  ASN143     -0.0877
     31  N         22.9610   21.1440   29.8280 N.3   145  CYS145     -0.1235
     32  CA        21.9030   20.4640   29.0780 C.3   145  CYS145      0.1677
     33  C         21.0740   19.5040   29.8880 C.2   145  CYS145      0.2270
     34  O         20.1080   19.0020   29.3540 O.2   145  CYS145     -0.2867
     35  CB        22.4850   19.7440   27.8570 C.3   145  CYS145      0.0956
     36  SG        23.6080   18.3450   28.3080 S.3   145  CYS145     -0.0801
     37  N         29.0770   25.0310   28.9160 N.3   190  ASP190     -0.1225
     38  CA        28.5690   23.7090   28.5990 C.3   190  ASP190      0.1805
     39  C         28.4590   22.8360   29.8360 C.2   190  ASP190      0.2597
     40  O         27.4380   22.1390   30.0160 O.2   190  ASP190     -0.2718
     41  CB        29.4510   23.0330   27.5710 C.3   190  ASP190      0.1424
     42  CG        28.7510   21.8580   26.9570 C.2   190  ASP190      0.3668
     43  OD1       27.9020   22.1340   26.0650 O.co2 190  ASP190     -0.2456
     44  OD2       29.0170   20.6970   27.3950 O.co2 190  ASP190     -0.2456
     45  N         29.5110   22.7730   30.6560 N.am  191  ARG191     -0.1979
     46  CA        29.5410   21.8570   31.7410 C.3   191  ARG191      0.1597
     47  C         30.7260   22.0990   32.6570 C.2   191  ARG191      0.2287
     48  O         31.6030   22.9090   32.3330 O.2   191  ARG191     -0.2864
     49  CB        29.5940   20.3960   31.2140 C.3   191  ARG191      0.0334
     50  CG        30.8980   20.0690   30.4420 C.3   191  ARG191      0.0492
     51  CD        30.7720   18.7460   29.6440 C.3   191  ARG191      0.2205
     52  NE        32.0720   18.4490   29.0140 N.pl3 191  ARG191     -0.0865
     53  CZ        32.4570   18.9990   27.8710 C.cat 191  ARG191      0.5346
     54  NH1       31.7290   19.8600   27.1700 N.pl3 191  ARG191      0.1354
     55  NH2       33.6830   18.7240   27.4230 N.pl3 191  ARG191      0.1354
     56  N         34.1190   23.9630   31.3670 N.3   199  VAL199     -0.1245
     57  CA        34.2580   24.0050   29.9430 C.3   199  VAL199      0.1561
     58  C         33.3350   25.1210   29.4530 C.2   199  VAL199      0.2260
     59  O         32.1170   24.8780   29.2580 O.2   199  VAL199     -0.2867
     60  CB        33.8850   22.6470   29.3180 C.3   199  VAL199      0.0252
     61  CG1       34.0750   22.7070   27.8180 C.3   199  VAL199      0.0019
     62  CG2       34.7120   21.5170   29.9520 C.3   199  VAL199      0.0019
     63  N         32.2680   26.7010   26.8710 N.3   201  ASP201     -0.1225
     64  CA        31.8880   26.7080   25.4720 C.3   201  ASP201      0.1805
     65  C         30.3800   26.9400   25.4820 C.2   201  ASP201      0.2598
     66  O         29.6540   26.1030   26.0590 O.2   201  ASP201     -0.2718
     67  CB        32.0750   25.3130   24.8080 C.3   201  ASP201      0.1424
     68  CG        33.5250   24.8890   24.5240 C.2   201  ASP201      0.3668
     69  OD1       34.4090   25.7450   24.4210 O.co2 201  ASP201     -0.2456
     70  OD2       33.7490   23.6400   24.3780 O.co2 201  ASP201     -0.2456
     71  N         29.9270   27.9960   24.8410 N.am  202  ALA202     -0.1966
     72  CA        28.5040   28.3200   24.7850 C.3   202  ALA202      0.1728
     73  C         27.8830   27.8480   23.4760 C.2   202  ALA202      0.2616
     74  O         28.5090   27.8600   22.4170 O.2   202  ALA202     -0.2715
     75  CB        28.3080   29.8410   24.9310 C.3   202  ALA202      0.0334
     76  N         26.5950   27.4710   23.5540 N.am  203  THR203     -0.1951
     77  CA        25.8520   26.9860   22.3930 C.3   203  THR203      0.1897
     78  C         24.4160   27.4500   22.4540 C.2   203  THR203      0.2313
     79  O         23.9070   27.8500   23.5270 O.2   203  THR203     -0.2863
     80  CB        25.8380   25.4430   22.3110 C.3   203  THR203      0.1794
     81  OG1       25.3020   24.9230   23.5140 O.3   203  THR203     -0.2208
     82  CG2       27.2740   24.8830   22.0890 C.3   203  THR203      0.0378
     83  N         21.4870   25.8590   22.3240 N.3   205  TYR205     -0.1227
     84  CA        20.4370   25.2270   23.1310 C.3   205  TYR205      0.1736
     85  C         20.6150   25.4950   24.6090 C.2   205  TYR205      0.2595
     86  O         19.6420   25.4910   25.3620 O.2   205  TYR205     -0.2718
     87  CB        20.2510   23.7310   22.8370 C.3   205  TYR205      0.0548
     88  CG        21.2750   22.7490   23.4110 C.ar  205  TYR205     -0.0200
     89  CD1       22.6560   22.9960   23.4030 C.ar  205  TYR205     -0.0009
     90  CD2       20.8530   21.5120   23.9020 C.ar  205  TYR205     -0.0009
     91  CE1       23.5640   22.0260   23.8880 C.ar  205  TYR205      0.0417
     92  CE2       21.7640   20.5530   24.3730 C.ar  205  TYR205      0.0417
     93  CZ        23.1050   20.8390   24.3610 C.ar  205  TYR205      0.1957
     94  OH        23.9470   19.8320   24.8230 O.3   205  TYR205     -0.2866
     95  N         21.8440   25.7120   25.0650 N.am  206  ASN206     -0.1974
     96  CA        22.0740   26.0070   26.4700 C.3   206  ASN206      0.1688
     97  C         21.7440   27.4920   26.7560 C.2   206  ASN206      0.2292
     98  O         21.1790   27.7670   27.8360 O.2   206  ASN206     -0.2864
     99  CB        23.4900   25.6420   26.8860 C.3   206  ASN206      0.1181
    100  CG        23.6530   24.1440   27.0630 C.2   206  ASN206      0.2629
    101  OD1       22.7200   23.4200   27.4370 O.2   206  ASN206     -0.2716
    102  ND2       24.8750   23.6520   26.8720 N.am  206  ASN206     -0.0877
    103  N         28.5450   18.5180   14.8630 N.3   254  ASN254     -0.1240
    104  CA        28.0690   17.7880   16.0200 C.3   254  ASN254      0.1653
    105  C         26.5460   17.5340   15.9050 C.2   254  ASN254      0.2266
    106  O         25.7800   18.4940   15.7040 O.2   254  ASN254     -0.2867
    107  CB        28.3940   18.5630   17.2810 C.3   254  ASN254      0.1155
    108  CG        27.9330   17.8630   18.5120 C.2   254  ASN254      0.2627
    109  OD1       26.6930   17.8690   18.8500 O.2   254  ASN254     -0.2716
    110  ND2       28.8780   17.2460   19.2490 N.am  254  ASN254     -0.0877
    111  N         24.1670   16.5870   17.9560 N.3   256  ASP256     -0.1225
    112  CA        23.2960   17.1750   18.9970 C.3   256  ASP256      0.1805
    113  C         23.1110   18.6720   18.7990 C.2   256  ASP256      0.2597
    114  O         22.0130   19.2110   19.0150 O.2   256  ASP256     -0.2718
    115  CB        23.8640   16.9110   20.3810 C.3   256  ASP256      0.1424
    116  CG        23.9430   15.4270   20.6730 C.2   256  ASP256      0.3668
    117  OD1       22.9410   14.7310   20.3740 O.co2 256  ASP256     -0.2456
    118  OD2       25.0500   14.9550   21.0610 O.co2 256  ASP256     -0.2456
    119  N         24.1480   19.3590   18.3450 N.am  257  LEU257     -0.1979
    120  CA        24.0870   20.8220   18.1940 C.3   257  LEU257      0.1596
    121  C         23.4590   21.2980   16.9040 C.2   257  LEU257      0.2287
    122  O         22.9950   22.4480   16.8480 O.2   257  LEU257     -0.2864
    123  CB        25.5040   21.4240   18.2900 C.3   257  LEU257      0.0297
    124  CG        26.2820   21.1970   19.5900 C.3   257  LEU257      0.0022
    125  CD1       27.5990   21.9260   19.5330 C.3   257  LEU257      0.0001
    126  CD2       25.4610   21.6660   20.7900 C.3   257  LEU257      0.0001
@<TRIPOS>BOND
     1   103   104    1
     2   106   105    2
     3   105   104    1
     4   104   107    1
     5   122   121    2
     6   121   120    1
     7   107   108    1
     8   111   112    1
     9   120   123    1
    10   120   119    1
    11   123   124    1
    12   119   113   am
    13   108   109    2
    14   108   110   am
    15   113   112    1
    16   113   114    2
    17   112   115    1
    18   125   124    1
    19   124   126    1
    20   117   116   ar
    21   115   116    1
    22   116   118   ar
    23    82    80    1
    24    80    77    1
    25    80    81    1
    26    83    84    1
    27    77    78    1
    28    77    76    1
    29    74    73    2
    30    78    79    2
    31    87    84    1
    32    87    88    1
    33    84    85    1
    34    89    88   ar
    35    89    91   ar
    36    88    90   ar
    37    73    76   am
    38    73    72    1
    39    91    93   ar
    40    90    92   ar
    41    93    92   ar
    42    93    94    1
    43    70    68   ar
    44    69    68   ar
    45    68    67    1
    46    85    95   am
    47    85    86    2
    48    72    71    1
    49    72    75    1
    50    67    64    1
    51    71    65   am
    52    95    96    1
    53    64    65    1
    54    64    63    1
    55    65    66    2
    56    43    42   ar
    57    96    97    1
    58    96    99    1
    59    97    98    2
    60   102   100   am
    61    99   100    1
    62    42    44   ar
    63    42    41    1
    64   100   101    2
    65    54    53    1
    66    20    22   ar
    67    20    18   ar
    68    55    53    1
    69    22    21   ar
    70    41    38    1
    71     8     6   ar
    72    61    60    1
    73    35    36    1
    74    35    32    1
    75    53    52    2
    76     6     7   ar
    77     6     5    1
    78    18    17   ar
    79    18    16   ar
    80    38    37    1
    81    38    39    1
    82    21    19   ar
    83    17    15   ar
    84    52    51    1
    85     4     3    2
    86    32    31    1
    87    32    33    1
    88     3     2    1
    89     5     2    1
    90    59    58    2
    91    60    57    1
    92    60    62    1
    93    34    33    2
    94    58    57    1
    95    51    50    1
    96    16    19   ar
    97    16    14   ar
    98    39    40    2
    99    39    45   am
   100    30    28   am
   101    57    56    1
   102     2     1    1
   103    15    14   ar
   104    50    49    1
   105    45    46    1
   106    14    13    1
   107    28    27    1
   108    28    29    2
   109    49    46    1
   110    27    24    1
   111    46    47    1
   112    13    10    1
   113    25    24    1
   114    25    26    2
   115    48    47    2
   116    12    11    2
   117    24    23    1
   118    11    10    1
   119    10     9    1
