@<TRIPOS>MOLECULE
tmp/4bolB00.pdb
 174 171 0 0 0
SMALL
GASTEIGER

@<TRIPOS>ATOM
      1  N         31.1960    4.0610  -48.1580 N.3    26  HIS26      -0.1226
      2  CA        30.3930    3.7680  -49.3340 C.3    26  HIS26       0.1752
      3  C         30.8840    4.5750  -50.5310 C.2    26  HIS26       0.2596
      4  O         31.5700    5.5830  -50.3560 O.2    26  HIS26      -0.2718
      5  CB        28.9600    4.2250  -49.1390 C.3    26  HIS26       0.0759
      6  CG        28.2850    3.6960  -47.9210 C.ar   26  HIS26       0.0818
      7  ND1       27.4250    2.6220  -47.9610 N.ar   26  HIS26      -0.2268
      8  CD2       28.2990    4.1200  -46.6420 C.ar   26  HIS26       0.1154
      9  CE1       26.9350    2.4050  -46.7560 C.ar   26  HIS26       0.1986
     10  NE2       27.4460    3.3050  -45.9400 N.ar   26  HIS26      -0.2212
     11  N         30.4900    4.1640  -51.7330 N.am   27  TYR27      -0.1962
     12  CA        30.4520    5.0840  -52.8550 C.3    27  TYR27       0.1771
     13  C         28.9940    5.3040  -53.2800 C.2    27  TYR27       0.2620
     14  O         28.1160    4.4980  -52.9520 O.2    27  TYR27      -0.2715
     15  CB        31.3580    4.6720  -54.0370 C.3    27  TYR27       0.0574
     16  CG        31.1450    3.2910  -54.6430 C.ar   27  TYR27      -0.0198
     17  CD1       29.9100    2.9000  -55.1460 C.ar   27  TYR27      -0.0009
     18  CD2       32.2060    2.4160  -54.7670 C.ar   27  TYR27      -0.0009
     19  CE1       29.7260    1.6400  -55.6850 C.ar   27  TYR27       0.0417
     20  CE2       32.0500    1.1720  -55.3020 C.ar   27  TYR27       0.0417
     21  CZ        30.8070    0.7900  -55.7780 C.ar   27  TYR27       0.1957
     22  OH        30.6620   -0.4540  -56.2940 O.3    27  TYR27      -0.2866
     23  N         28.7490    6.3950  -54.0050 N.am   28  THR28      -0.1951
     24  CA        27.3770    6.8100  -54.3220 C.3    28  THR28       0.1897
     25  C         26.7690    6.1170  -55.5410 C.2    28  THR28       0.2313
     26  O         25.5440    6.0030  -55.6420 O.2    28  THR28      -0.2863
     27  CB        27.3170    8.3440  -54.6040 C.3    28  THR28       0.1794
     28  OG1       28.1910    8.6370  -55.6770 O.3    28  THR28      -0.2208
     29  CG2       27.7010    9.1690  -53.3270 C.3    28  THR28       0.0378
     30  N         20.6020   11.4170  -51.0500 N.3    39  LEU39      -0.1245
     31  CA        20.9940   11.2900  -49.6520 C.3    39  LEU39       0.1561
     32  C         20.3120   12.3130  -48.7480 C.2    39  LEU39       0.2260
     33  O         20.4550   12.2320  -47.5200 O.2    39  LEU39      -0.2867
     34  CB        22.5000   11.3950  -49.5020 C.3    39  LEU39       0.0270
     35  CG        23.2740   10.2170  -50.1120 C.3    39  LEU39       0.0019
     36  CD1       24.7450   10.5650  -50.1650 C.3    39  LEU39       0.0001
     37  CD2       23.0500    8.9430  -49.3430 C.3    39  LEU39       0.0001
     38  N         15.0090    8.6960  -49.5190 N.3    43  GLY43      -0.1210
     39  CA        14.7060    7.5200  -48.7290 C.3    43  GLY43       0.1956
     40  C         15.8780    6.8880  -47.9830 C.2    43  GLY43       0.2612
     41  O         15.6970    5.9390  -47.2210 O.2    43  GLY43      -0.2717
     42  N         17.0790    7.4200  -48.2000 N.am   44  VAL44      -0.1965
     43  CA        18.3040    6.9420  -47.5580 C.3    44  VAL44       0.1727
     44  C         19.1320    8.1650  -47.1910 C.2    44  VAL44       0.2616
     45  O         18.7800    9.2690  -47.5880 O.2    44  VAL44      -0.2715
     46  CB        19.1360    6.0300  -48.4730 C.3    44  VAL44       0.0290
     47  CG1       18.4300    4.6930  -48.6790 C.3    44  VAL44       0.0023
     48  CG2       19.4330    6.7020  -49.8190 C.3    44  VAL44       0.0023
     49  N         20.1940    7.9910  -46.4070 N.am   45  SER45      -0.1950
     50  CA        21.0190    9.1260  -46.0160 C.3    45  SER45       0.1924
     51  C         22.3670    8.6570  -45.4990 C.2    45  SER45       0.2314
     52  O         22.5700    7.4670  -45.2850 O.2    45  SER45      -0.2863
     53  CB        20.2870    9.9330  -44.9340 C.3    45  SER45       0.2116
     54  OG        20.0780    9.1110  -43.8020 O.3    45  SER45      -0.2180
     55  N         20.6420    9.0300  -36.3380 N.3    67  ARG67      -0.1245
     56  CA        20.7690    7.8150  -37.1320 C.3    67  ARG67       0.1563
     57  C         20.4980    8.1160  -38.6030 C.2    67  ARG67       0.2260
     58  O         19.3730    8.4780  -38.9670 O.2    67  ARG67      -0.2867
     59  CB        19.8070    6.7230  -36.6640 C.3    67  ARG67       0.0307
     60  CG        20.0350    5.3700  -37.3050 C.3    67  ARG67       0.0489
     61  CD        19.1940    4.2510  -36.6240 C.3    67  ARG67       0.2205
     62  NE        17.7900    4.2810  -36.9820 N.pl3  67  ARG67      -0.0865
     63  CZ        16.9570    3.2460  -36.9130 C.cat  67  ARG67       0.5346
     64  NH1       17.3810    2.0570  -36.4960 N.pl3  67  ARG67       0.1354
     65  NH2       15.6860    3.4050  -37.2660 N.pl3  67  ARG67       0.1354
     66  N         20.5720    6.5740  -42.6390 N.3    69  TRP69      -0.1227
     67  CA        20.0550    5.3170  -43.1910 C.3    69  TRP69       0.1737
     68  C         20.9260    4.8850  -44.3650 C.2    69  TRP69       0.2595
     69  O         20.5610    5.1150  -45.5150 O.2    69  TRP69      -0.2718
     70  CB        18.6130    5.4780  -43.6310 C.3    69  TRP69       0.0564
     71  CG        17.6600    5.8750  -42.4950 C.ar   69  TRP69       0.0003
     72  CD1       17.9400    5.8810  -41.1530 C.ar   69  TRP69       0.0946
     73  CD2       16.3190    6.3470  -42.6250 C.ar   69  TRP69       0.0152
     74  NE1       16.8410    6.3110  -40.4410 N.ar   69  TRP69      -0.2442
     75  CE2       15.8370    6.6150  -41.3220 C.ar   69  TRP69       0.0810
     76  CE3       15.4700    6.5610  -43.7060 C.ar   69  TRP69       0.0012
     77  CZ2       14.5540    7.0830  -41.0920 C.ar   69  TRP69       0.0191
     78  CZ3       14.2020    7.0230  -43.4760 C.ar   69  TRP69       0.0001
     79  CH2       13.7480    7.2800  -42.1740 C.ar   69  TRP69       0.0015
     80  N         22.0470    4.2500  -44.0370 N.am   70  HIS70      -0.1961
     81  CA        23.0900    3.9040  -45.0190 C.3    70  HIS70       0.1787
     82  C         23.5310    2.4430  -45.0330 C.2    70  HIS70       0.2620
     83  O         23.9980    1.9640  -46.0550 O.2    70  HIS70      -0.2715
     84  CB        24.3090    4.7970  -44.7980 C.3    70  HIS70       0.0785
     85  CG        25.0390    4.4920  -43.5280 C.ar   70  HIS70       0.0821
     86  ND1       24.7040    5.0600  -42.3180 N.ar   70  HIS70      -0.2267
     87  CD2       26.0840    3.6730  -43.2740 C.ar   70  HIS70       0.1154
     88  CE1       25.5150    4.6020  -41.3830 C.ar   70  HIS70       0.1986
     89  NE2       26.3590    3.7590  -41.9360 N.ar   70  HIS70      -0.2212
     90  N         23.3920    1.7320  -43.9110 N.am   71  ALA71      -0.1963
     91  CA        23.9800    0.4000  -43.7680 C.3    71  ALA71       0.1728
     92  C         23.0180   -0.7210  -44.1060 C.2    71  ALA71       0.2617
     93  O         23.4260   -1.7870  -44.5600 O.2    71  ALA71      -0.2715
     94  CB        24.4970    0.2190  -42.3790 C.3    71  ALA71       0.0334
     95  N         21.7380   -0.4990  -43.8530 N.am   72  GLY72      -0.1940
     96  CA        20.7300   -1.5190  -44.0740 C.3    72  GLY72       0.2014
     97  C         20.9990   -2.7770  -43.2700 C.2    72  GLY72       0.2638
     98  O         21.5040   -2.7240  -42.1540 O.2    72  GLY72      -0.2714
     99  N         20.6140   -3.9130  -43.8490 N.am   73  VAL73      -0.1977
    100  CA        20.8940   -5.2190  -43.2840 C.3    73  VAL73       0.1596
    101  C         22.3970   -5.4030  -43.2710 C.2    73  VAL73       0.2287
    102  O         23.0760   -5.3220  -44.3010 O.2    73  VAL73      -0.2864
    103  CB        20.2090   -6.3520  -44.0930 C.3    73  VAL73       0.0276
    104  CG1       20.5540   -7.7030  -43.4890 C.3    73  VAL73       0.0022
    105  CG2       18.6870   -6.1720  -44.1390 C.3    73  VAL73       0.0022
    106  N         22.4430   -4.6160  -37.6880 N.3    81  TRP81      -0.1241
    107  CA        21.6530   -3.4240  -37.9440 C.3    81  TRP81       0.1605
    108  C         22.4550   -2.1850  -37.5850 C.2    81  TRP81       0.2264
    109  O         22.1100   -1.4260  -36.6660 O.2    81  TRP81      -0.2867
    110  CB        20.3180   -3.4690  -37.2390 C.3    81  TRP81       0.0550
    111  CG        19.4050   -4.5590  -37.6980 C.ar   81  TRP81       0.0003
    112  CD1       19.1540   -5.7410  -37.0690 C.ar   81  TRP81       0.0946
    113  CD2       18.6170   -4.5680  -38.9020 C.ar   81  TRP81       0.0152
    114  NE1       18.2590   -6.4960  -37.8180 N.ar   81  TRP81      -0.2442
    115  CE2       17.9200   -5.7830  -38.9410 C.ar   81  TRP81       0.0810
    116  CE3       18.4540   -3.6590  -39.9590 C.ar   81  TRP81       0.0012
    117  CZ2       17.0470   -6.1060  -39.9760 C.ar   81  TRP81       0.0191
    118  CZ3       17.5940   -3.9890  -40.9970 C.ar   81  TRP81       0.0001
    119  CH2       16.8940   -5.1930  -40.9840 C.ar   81  TRP81       0.0015
    120  N         23.1310    0.8290  -38.6200 N.3    83  ASN83      -0.1240
    121  CA        22.8010    2.2590  -38.6840 C.3    83  ASN83       0.1653
    122  C         22.8720    2.9620  -37.3220 C.2    83  ASN83       0.2266
    123  O         23.5040    4.0250  -37.1850 O.2    83  ASN83      -0.2867
    124  CB        21.4060    2.4850  -39.2600 C.3    83  ASN83       0.1155
    125  CG        21.3570    2.3840  -40.7880 C.2    83  ASN83       0.2627
    126  OD1       22.3310    2.6190  -41.4750 O.2    83  ASN83      -0.2716
    127  ND2       20.1930    2.0750  -41.2920 N.am   83  ASN83      -0.0877
    128  N         29.8170    8.6480  -47.5170 N.3    90  GLU90      -0.1245
    129  CA        29.6620    8.3180  -48.9210 C.3    90  GLU90       0.1567
    130  C         30.6330    9.1680  -49.7460 C.2    90  GLU90       0.2260
    131  O         30.8690   10.3300  -49.4480 O.2    90  GLU90      -0.2867
    132  CB        28.2500    8.6460  -49.3890 C.3    90  GLU90       0.0388
    133  CG        27.1810    7.8090  -48.7560 C.3    90  GLU90       0.1160
    134  CD        26.5100    6.8470  -49.7060 C.2    90  GLU90       0.3649
    135  OE1       26.6500    6.9860  -50.9310 O.co2  90  GLU90      -0.2457
    136  OE2       25.8250    5.9420  -49.2080 O.co2  90  GLU90      -0.2457
    137  N         31.0830   -0.9630  -46.7160 N.3   137  HIS137     -0.1241
    138  CA        29.7740   -1.5820  -46.8240 C.3   137  HIS137      0.1621
    139  C         29.8920   -3.0660  -47.2060 C.2   137  HIS137      0.2264
    140  O         29.1470   -3.8990  -46.7050 O.2   137  HIS137     -0.2867
    141  CB        28.8970   -0.8240  -47.8110 C.3   137  HIS137      0.0745
    142  CG        27.4300   -0.9420  -47.5290 C.ar  137  HIS137      0.0817
    143  ND1       26.4760   -0.2630  -48.2490 N.ar  137  HIS137     -0.2268
    144  CD2       26.7520   -1.6690  -46.6120 C.ar  137  HIS137      0.1154
    145  CE1       25.2810   -0.5270  -47.7640 C.ar  137  HIS137      0.1986
    146  NE2       25.4190   -1.3800  -46.7680 N.ar  137  HIS137     -0.2212
    147  N         25.9430   -8.7890  -50.8800 N.3   144  ARG144     -0.1231
    148  CA        24.8570   -7.8470  -51.1720 C.3   144  ARG144      0.1694
    149  C         25.3970   -6.5030  -51.6810 C.2   144  ARG144      0.2591
    150  O         24.8710   -5.9180  -52.6490 O.2   144  ARG144     -0.2718
    151  CB        23.9910   -7.6480  -49.9360 C.3   144  ARG144      0.0321
    152  CG        22.7380   -6.8050  -50.1360 C.3   144  ARG144      0.0489
    153  CD        21.8250   -6.8210  -48.8840 C.3   144  ARG144      0.2205
    154  NE        22.3280   -5.9760  -47.8010 N.pl3 144  ARG144     -0.0865
    155  CZ        22.1980   -4.6460  -47.7680 C.cat 144  ARG144      0.5346
    156  NH1       21.5910   -4.0000  -48.7700 N.pl3 144  ARG144      0.1354
    157  NH2       22.6990   -3.9340  -46.7590 N.pl3 144  ARG144      0.1354
    158  N         26.4510   -6.0150  -51.0350 N.am  145  LYS145     -0.1980
    159  CA        27.0760   -4.7510  -51.4100 C.3   145  LYS145      0.1596
    160  C         28.5540   -4.9380  -51.7530 C.2   145  LYS145      0.2287
    161  O         29.2470   -5.7380  -51.0950 O.2   145  LYS145     -0.2864
    162  CB        26.9070   -3.7660  -50.2510 C.3   145  LYS145      0.0298
    163  CG        25.4700   -3.3460  -50.0280 C.3   145  LYS145      0.0038
    164  CD        25.0300   -2.3520  -51.1050 C.3   145  LYS145      0.0206
    165  CE        23.6050   -1.8770  -50.8940 C.3   145  LYS145      0.1093
    166  NZ        23.1510   -1.0700  -52.0820 N.3   145  LYS145     -0.1314
    167  N         30.5480   -1.9040  -52.4810 N.3   147  ASP147     -0.1239
    168  CA        31.2400   -0.6470  -52.2210 C.3   147  ASP147      0.1674
    169  C         32.0100   -0.6910  -50.9000 C.2   147  ASP147      0.2266
    170  O         31.5720   -1.3450  -49.9710 O.2   147  ASP147     -0.2867
    171  CB        30.2670    0.5480  -52.2430 C.3   147  ASP147      0.1410
    172  CG        29.0680    0.3980  -51.3020 C.2   147  ASP147      0.3668
    173  OD1       28.3810   -0.6550  -51.2550 O.co2 147  ASP147     -0.2456
    174  OD2       28.7640    1.4140  -50.6540 O.co2 147  ASP147     -0.2456
@<TRIPOS>BOND
     1    22    21    1
     2    21    19   ar
     3    21    20   ar
     4    19    17   ar
     5    28    27    1
     6    26    25    2
     7    25    24    1
     8    20    18   ar
     9    17    16   ar
    10    18    16   ar
    11    16    15    1
    12    27    24    1
    13    27    29    1
    14    24    23    1
    15    15    12    1
    16    23    13   am
    17    13    14    2
    18    13    12    1
    19    12    11    1
    20   150   149    2
    21   167   168    1
    22   171   168    1
    23   171   172    1
    24   168   169    1
    25   166   165    1
    26   160   159    1
    27   160   161    2
    28    11     3   am
    29   149   148    1
    30   149   158   am
    31   159   158    1
    32   159   162    1
    33   172   173   ar
    34   172   174   ar
    35   148   147    1
    36   148   151    1
    37   164   165    1
    38   164   163    1
    39    30    31    1
    40   135   134   ar
    41   169   170    2
    42     3     4    2
    43     3     2    1
    44   162   163    1
    45    36    35    1
    46   152   151    1
    47   152   153    1
    48    35    34    1
    49    35    37    1
    50    48    46    1
    51   130   131    2
    52   130   129    1
    53   134   136   ar
    54   134   133    1
    55    31    34    1
    56    31    32    1
    57    38    39    1
    58   132   129    1
    59   132   133    1
    60     2     5    1
    61     2     1    1
    62     5     6    1
    63   129   128    1
    64   153   154    1
    65   156   155    1
    66    32    33    2
    67    39    40    1
    68    47    46    1
    69    46    43    1
    70   143   145   ar
    71   143   142   ar
    72    42    40   am
    73    42    43    1
    74    40    41    2
    75     7     6   ar
    76     7     9   ar
    77     6     8   ar
    78   141   142    1
    79   141   138    1
    80   154   155    2
    81   155   157    1
    82   145   146   ar
    83    45    44    2
    84    43    44    1
    85   142   144   ar
    86   139   138    1
    87   139   140    2
    88    44    49   am
    89   138   137    1
    90   146   144   ar
    91     9    10   ar
    92     8    10   ar
    93    49    50    1
    94    83    82    2
    95    50    51    1
    96    50    53    1
    97    69    68    2
    98    51    52    2
    99    82    81    1
   100    82    90   am
   101    81    84    1
   102    81    80    1
   103    53    54    1
   104    84    85    1
   105    93    92    2
   106    68    80   am
   107    68    67    1
   108   102   101    2
   109   105   103    1
   110    92    95   am
   111    92    91    1
   112   103   104    1
   113   103   100    1
   114    96    95    1
   115    96    97    1
   116    90    91    1
   117    99   100    1
   118    99    97   am
   119    91    94    1
   120    76    78   ar
   121    76    73   ar
   122    70    67    1
   123    70    71    1
   124    85    87   ar
   125    85    86   ar
   126    78    79   ar
   127   100   101    1
   128    87    89   ar
   129    97    98    2
   130    67    66    1
   131    73    71   ar
   132    73    75   ar
   133    71    72   ar
   134    86    88   ar
   135    79    77   ar
   136    89    88   ar
   137   126   125    2
   138    75    77   ar
   139    75    74   ar
   140   127   125   am
   141    72    74   ar
   142   118   119   ar
   143   118   116   ar
   144   119   117   ar
   145   125   124    1
   146   117   115   ar
   147   116   113   ar
   148   124   121    1
   149    58    57    2
   150   115   113   ar
   151   115   114   ar
   152   113   111   ar
   153   121   120    1
   154   121   122    1
   155    57    56    1
   156   107   106    1
   157   107   108    1
   158   107   110    1
   159   114   112   ar
   160   111   110    1
   161   111   112   ar
   162   108   109    2
   163   122   123    2
   164    60    59    1
   165    60    61    1
   166    65    63    1
   167    56    59    1
   168    56    55    1
   169    62    63    2
   170    62    61    1
   171    63    64    1
