@<TRIPOS>MOLECULE
tmp/4bosA00.pdb
 80 79 0 0 0
SMALL
GASTEIGER

@<TRIPOS>ATOM
      1  N        -50.3900   66.7820   31.5190 N.3    11  ALA11      -0.1231
      2  CA       -50.4550   65.7690   32.5470 C.3    11  ALA11       0.1694
      3  C        -51.9090   65.4200   32.8500 C.2    11  ALA11       0.2592
      4  O        -52.4590   65.8460   33.8300 O.2    11  ALA11      -0.2718
      5  CB       -49.7330   66.2240   33.7850 C.3    11  ALA11       0.0304
      6  N        -52.5210   64.6660   31.9560 N.am   12  ASP12      -0.1960
      7  CA       -53.9250   64.3520   32.0280 C.3    12  ASP12       0.1840
      8  C        -54.2090   62.9090   32.3720 C.2    12  ASP12       0.2622
      9  O        -55.3140   62.4710   32.1920 O.2    12  ASP12      -0.2715
     10  CB       -54.6010   64.7190   30.7190 C.3    12  ASP12       0.1450
     11  CG       -54.0550   63.9450   29.5350 C.2    12  ASP12       0.3671
     12  OD1      -53.1870   63.0930   29.7150 O.co2  12  ASP12      -0.2456
     13  OD2      -54.5020   64.1910   28.4210 O.co2  12  ASP12      -0.2456
     14  N        -53.1880   62.1920   32.8210 N.am   13  ASN13      -0.1958
     15  CA       -53.2200   60.7670   33.1460 C.3    13  ASN13       0.1819
     16  C        -52.8340   59.8520   32.0030 C.2    13  ASN13       0.2622
     17  O        -52.5980   58.6920   32.2060 O.2    13  ASN13      -0.2715
     18  CB       -54.5820   60.3390   33.6780 C.3    13  ASN13       0.1195
     19  CG       -54.9060   60.9580   35.0000 C.2    13  ASN13       0.2630
     20  OD1      -54.1150   60.9200   35.8990 O.2    13  ASN13      -0.2716
     21  ND2      -56.0690   61.5380   35.1110 N.am   13  ASN13      -0.0877
     22  N        -52.7420   60.4020   30.8130 N.am   14  SER14      -0.1936
     23  CA       -52.4130   59.6590   29.6200 C.3    14  SER14       0.2055
     24  C        -51.0460   59.9960   29.0450 C.2    14  SER14       0.2642
     25  O        -50.7830   59.6700   27.9240 O.2    14  SER14      -0.2714
     26  CB       -53.4870   59.8780   28.5620 C.3    14  SER14       0.2130
     27  OG       -54.7220   59.4300   29.0200 O.3    14  SER14      -0.2179
     28  N        -50.2000   60.6740   29.8070 N.am   15  ALA15      -0.1977
     29  CA       -48.9560   61.2390   29.2670 C.3    15  ALA15       0.1597
     30  C        -47.9950   60.1780   28.7420 C.2    15  ALA15       0.2287
     31  O        -47.1890   60.4460   27.8460 O.2    15  ALA15      -0.2864
     32  CB       -48.2570   62.1210   30.3040 C.3    15  ALA15       0.0319
     33  N        -59.7240   56.4240   31.1710 N.3    71  ASP71      -0.1225
     34  CA       -58.9610   57.6240   30.8580 C.3    71  ASP71       0.1805
     35  C        -58.1630   58.1520   32.0530 C.2    71  ASP71       0.2597
     36  O        -57.5290   59.1990   31.9490 O.2    71  ASP71      -0.2718
     37  CB       -59.8690   58.7310   30.2790 C.3    71  ASP71       0.1424
     38  CG       -60.8840   59.2860   31.2990 C.2    71  ASP71       0.3668
     39  OD1      -60.9510   58.8010   32.4600 O.co2  71  ASP71      -0.2456
     40  OD2      -61.6330   60.2200   30.9230 O.co2  71  ASP71      -0.2456
     41  N        -58.1900   57.4510   33.1840 N.am   72  ASP72      -0.1974
     42  CA       -57.5030   57.9830   34.3600 C.3    72  ASP72       0.1709
     43  C        -56.4000   57.0960   34.9230 C.2    72  ASP72       0.2293
     44  O        -55.7650   57.4510   35.9170 O.2    72  ASP72      -0.2864
     45  CB       -58.5000   58.3490   35.4620 C.3    72  ASP72       0.1436
     46  CG       -59.3220   57.1590   35.9360 C.2    72  ASP72       0.3671
     47  OD1      -59.0690   56.0020   35.4860 O.co2  72  ASP72      -0.2456
     48  OD2      -60.2210   57.3900   36.7770 O.co2  72  ASP72      -0.2456
     49  N        -52.6880   55.1780   34.7550 N.3    74  TRP74      -0.1241
     50  CA       -51.3380   55.4600   34.2440 C.3    74  TRP74       0.1605
     51  C        -50.6350   54.2630   33.5820 C.2    74  TRP74       0.2264
     52  O        -50.4560   53.1990   34.2090 O.2    74  TRP74      -0.2867
     53  CB       -50.4260   55.9270   35.3850 C.3    74  TRP74       0.0550
     54  CG       -50.7770   57.2490   36.0170 C.ar   74  TRP74       0.0003
     55  CD1      -51.8450   58.0490   35.7170 C.ar   74  TRP74       0.0946
     56  CD2      -50.0410   57.9280   37.0510 C.ar   74  TRP74       0.0152
     57  NE1      -51.8230   59.1800   36.5070 N.ar   74  TRP74      -0.2442
     58  CE2      -50.7310   59.1270   37.3330 C.ar   74  TRP74       0.0810
     59  CE3      -48.8700   57.6370   37.7620 C.ar   74  TRP74       0.0012
     60  CZ2      -50.2810   60.0420   38.2990 C.ar   74  TRP74       0.0191
     61  CZ3      -48.4300   58.5480   38.7400 C.ar   74  TRP74       0.0001
     62  CH2      -49.1350   59.7320   38.9920 C.ar   74  TRP74       0.0015
     63  N        -43.6610   60.4450   38.1570 N.3   121  ILE121     -0.1231
     64  CA       -45.0580   60.8780   38.1000 C.3   121  ILE121      0.1692
     65  C        -45.4940   61.2340   36.6720 C.2   121  ILE121      0.2592
     66  O        -46.5980   60.8890   36.2440 O.2   121  ILE121     -0.2718
     67  CB       -45.2780   62.1180   38.9970 C.3   121  ILE121      0.0266
     68  CG1      -45.2870   61.7070   40.4720 C.3   121  ILE121      0.0019
     69  CG2      -46.5770   62.8490   38.6410 C.3   121  ILE121      0.0020
     70  CD1      -45.3590   62.8840   41.3970 C.3   121  ILE121      0.0001
     71  N        -44.6280   61.9370   35.9460 N.am  122  HIS122     -0.1976
     72  CA       -44.9190   62.4370   34.6130 C.3   122  HIS122      0.1656
     73  C        -44.0830   61.7150   33.5500 C.2   122  HIS122      0.2291
     74  O        -42.9820   61.2460   33.8540 O.2   122  HIS122     -0.2864
     75  CB       -44.5980   63.9410   34.5340 C.3   122  HIS122      0.0771
     76  CG       -45.2340   64.7730   35.6150 C.ar  122  HIS122      0.0820
     77  ND1      -44.5530   65.1610   36.7600 N.ar  122  HIS122     -0.2267
     78  CD2      -46.4660   65.3210   35.7070 C.ar  122  HIS122      0.1154
     79  CE1      -45.3550   65.8910   37.5120 C.ar  122  HIS122      0.1986
     80  NE2      -46.5240   65.9990   36.9050 N.ar  122  HIS122     -0.2212
@<TRIPOS>BOND
     1    31    30    2
     2    25    24    2
     3    13    11   ar
     4    26    27    1
     5    26    23    1
     6    30    29    1
     7    24    23    1
     8    24    28   am
     9    29    28    1
    10    29    32    1
    11    11    12   ar
    12    11    10    1
    13    23    22    1
    14    37    34    1
    15    37    38    1
    16    10     7    1
    17    22    16   am
    18    34    33    1
    19    34    35    1
    20    40    38   ar
    21    38    39   ar
    22     1     2    1
    23    36    35    2
    24     6     7    1
    25     6     3   am
    26    16    17    2
    27    16    15    1
    28     7     8    1
    29    35    41   am
    30     9     8    2
    31     8    14   am
    32     2     3    1
    33     2     5    1
    34    14    15    1
    35     3     4    2
    36    15    18    1
    37    41    42    1
    38    73    74    2
    39    73    72    1
    40    51    52    2
    41    51    50    1
    42    18    19    1
    43    50    49    1
    44    50    53    1
    45    42    43    1
    46    42    45    1
    47    75    72    1
    48    75    76    1
    49    72    71    1
    50    43    44    2
    51    19    21   am
    52    19    20    2
    53    53    54    1
    54    45    46    1
    55    47    46   ar
    56    76    78   ar
    57    76    77   ar
    58    78    80   ar
    59    55    54   ar
    60    55    57   ar
    61    46    48   ar
    62    71    65   am
    63    54    56   ar
    64    66    65    2
    65    57    58   ar
    66    65    64    1
    67    77    79   ar
    68    80    79   ar
    69    56    58   ar
    70    56    59   ar
    71    58    60   ar
    72    59    61   ar
    73    64    63    1
    74    64    67    1
    75    60    62   ar
    76    69    67    1
    77    61    62   ar
    78    67    68    1
    79    68    70    1
