@<TRIPOS>MOLECULE
tmp/4bp3C00.pdb
 123 120 0 0 0
SMALL
GASTEIGER

@<TRIPOS>ATOM
      1  N         21.9470   17.8960   30.7370 N.3    11  TRP11      -0.1241
      2  CA        22.5090   16.5950   30.4960 C.3    11  TRP11       0.1605
      3  C         21.4330   15.5290   30.4300 C.2    11  TRP11       0.2264
      4  O         21.2980   14.7040   31.3510 O.2    11  TRP11      -0.2867
      5  CB        23.5960   16.2530   31.4970 C.3    11  TRP11       0.0550
      6  CG        23.3720   16.7130   32.9490 C.ar   11  TRP11       0.0003
      7  CD1       22.7710   15.9970   33.9670 C.ar   11  TRP11       0.0946
      8  CD2       23.7790   17.9720   33.5410 C.ar   11  TRP11       0.0152
      9  NE1       22.8090   16.7480   35.1540 N.ar   11  TRP11      -0.2442
     10  CE2       23.4130   17.9430   34.9220 C.ar   11  TRP11       0.0810
     11  CE3       24.4030   19.1270   33.0480 C.ar   11  TRP11       0.0012
     12  CZ2       23.6360   19.0310   35.7880 C.ar   11  TRP11       0.0191
     13  CZ3       24.6630   20.1810   33.9070 C.ar   11  TRP11       0.0001
     14  CH2       24.2700   20.1380   35.2680 C.ar   11  TRP11       0.0015
     15  N         21.9090   21.4400   41.2060 N.3    51  VAL51      -0.1231
     16  CA        23.1570   21.1190   40.5450 C.3    51  VAL51       0.1692
     17  C         24.2930   21.2070   41.5250 C.2    51  VAL51       0.2592
     18  O         24.4310   22.2370   42.2030 O.2    51  VAL51      -0.2718
     19  CB        23.4140   22.1180   39.3850 C.3    51  VAL51       0.0266
     20  CG1       24.7230   21.7340   38.7370 C.3    51  VAL51       0.0020
     21  CG2       22.2780   22.0480   38.3320 C.3    51  VAL51       0.0020
     22  N         25.1250   20.1670   41.5530 N.am   52  ILE52      -0.1966
     23  CA        26.2760   20.1250   42.3970 C.3    52  ILE52       0.1727
     24  C         27.2390   21.2150   42.0020 C.2    52  ILE52       0.2616
     25  O         27.6860   21.2680   40.8480 O.2    52  ILE52      -0.2715
     26  CB        26.9460   18.7480   42.3740 C.3    52  ILE52       0.0290
     27  CG1       25.9700   17.6910   42.8320 C.3    52  ILE52       0.0022
     28  CG2       28.1680   18.7330   43.2560 C.3    52  ILE52       0.0023
     29  CD1       26.4330   16.2600   42.6080 C.3    52  ILE52       0.0001
     30  N         27.5930   22.0370   42.9620 N.am   53  GLN53      -0.1977
     31  CA        28.5820   23.1050   42.8050 C.3    53  GLN53       0.1601
     32  C         29.9360   22.7240   43.2890 C.2    53  GLN53       0.2287
     33  O         30.9500   23.1310   42.7010 O.2    53  GLN53      -0.2864
     34  CB        28.1150   24.3710   43.5050 C.3    53  GLN53       0.0394
     35  CG        26.8010   24.8450   43.0700 C.3    53  GLN53       0.0908
     36  CD        26.7470   25.2610   41.6390 C.2    53  GLN53       0.2608
     37  OE1       27.4670   26.1760   41.2080 O.2    53  GLN53      -0.2717
     38  NE2       25.9360   24.5550   40.8720 N.am   53  GLN53      -0.0878
     39  N         38.9840   21.5830   40.5060 N.3    62  TYR62      -0.1241
     40  CA        38.4710   22.7190   39.8100 C.3    62  TYR62       0.1605
     41  C         39.1100   24.0200   40.3060 C.2    62  TYR62       0.2264
     42  O         39.5310   24.8280   39.4900 O.2    62  TYR62      -0.2867
     43  CB        36.9910   22.7190   40.0060 C.3    62  TYR62       0.0534
     44  CG        36.2930   23.8980   39.4540 C.ar   62  TYR62      -0.0201
     45  CD1       36.0320   23.9860   38.0860 C.ar   62  TYR62      -0.0009
     46  CD2       35.8700   24.9420   40.2780 C.ar   62  TYR62      -0.0009
     47  CE1       35.3260   25.0270   37.5750 C.ar   62  TYR62       0.0417
     48  CE2       35.2040   26.0260   39.7360 C.ar   62  TYR62       0.0417
     49  CZ        34.9450   26.0770   38.3880 C.ar   62  TYR62       0.1957
     50  OH        34.2380   27.1270   37.8210 O.3    62  TYR62      -0.2866
     51  N         33.9390   31.8410   37.5220 N.3   156  ASP156     -0.1225
     52  CA        33.5980   30.6020   38.2340 C.3   156  ASP156      0.1805
     53  C         32.0790   30.6070   38.4090 C.2   156  ASP156      0.2598
     54  O         31.5930   30.8070   39.5170 O.2   156  ASP156     -0.2718
     55  CB        34.2600   30.5690   39.5920 C.3   156  ASP156      0.1424
     56  CG        33.8800   29.3580   40.4310 C.2   156  ASP156      0.3668
     57  OD1       33.2770   28.3850   39.8860 O.co2 156  ASP156     -0.2456
     58  OD2       34.2450   29.4110   41.6510 O.co2 156  ASP156     -0.2456
     59  N         31.3740   30.3430   37.3090 N.am  157  SER157     -0.1938
     60  CA        29.9290   30.3980   37.2570 C.3   157  SER157      0.2055
     61  C         29.3420   29.0580   37.4120 C.2   157  SER157      0.2644
     62  O         29.9110   28.0320   37.1340 O.2   157  SER157     -0.2714
     63  CB        29.3590   30.9780   35.9260 C.3   157  SER157      0.2130
     64  OG        29.7230   30.1680   34.7620 O.3   157  SER157     -0.2179
     65  N         28.0930   29.0890   37.8310 N.am  158  SER158     -0.1935
     66  CA        27.2320   27.9880   37.6050 C.3   158  SER158      0.2055
     67  C         26.8270   27.8610   36.1130 C.2   158  SER158      0.2643
     68  O         27.3720   28.5190   35.1950 O.2   158  SER158     -0.2714
     69  CB        25.9920   28.2620   38.4720 C.3   158  SER158      0.2130
     70  OG        25.5760   29.6310   38.3910 O.3   158  SER158     -0.2179
     71  N         25.9710   26.9040   35.8280 N.am  159  ASP159     -0.1971
     72  CA        25.5960   26.5890   34.4380 C.3   159  ASP159      0.1709
     73  C         24.6730   27.7080   33.8480 C.2   159  ASP159      0.2293
     74  O         24.1320   28.5370   34.6110 O.2   159  ASP159     -0.2864
     75  CB        24.8250   25.2680   34.4160 C.3   159  ASP159      0.1436
     76  CG        25.6690   24.1030   34.8560 C.2   159  ASP159      0.3671
     77  OD1       26.7540   23.8690   34.1890 O.co2 159  ASP159     -0.2456
     78  OD2       25.3430   23.4590   35.8740 O.co2 159  ASP159     -0.2456
     79  N         34.4450   28.8440   33.3410 N.3   189  GLN189     -0.1245
     80  CA        33.8410   27.5550   33.3320 C.3   189  GLN189      0.1566
     81  C         33.0950   27.3240   31.9750 C.2   189  GLN189      0.2260
     82  O         32.2990   28.1410   31.5370 O.2   189  GLN189     -0.2867
     83  CB        32.9200   27.5110   34.5430 C.3   189  GLN189      0.0367
     84  CG        32.2440   26.1780   34.8450 C.3   189  GLN189      0.0905
     85  CD        30.9540   26.0270   34.0820 C.2   189  GLN189      0.2608
     86  OE1       29.8810   26.5820   34.4570 O.2   189  GLN189     -0.2717
     87  NE2       30.9790   25.2520   33.0730 N.am  189  GLN189     -0.0878
     88  N         31.9130   23.9800   30.6540 N.3   191  GLU191     -0.1245
     89  CA        31.1080   22.8370   30.4920 C.3   191  GLU191      0.1567
     90  C         31.7980   21.5730   30.0970 C.2   191  GLU191      0.2260
     91  O         33.0340   21.4840   30.1160 O.2   191  GLU191     -0.2867
     92  CB        29.9440   23.2280   29.5820 C.3   191  GLU191      0.0388
     93  CG        29.0130   24.2780   30.1900 C.3   191  GLU191      0.1160
     94  CD        28.2980   23.8510   31.5080 C.2   191  GLU191      0.3649
     95  OE1       28.3790   22.6830   31.8590 O.co2 191  GLU191     -0.2457
     96  OE2       27.7450   24.7770   32.1090 O.co2 191  GLU191     -0.2457
     97  N         31.2230   16.7560   38.7500 N.3   224  TYR224     -0.1228
     98  CA        30.4760   17.5120   37.7280 C.3   224  TYR224      0.1721
     99  C         30.1280   16.5550   36.5300 C.2   224  TYR224      0.2437
    100  O         30.6950   15.5010   36.4410 O.2   224  TYR224     -0.2733
    101  CB        31.2580   18.6680   37.1570 C.3   224  TYR224      0.0547
    102  CG        31.6130   19.7880   38.1000 C.ar  224  TYR224     -0.0200
    103  CD1       30.6990   20.3010   38.9850 C.ar  224  TYR224     -0.0009
    104  CD2       32.8690   20.4000   38.0520 C.ar  224  TYR224     -0.0009
    105  CE1       31.0090   21.3630   39.7740 C.ar  224  TYR224      0.0417
    106  CE2       33.1810   21.4690   38.8760 C.ar  224  TYR224      0.0417
    107  CZ        32.2220   21.9130   39.8080 C.ar  224  TYR224      0.1957
    108  OH        32.4660   22.9850   40.6680 O.3   224  TYR224     -0.2866
    109  N         29.1030   16.8320   35.7750 N.am  225  PRO225     -0.2729
    110  CA        28.5300   15.8340   34.8350 C.3   225  PRO225      0.1401
    111  C         29.5180   15.3780   33.8190 C.2   225  PRO225      0.2269
    112  O         30.2360   16.2260   33.3670 O.2   225  PRO225     -0.2865
    113  CB        27.3960   16.6100   34.1690 C.3   225  PRO225      0.0296
    114  CG        26.9400   17.5820   35.2220 C.3   225  PRO225      0.0237
    115  CD        28.1330   17.9230   36.0380 C.3   225  PRO225      0.0939
    116  N         35.1020   18.9990   33.4260 N.3   229  ILE229     -0.1245
    117  CA        34.6440   20.3330   33.1870 C.3   229  ILE229      0.1561
    118  C         35.7630   21.0740   32.4770 C.2   229  ILE229      0.2260
    119  O         36.9220   20.8970   32.8310 O.2   229  ILE229     -0.2867
    120  CB        34.3150   21.0270   34.5140 C.3   229  ILE229      0.0252
    121  CG1       33.4370   22.2510   34.2780 C.3   229  ILE229      0.0019
    122  CG2       35.5420   21.2970   35.3710 C.3   229  ILE229      0.0019
    123  CD1       32.0840   21.9800   33.7490 C.3   229  ILE229      0.0001
@<TRIPOS>BOND
     1    92    93    1
     2    92    89    1
     3    90    91    2
     4    90    89    1
     5    93    94    1
     6     3     2    1
     7     3     4    2
     8    89    88    1
     9     2     1    1
    10     2     5    1
    11     5     6    1
    12    94    95   ar
    13    94    96   ar
    14    82    81    2
    15    81    80    1
    16   118   119    2
    17   118   117    1
    18     6     8   ar
    19     6     7   ar
    20    11     8   ar
    21    11    13   ar
    22    87    85   am
    23   117   116    1
    24   117   120    1
    25    80    79    1
    26    80    83    1
    27   112   111    2
    28     8    10   ar
    29   123   121    1
    30   111   110    1
    31    73    72    1
    32    73    74    2
    33    13    14   ar
    34     7     9   ar
    35    85    86    2
    36    85    84    1
    37   113   110    1
    38   113   114    1
    39    77    76   ar
    40   121   120    1
    41    75    72    1
    42    75    76    1
    43    72    71    1
    44   120   122    1
    45    83    84    1
    46    64    63    1
    47   110   109    1
    48    76    78   ar
    49    10     9   ar
    50    10    12   ar
    51    68    67    2
    52   114   115    1
    53    14    12   ar
    54   109   115    1
    55   109    99   am
    56    71    67   am
    57    63    60    1
    58    67    66    1
    59   100    99    2
    60    99    98    1
    61    62    61    2
    62   101    98    1
    63   101   102    1
    64    60    59    1
    65    60    61    1
    66    59    53   am
    67    61    65   am
    68    51    52    1
    69    47    45   ar
    70    47    49   ar
    71    66    65    1
    72    66    69    1
    73    98    97    1
    74    50    49    1
    75   104   102   ar
    76   104   106   ar
    77    45    44   ar
    78   102   103   ar
    79    52    53    1
    80    52    55    1
    81    21    19    1
    82    49    48   ar
    83    70    69    1
    84    53    54    2
    85    20    19    1
    86   106   107   ar
    87   103   105   ar
    88    19    16    1
    89    44    43    1
    90    44    46   ar
    91    42    41    2
    92    55    56    1
    93    48    46   ar
    94   105   107   ar
    95   107   108    1
    96    40    43    1
    97    40    41    1
    98    40    39    1
    99    57    56   ar
   100    56    58   ar
   101    16    15    1
   102    16    17    1
   103    25    24    2
   104    38    36   am
   105    37    36    2
   106    17    22   am
   107    17    18    2
   108    22    23    1
   109    36    35    1
   110    24    23    1
   111    24    30   am
   112    26    23    1
   113    26    27    1
   114    26    28    1
   115    29    27    1
   116    33    32    2
   117    31    30    1
   118    31    32    1
   119    31    34    1
   120    35    34    1
