@<TRIPOS>MOLECULE
tmp/4bp3C02.pdb
 76 71 0 0 0
SMALL
GASTEIGER

@<TRIPOS>ATOM
      1  N         32.9340   18.5240   27.5370 N.3   193  LEU193     -0.1245
      2  CA        33.0690   18.1700   26.1380 C.3   193  LEU193      0.1561
      3  C         32.3600   16.9180   25.6310 C.2   193  LEU193      0.2260
      4  O         32.1810   16.7220   24.4010 O.2   193  LEU193     -0.2867
      5  CB        34.6070   18.0880   25.7730 C.3   193  LEU193      0.0270
      6  CG        35.3590   17.0850   26.5350 C.3   193  LEU193      0.0019
      7  CD1       35.2740   15.6540   26.0430 C.3   193  LEU193      0.0001
      8  CD2       36.7980   17.4690   26.6710 C.3   193  LEU193      0.0001
      9  N         40.5520   20.8940   29.7580 N.3   218  ASN218     -0.1240
     10  CA        39.6190   19.9450   30.3870 C.3   218  ASN218      0.1653
     11  C         40.2170   19.5310   31.7600 C.2   218  ASN218      0.2266
     12  O         41.3800   19.2930   31.9350 O.2   218  ASN218     -0.2867
     13  CB        39.4020   18.7300   29.5410 C.3   218  ASN218      0.1155
     14  CG        38.2130   17.9360   29.9650 C.2   218  ASN218      0.2627
     15  OD1       37.2660   18.4940   30.4020 O.2   218  ASN218     -0.2716
     16  ND2       38.3220   16.6420   29.9530 N.am  218  ASN218     -0.0877
     17  N         39.5710   16.8270   35.1910 N.3   220  SER220     -0.1217
     18  CA        38.9370   15.6720   35.7840 C.3   220  SER220      0.1889
     19  C         38.4540   15.9890   37.1950 C.2   220  SER220      0.2288
     20  O         39.1990   16.3900   38.0830 O.2   220  SER220     -0.2866
     21  CB        39.9320   14.5010   35.8760 C.3   220  SER220      0.2089
     22  OG        39.4110   13.4370   36.6100 O.3   220  SER220     -0.2183
     23  N         46.0440   18.9890   43.0670 N.3   258  TYR258     -0.1241
     24  CA        45.8360   18.6510   41.6240 C.3   258  TYR258      0.1605
     25  C         46.8590   19.3120   40.7240 C.2   258  TYR258      0.2264
     26  O         47.5970   18.6330   39.9800 O.2   258  TYR258     -0.2867
     27  CB        44.4060   18.9720   41.2160 C.3   258  TYR258      0.0534
     28  CG        43.9510   18.4970   39.8250 C.ar  258  TYR258     -0.0201
     29  CD1       44.3740   19.1000   38.6610 C.ar  258  TYR258     -0.0009
     30  CD2       42.9980   17.4870   39.7090 C.ar  258  TYR258     -0.0009
     31  CE1       43.8780   18.7170   37.4330 C.ar  258  TYR258      0.0417
     32  CE2       42.4590   17.0910   38.5130 C.ar  258  TYR258      0.0417
     33  CZ        42.9580   17.6810   37.3110 C.ar  258  TYR258      0.1957
     34  OH        42.5070   17.2670   36.0180 O.3   258  TYR258     -0.2866
     35  N         50.6930   19.2930   34.3580 N.3   263  ASN263     -0.1240
     36  CA        49.2160   19.1230   34.2800 C.3   263  ASN263      0.1653
     37  C         48.4790   20.3240   33.6920 C.2   263  ASN263      0.2266
     38  O         47.4860   20.2190   32.9530 O.2   263  ASN263     -0.2867
     39  CB        48.6770   18.9760   35.7020 C.3   263  ASN263      0.1155
     40  CG        48.9810   17.6560   36.2730 C.2   263  ASN263      0.2627
     41  OD1       49.5700   16.7880   35.5810 O.2   263  ASN263     -0.2716
     42  ND2       48.6330   17.4780   37.5650 N.am  263  ASN263     -0.0877
     43  N         48.8840   19.8130   29.8490 N.3   266  ALA266     -0.1231
     44  CA        48.2900   18.5250   29.4440 C.3   266  ALA266      0.1694
     45  C         46.8100   18.7200   29.3350 C.2   266  ALA266      0.2591
     46  O         46.1210   18.0920   28.5120 O.2   266  ALA266     -0.2718
     47  CB        48.5820   17.4830   30.5050 C.3   266  ALA266      0.0304
     48  N         46.3330   19.6420   30.1620 N.am  267  ALA267     -0.1980
     49  CA        44.8920   19.9210   30.2180 C.3   267  ALA267      0.1597
     50  C         44.3000   20.4230   28.8830 C.2   267  ALA267      0.2287
     51  O         43.1220   20.2470   28.5790 O.2   267  ALA267     -0.2864
     52  CB        44.6060   20.8560   31.3790 C.3   267  ALA267      0.0319
     53  N         45.2810   19.3250   25.8260 N.3   269  LYS269     -0.1231
     54  CA        45.3880   18.2940   24.7970 C.3   269  LYS269      0.1693
     55  C         44.0930   17.5200   24.7040 C.2   269  LYS269      0.2592
     56  O         43.8460   16.6530   25.5300 O.2   269  LYS269     -0.2718
     57  CB        46.5480   17.4210   25.1320 C.3   269  LYS269      0.0285
     58  CG        47.8310   18.1930   25.2700 C.3   269  LYS269      0.0035
     59  CD        48.0430   19.0120   24.0060 C.3   269  LYS269      0.0206
     60  CE        49.3750   19.7370   23.9830 C.3   269  LYS269      0.1093
     61  NZ        50.2480   19.0520   24.9440 N.3   269  LYS269     -0.1314
     62  N         43.2430   17.9430   23.7960 N.am  270  LEU270     -0.1966
     63  CA        41.8240   17.5650   23.7740 C.3   270  LEU270      0.1713
     64  C         41.5880   16.3380   22.9100 C.2   270  LEU270      0.2458
     65  O         42.3820   16.0430   22.0360 O.2   270  LEU270     -0.2730
     66  CB        40.9910   18.7380   23.2830 C.3   270  LEU270      0.0310
     67  CG        41.1220   20.0540   24.0190 C.3   270  LEU270      0.0022
     68  CD1       40.3660   21.1260   23.2970 C.3   270  LEU270      0.0001
     69  CD2       40.7420   19.8510   25.4900 C.3   270  LEU270      0.0001
     70  N         40.4970   15.6100   23.1340 N.am  271  PRO271     -0.2727
     71  CA        40.0910   14.4820   22.3070 C.3   271  PRO271      0.1402
     72  C         39.9200   14.9220   20.8350 C.2   271  PRO271      0.2269
     73  O         39.4220   16.0280   20.5130 O.2   271  PRO271     -0.2865
     74  CB        38.7370   14.0710   22.8900 C.3   271  PRO271      0.0296
     75  CG        38.8160   14.5000   24.3270 C.3   271  PRO271      0.0237
     76  CD        39.6330   15.7620   24.3340 C.3   271  PRO271      0.0939
@<TRIPOS>BOND
     1    73    72    2
     2    72    71    1
     3    65    64    2
     4    71    74    1
     5    71    70    1
     6    74    75    1
     7    64    70   am
     8    64    63    1
     9    70    76    1
    10    66    63    1
    11    66    67    1
    12    68    67    1
    13    63    62    1
    14    62    55   am
    15    60    59    1
    16    60    61    1
    17    59    58    1
    18    67    69    1
    19    75    76    1
    20     4     3    2
    21    55    54    1
    22    55    56    2
    23    54    57    1
    24    54    53    1
    25    57    58    1
    26     3     2    1
    27     5     2    1
    28     5     6    1
    29     7     6    1
    30     2     1    1
    31     6     8    1
    32    46    45    2
    33    51    50    2
    34    50    49    1
    35    45    44    1
    36    45    48   am
    37    44    43    1
    38    44    47    1
    39    13    14    1
    40    13    10    1
    41     9    10    1
    42    16    14   am
    43    14    15    2
    44    48    49    1
    45    49    52    1
    46    10    11    1
    47    11    12    2
    48    38    37    2
    49    37    36    1
    50    36    35    1
    51    36    39    1
    52    17    18    1
    53    41    40    2
    54    39    40    1
    55    18    21    1
    56    18    19    1
    57    21    22    1
    58    34    33    1
    59    40    42   am
    60    19    20    2
    61    33    31   ar
    62    33    32   ar
    63    31    29   ar
    64    32    30   ar
    65    29    28   ar
    66    30    28   ar
    67    28    27    1
    68    26    25    2
    69    25    24    1
    70    27    24    1
    71    24    23    1
