@<TRIPOS>MOLECULE
tmp/4bp3C01.pdb
 206 196 0 0 0
SMALL
GASTEIGER

@<TRIPOS>ATOM
      1  N         18.5300   31.5020   43.9820 N.3    32  GLN32      -0.1245
      2  CA        18.7010   30.0560   43.7870 C.3    32  GLN32       0.1566
      3  C         18.2030   29.2350   45.0020 C.2    32  GLN32       0.2260
      4  O         18.1940   29.7580   46.1320 O.2    32  GLN32      -0.2867
      5  CB        20.1910   29.8040   43.7230 C.3    32  GLN32       0.0367
      6  CG        20.7640   30.5350   42.5750 C.3    32  GLN32       0.0905
      7  CD        22.2340   30.4520   42.5180 C.2    32  GLN32       0.2608
      8  OE1       22.7410   29.8640   41.5890 O.2    32  GLN32      -0.2717
      9  NE2       22.9190   31.1670   43.3910 N.am   32  GLN32      -0.0878
     10  N         27.7390   21.3080   48.3800 N.3    46  LEU46      -0.1245
     11  CA        26.9610   22.4500   48.0810 C.3    46  LEU46       0.1561
     12  C         26.2630   22.3220   46.7460 C.2    46  LEU46       0.2260
     13  O         26.8530   21.9910   45.7270 O.2    46  LEU46      -0.2867
     14  CB        27.8500   23.6670   48.1430 C.3    46  LEU46       0.0270
     15  CG        27.2080   24.9680   47.6730 C.3    46  LEU46       0.0019
     16  CD1       26.0850   25.3920   48.5830 C.3    46  LEU46       0.0001
     17  CD2       28.1510   26.0940   47.3960 C.3    46  LEU46       0.0001
     18  N         23.2150   24.0460   44.0830 N.3    48  LEU48      -0.1245
     19  CA        22.4880   25.1750   43.6750 C.3    48  LEU48       0.1561
     20  C         21.5740   24.8390   42.5020 C.2    48  LEU48       0.2260
     21  O         21.9810   24.3590   41.4500 O.2    48  LEU48      -0.2867
     22  CB        23.3740   26.3530   43.2930 C.3    48  LEU48       0.0270
     23  CG        24.2980   26.9590   44.2720 C.3    48  LEU48       0.0019
     24  CD1       25.2340   28.0090   43.5780 C.3    48  LEU48       0.0001
     25  CD2       23.4830   27.5440   45.4470 C.3    48  LEU48       0.0001
     26  N         27.5930   22.0370   42.9620 N.3    53  GLN53      -0.1231
     27  CA        28.5820   23.1050   42.8050 C.3    53  GLN53       0.1698
     28  C         29.9360   22.7240   43.2890 C.2    53  GLN53       0.2592
     29  O         30.9500   23.1310   42.7010 O.2    53  GLN53      -0.2718
     30  CB        28.1150   24.3710   43.5050 C.3    53  GLN53       0.0381
     31  CG        26.8010   24.8450   43.0700 C.3    53  GLN53       0.0905
     32  CD        26.7470   25.2610   41.6390 C.2    53  GLN53       0.2608
     33  OE1       27.4670   26.1760   41.2080 O.2    53  GLN53      -0.2717
     34  NE2       25.9360   24.5550   40.8720 N.am   53  GLN53      -0.0878
     35  N         30.0270   21.9680   44.3770 N.am   54  LEU54      -0.1980
     36  CA        31.2210   21.5030   44.9310 C.3    54  LEU54       0.1596
     37  C         31.0370   20.4350   46.0310 C.2    54  LEU54       0.2287
     38  O         29.9970   20.2830   46.5480 O.2    54  LEU54      -0.2864
     39  CB        32.0960   22.5890   45.4930 C.3    54  LEU54       0.0297
     40  CG        31.6140   23.2710   46.7730 C.3    54  LEU54       0.0022
     41  CD1       31.9320   22.5080   47.9920 C.3    54  LEU54       0.0001
     42  CD2       32.4040   24.5570   46.8280 C.3    54  LEU54       0.0001
     43  N         38.9840   21.5830   40.5060 N.3    62  TYR62      -0.1227
     44  CA        38.4710   22.7190   39.8100 C.3    62  TYR62       0.1736
     45  C         39.1100   24.0200   40.3060 C.2    62  TYR62       0.2595
     46  O         39.5310   24.8280   39.4900 O.2    62  TYR62      -0.2718
     47  CB        36.9910   22.7190   40.0060 C.3    62  TYR62       0.0548
     48  CG        36.2930   23.8980   39.4540 C.ar   62  TYR62      -0.0200
     49  CD1       36.0320   23.9860   38.0860 C.ar   62  TYR62      -0.0009
     50  CD2       35.8700   24.9420   40.2780 C.ar   62  TYR62      -0.0009
     51  CE1       35.3260   25.0270   37.5750 C.ar   62  TYR62       0.0417
     52  CE2       35.2040   26.0260   39.7360 C.ar   62  TYR62       0.0417
     53  CZ        34.9450   26.0770   38.3880 C.ar   62  TYR62       0.1957
     54  OH        34.2380   27.1270   37.8210 O.3    62  TYR62      -0.2866
     55  N         39.1570   24.2460   41.6440 N.am   63  HIS63      -0.1975
     56  CA        39.6530   25.5090   42.1490 C.3    63  HIS63       0.1656
     57  C         41.0720   25.7230   41.7620 C.2    63  HIS63       0.2291
     58  O         41.4540   26.8100   41.4310 O.2    63  HIS63      -0.2864
     59  CB        39.4430   25.6770   43.6800 C.3    63  HIS63       0.0771
     60  CG        38.0150   25.8170   43.9830 C.ar   63  HIS63       0.0820
     61  ND1       37.3490   25.0440   44.8900 N.ar   63  HIS63      -0.2267
     62  CD2       37.0840   26.6210   43.4080 C.ar   63  HIS63       0.1154
     63  CE1       36.0700   25.3610   44.8790 C.ar   63  HIS63       0.1986
     64  NE2       35.8730   26.3120   43.9860 N.ar   63  HIS63      -0.2212
     65  N         34.3700   36.1090   39.2170 N.3    83  VAL83      -0.1231
     66  CA        32.9920   36.2430   38.8660 C.3    83  VAL83       0.1692
     67  C         32.3950   34.9780   39.3530 C.2    83  VAL83       0.2593
     68  O         32.8670   33.8850   39.1020 O.2    83  VAL83      -0.2718
     69  CB        32.8200   36.4300   37.3240 C.3    83  VAL83       0.0266
     70  CG1       31.3420   36.1890   36.9340 C.3    83  VAL83       0.0020
     71  CG2       33.3720   37.7940   36.9360 C.3    83  VAL83       0.0020
     72  N         31.3070   35.1120   40.1020 N.am   84  GLY84      -0.1942
     73  CA        30.7590   33.9990   40.8380 C.3    84  GLY84       0.2014
     74  C         31.6170   33.6210   42.0290 C.2    84  GLY84       0.2639
     75  O         31.9870   34.4740   42.8300 O.2    84  GLY84      -0.2714
     76  N         31.8880   32.3210   42.1920 N.am   85  GLY85      -0.1954
     77  CA        32.8970   31.9220   43.1350 C.3    85  GLY85       0.1869
     78  C         32.4930   32.1120   44.6370 C.2    85  GLY85       0.2309
     79  O         33.3780   32.1710   45.4590 O.2    85  GLY85      -0.2863
     80  N         31.5910   30.3940   47.1450 N.3    87  ASP87      -0.1239
     81  CA        32.1860   29.5020   48.1600 C.3    87  ASP87       0.1674
     82  C         33.5560   29.9460   48.6730 C.2    87  ASP87       0.2266
     83  O         34.0270   29.5110   49.7570 O.2    87  ASP87      -0.2867
     84  CB        32.2670   28.1000   47.5850 C.3    87  ASP87       0.1410
     85  CG        32.8890   28.1290   46.1790 C.2    87  ASP87       0.3668
     86  OD1       32.2510   28.4850   45.1830 O.co2  87  ASP87      -0.2456
     87  OD2       34.0650   28.0460   46.1270 O.co2  87  ASP87      -0.2456
     88  N         32.8570   39.1740   42.6280 N.3   106  CYS106     -0.1221
     89  CA        31.4750   39.5520   42.2900 C.3   106  CYS106      0.1808
     90  C         30.6010   38.3840   42.2080 C.2   106  CYS106      0.2601
     91  O         30.5960   37.6890   41.1790 O.2   106  CYS106     -0.2717
     92  CB        31.4210   40.3540   40.9900 C.3   106  CYS106      0.0970
     93  SG        29.7870   41.0350   40.6440 S.3   106  CYS106     -0.0800
     94  N         29.7770   38.2020   43.2670 N.am  107  GLU107     -0.1965
     95  CA        29.0010   37.0200   43.4190 C.3   107  GLU107      0.1733
     96  C         27.5870   37.5630   43.5490 C.2   107  GLU107      0.2616
     97  O         27.3500   38.4610   44.3840 O.2   107  GLU107     -0.2715
     98  CB        29.4540   36.2640   44.6960 C.3   107  GLU107      0.0429
     99  CG        28.3370   35.3990   45.2770 C.3   107  GLU107      0.1163
    100  CD        27.9330   34.2260   44.4040 C.2   107  GLU107      0.3649
    101  OE1       28.7570   33.3260   44.1360 O.co2 107  GLU107     -0.2457
    102  OE2       26.7870   34.1920   43.9420 O.co2 107  GLU107     -0.2457
    103  N         26.6760   37.0130   42.7710 N.am  108  ILE108     -0.1963
    104  CA        25.3010   37.5010   42.7380 C.3   108  ILE108      0.1727
    105  C         24.5170   37.1660   44.0270 C.2   108  ILE108      0.2616
    106  O         23.6770   37.9510   44.4440 O.2   108  ILE108     -0.2715
    107  CB        24.5640   36.9560   41.4850 C.3   108  ILE108      0.0290
    108  CG1       23.4120   37.8940   41.0640 C.3   108  ILE108      0.0022
    109  CG2       24.1780   35.4730   41.6220 C.3   108  ILE108      0.0023
    110  CD1       22.6690   37.5220   39.7810 C.3   108  ILE108      0.0001
    111  N         24.8250   36.0370   44.6630 N.am  109  ASP109     -0.1971
    112  CA        23.9950   35.4940   45.7730 C.3   109  ASP109      0.1709
    113  C         24.7590   35.4590   47.0910 C.2   109  ASP109      0.2293
    114  O         25.5160   34.5400   47.3930 O.2   109  ASP109     -0.2864
    115  CB        23.5530   34.1190   45.3500 C.3   109  ASP109      0.1436
    116  CG        22.4900   33.5440   46.2600 C.2   109  ASP109      0.3671
    117  OD1       22.4150   34.1150   47.4210 O.co2 109  ASP109     -0.2456
    118  OD2       21.8260   32.5970   45.7610 O.co2 109  ASP109     -0.2456
    119  N         25.2600   32.3790   49.3420 N.3   112  VAL112     -0.1245
    120  CA        26.2550   31.4020   49.0080 C.3   112  VAL112      0.1561
    121  C         27.4760   31.6540   49.8530 C.2   112  VAL112      0.2260
    122  O         28.0610   30.7270   50.4180 O.2   112  VAL112     -0.2867
    123  CB        26.5620   31.3760   47.4900 C.3   112  VAL112      0.0252
    124  CG1       27.7540   30.4890   47.2620 C.3   112  VAL112      0.0019
    125  CG2       25.3240   30.9280   46.6690 C.3   112  VAL112      0.0019
    126  N         26.4940   41.2960   43.2660 N.3   137  GLU137     -0.1231
    127  CA        25.9150   41.8370   42.0200 C.3   137  GLU137      0.1699
    128  C         25.9680   40.7840   40.9100 C.2   137  GLU137      0.2592
    129  O         26.7710   39.8420   40.9900 O.2   137  GLU137     -0.2718
    130  CB        26.7070   43.0730   41.6470 C.3   137  GLU137      0.0402
    131  CG        26.1430   43.8240   40.4550 C.3   137  GLU137      0.1161
    132  CD        26.6580   45.2330   40.2720 C.2   137  GLU137      0.3649
    133  OE1       27.7220   45.6210   40.8490 O.co2 137  GLU137     -0.2457
    134  OE2       25.9310   45.9110   39.5250 O.co2 137  GLU137     -0.2457
    135  N         25.0940   40.9210   39.9120 N.am  138  ASP138     -0.1960
    136  CA        25.1770   40.1790   38.6180 C.3   138  ASP138      0.1840
    137  C         26.4550   40.6950   38.0000 C.2   138  ASP138      0.2621
    138  O         26.6220   41.8950   37.7930 O.2   138  ASP138     -0.2715
    139  CB        23.9570   40.4420   37.7490 C.3   138  ASP138      0.1450
    140  CG        23.9480   39.6100   36.4330 C.2   138  ASP138      0.3671
    141  OD1       25.0050   39.2440   35.9250 O.co2 138  ASP138     -0.2456
    142  OD2       22.8950   39.3000   35.8750 O.co2 138  ASP138     -0.2456
    143  N         27.3790   39.7890   37.7040 N.am  139  ALA139     -0.1977
    144  CA        28.6580   40.2470   37.1640 C.3   139  ALA139      0.1597
    145  C         28.4670   40.8900   35.7700 C.2   139  ALA139      0.2287
    146  O         29.2580   41.7150   35.4020 O.2   139  ALA139     -0.2864
    147  CB        29.6040   39.0880   37.1330 C.3   139  ALA139      0.0319
    148  N         33.9390   31.8410   37.5220 N.3   156  ASP156     -0.1225
    149  CA        33.5980   30.6020   38.2340 C.3   156  ASP156      0.1805
    150  C         32.0790   30.6070   38.4090 C.2   156  ASP156      0.2598
    151  O         31.5930   30.8070   39.5170 O.2   156  ASP156     -0.2718
    152  CB        34.2600   30.5690   39.5920 C.3   156  ASP156      0.1424
    153  CG        33.8800   29.3580   40.4310 C.2   156  ASP156      0.3668
    154  OD1       33.2770   28.3850   39.8860 O.co2 156  ASP156     -0.2456
    155  OD2       34.2450   29.4110   41.6510 O.co2 156  ASP156     -0.2456
    156  N         31.3740   30.3430   37.3090 N.am  157  SER157     -0.1938
    157  CA        29.9290   30.3980   37.2570 C.3   157  SER157      0.2055
    158  C         29.3420   29.0580   37.4120 C.2   157  SER157      0.2643
    159  O         29.9110   28.0320   37.1340 O.2   157  SER157     -0.2714
    160  CB        29.3590   30.9780   35.9260 C.3   157  SER157      0.2130
    161  OG        29.7230   30.1680   34.7620 O.3   157  SER157     -0.2179
    162  N         28.0930   29.0890   37.8310 N.am  158  SER158     -0.1949
    163  CA        27.2320   27.9880   37.6050 C.3   158  SER158      0.1924
    164  C         26.8270   27.8610   36.1130 C.2   158  SER158      0.2314
    165  O         27.3720   28.5190   35.1950 O.2   158  SER158     -0.2863
    166  CB        25.9920   28.2620   38.4720 C.3   158  SER158      0.2116
    167  OG        25.5760   29.6310   38.3910 O.3   158  SER158     -0.2180
    168  N         20.9040   32.1640   37.2380 N.3   163  PRO163     -0.2102
    169  CA        21.4690   33.5000   37.1510 C.3   163  PRO163      0.1504
    170  C         22.7150   33.5950   36.2740 C.2   163  PRO163      0.2575
    171  O         23.0840   34.7400   35.9170 O.2   163  PRO163     -0.2718
    172  CB        21.7900   33.9150   38.6120 C.3   163  PRO163      0.0282
    173  CG        21.7800   32.6450   39.3670 C.3   163  PRO163      0.0208
    174  CD        20.8670   31.6890   38.6410 C.3   163  PRO163      0.0893
    175  N         23.3540   32.4660   35.9580 N.am  164  ALA164     -0.1980
    176  CA        24.5930   32.5640   35.1730 C.3   164  ALA164      0.1597
    177  C         24.1850   32.6910   33.6770 C.2   164  ALA164      0.2287
    178  O         25.0400   32.8970   32.8830 O.2   164  ALA164     -0.2864
    179  CB        25.4980   31.3920   35.3860 C.3   164  ALA164      0.0319
    180  N         23.4190   35.1640   32.0150 N.3   166  THR166     -0.1203
    181  CA        23.9090   36.4360   31.5480 C.3   166  THR166      0.1994
    182  C         25.4000   36.4100   31.2600 C.2   166  THR166      0.2617
    183  O         25.9390   37.3760   30.6890 O.2   166  THR166     -0.2717
    184  CB        23.6030   37.6210   32.5250 C.3   166  THR166      0.1784
    185  OG1       24.2520   37.3590   33.7820 O.3   166  THR166     -0.2211
    186  CG2       22.0970   37.8140   32.6380 C.3   166  THR166      0.0376
    187  N         26.0500   35.3030   31.6250 N.am  167  LEU167     -0.1979
    188  CA        27.4900   35.1540   31.4730 C.3   167  LEU167      0.1596
    189  C         27.8580   34.3010   30.2840 C.2   167  LEU167      0.2287
    190  O         29.0620   34.2230   29.9700 O.2   167  LEU167     -0.2864
    191  CB        28.0530   34.5660   32.8070 C.3   167  LEU167      0.0297
    192  CG        27.6180   35.1720   34.1490 C.3   167  LEU167      0.0022
    193  CD1       28.2650   34.4590   35.3670 C.3   167  LEU167      0.0001
    194  CD2       27.9730   36.6240   34.1990 C.3   167  LEU167      0.0001
    195  N         31.2230   16.7560   38.7500 N.3   224  TYR224     -0.1241
    196  CA        30.4760   17.5120   37.7280 C.3   224  TYR224      0.1605
    197  C         30.1280   16.5550   36.5300 C.2   224  TYR224      0.2264
    198  O         30.6950   15.5010   36.4410 O.2   224  TYR224     -0.2867
    199  CB        31.2580   18.6680   37.1570 C.3   224  TYR224      0.0534
    200  CG        31.6130   19.7880   38.1000 C.ar  224  TYR224     -0.0201
    201  CD1       30.6990   20.3010   38.9850 C.ar  224  TYR224     -0.0009
    202  CD2       32.8690   20.4000   38.0520 C.ar  224  TYR224     -0.0009
    203  CE1       31.0090   21.3630   39.7740 C.ar  224  TYR224      0.0417
    204  CE2       33.1810   21.4690   38.8760 C.ar  224  TYR224      0.0417
    205  CZ        32.2220   21.9130   39.8080 C.ar  224  TYR224      0.1957
    206  OH        32.4660   22.9850   40.6680 O.3   224  TYR224     -0.2866
@<TRIPOS>BOND
     1   190   189    2
     2   189   188    1
     3   183   182    2
     4   182   181    1
     5   182   187   am
     6   188   187    1
     7   188   191    1
     8   181   180    1
     9   181   184    1
    10   184   186    1
    11   184   185    1
    12   191   192    1
    13   178   177    2
    14   177   176    1
    15   192   194    1
    16   192   193    1
    17   161   160    1
    18   176   179    1
    19   176   175    1
    20   165   164    2
    21   146   145    2
    22   145   144    1
    23   142   140   ar
    24   171   170    2
    25   141   140   ar
    26   160   157    1
    27   175   170   am
    28   164   163    1
    29   170   169    1
    30   140   139    1
    31   198   197    2
    32   197   196    1
    33    70    69    1
    34    71    69    1
    35   147   144    1
    36   159   158    2
    37   169   168    1
    38   169   172    1
    39   199   196    1
    40   199   200    1
    41   144   143    1
    42   168   174    1
    43   157   156    1
    44   157   158    1
    45   156   150   am
    46    69    66    1
    47   158   162   am
    48   148   149    1
    49    51    49   ar
    50    51    53   ar
    51   163   162    1
    52   163   166    1
    53   143   137   am
    54   196   195    1
    55   139   136    1
    56   138   137    2
    57    54    53    1
    58   137   136    1
    59   202   200   ar
    60   202   204   ar
    61    49    48   ar
    62   200   201   ar
    63   149   150    1
    64   149   152    1
    65    53    52   ar
    66   167   166    1
    67   150   151    2
    68   172   173    1
    69   136   135    1
    70   174   173    1
    71    66    65    1
    72    66    67    1
    73   204   205   ar
    74   201   203   ar
    75    68    67    2
    76    67    72   am
    77    48    47    1
    78    48    50   ar
    79    46    45    2
    80   134   132   ar
    81   152   153    1
    82    52    50   ar
    83   203   205   ar
    84   110   108    1
    85   205   206    1
    86    44    47    1
    87    44    45    1
    88    44    43    1
    89   154   153   ar
    90   135   128   am
    91    72    73    1
    92   132   131    1
    93   132   133   ar
    94    45    55   am
    95   153   155   ar
    96   131   130    1
    97    93    92    1
    98    73    74    1
    99    34    32   am
   100   128   129    2
   101   128   127    1
   102    92    89    1
   103   108   107    1
   104    91    90    2
   105    33    32    2
   106    58    57    2
   107    21    20    2
   108   107   109    1
   109   107   104    1
   110     8     7    2
   111    32    31    1
   112    55    56    1
   113   130   127    1
   114    57    56    1
   115   127   126    1
   116    74    76   am
   117    74    75    2
   118    56    59    1
   119    76    77    1
   120    90    89    1
   121    90    94   am
   122    89    88    1
   123    20    19    1
   124     7     6    1
   125     7     9   am
   126     6     5    1
   127    29    28    2
   128   104   103    1
   129   104   105    1
   130   103    96   am
   131    27    26    1
   132    27    28    1
   133    27    30    1
   134    31    30    1
   135    77    78    1
   136    94    95    1
   137    28    35   am
   138    22    19    1
   139    22    23    1
   140    62    60   ar
   141    62    64   ar
   142    95    96    1
   143    95    98    1
   144    96    97    2
   145    24    23    1
   146    19    18    1
   147    59    60    1
   148     5     2    1
   149     2     1    1
   150     2     3    1
   151   102   100   ar
   152    60    61   ar
   153    64    63   ar
   154   105   106    2
   155   105   111   am
   156   101   100   ar
   157    23    25    1
   158    35    36    1
   159   100    99    1
   160    78    79    2
   161   111   112    1
   162    98    99    1
   163    63    61   ar
   164    36    39    1
   165    36    37    1
   166     3     4    2
   167    86    85   ar
   168   115   112    1
   169   115   116    1
   170    39    40    1
   171    13    12    2
   172   118   116   ar
   173   112   113    1
   174    37    38    2
   175    87    85   ar
   176    85    84    1
   177   116   117   ar
   178   125   123    1
   179    12    11    1
   180    40    42    1
   181    40    41    1
   182   113   114    2
   183    80    81    1
   184   124   123    1
   185    17    15    1
   186   123   120    1
   187    84    81    1
   188    15    14    1
   189    15    16    1
   190    11    14    1
   191    11    10    1
   192    81    82    1
   193    82    83    2
   194   120   119    1
   195   120   121    1
   196   121   122    2
