@<TRIPOS>MOLECULE
tmp/4bp9C00.pdb
 225 213 0 0 0
SMALL
GASTEIGER

@<TRIPOS>ATOM
      1  N         56.6810   59.7460  195.1250 N.3   146  GLY146     -0.1225
      2  CA        57.3320   60.6320  196.0700 C.3   146  GLY146      0.1811
      3  C         57.5120   62.0220  195.4990 C.2   146  GLY146      0.2280
      4  O         57.4920   63.0240  196.2210 O.2   146  GLY146     -0.2866
      5  N         59.5380   52.3280  201.1090 N.3   168  GLU168     -0.1245
      6  CA        60.0390   53.6800  200.8230 C.3   168  GLU168      0.1567
      7  C         61.3880   53.6990  200.0630 C.2   168  GLU168      0.2260
      8  O         62.1780   54.6380  200.1880 O.2   168  GLU168     -0.2867
      9  CB        60.0750   54.5580  202.0880 C.3   168  GLU168      0.0388
     10  CG        58.7900   55.3780  202.3210 C.3   168  GLU168      0.1160
     11  CD        58.4850   55.6240  203.8130 C.2   168  GLU168      0.3649
     12  OE1       57.8370   54.7570  204.4580 O.co2 168  GLU168     -0.2457
     13  OE2       58.8880   56.6900  204.3420 O.co2 168  GLU168     -0.2457
     14  N         62.5200   54.0450  196.3390 N.3   170  TYR170     -0.1241
     15  CA        61.8920   54.5000  195.1050 C.3   170  TYR170      0.1605
     16  C         62.8310   54.3500  193.9090 C.2   170  TYR170      0.2264
     17  O         64.0290   54.5850  194.0290 O.2   170  TYR170     -0.2867
     18  CB        61.4820   55.9760  195.2350 C.3   170  TYR170      0.0534
     19  CG        60.5600   56.3450  196.4080 C.ar  170  TYR170     -0.0201
     20  CD1       61.0550   56.3970  197.7330 C.ar  170  TYR170     -0.0009
     21  CD2       59.2090   56.6880  196.1960 C.ar  170  TYR170     -0.0009
     22  CE1       60.2410   56.7520  198.8130 C.ar  170  TYR170      0.0417
     23  CE2       58.3730   57.0470  197.2800 C.ar  170  TYR170      0.0417
     24  CZ        58.9040   57.0750  198.5960 C.ar  170  TYR170      0.1957
     25  OH        58.1190   57.4160  199.6950 O.3   170  TYR170     -0.2866
     26  N         65.5870   57.7590  198.0070 N.3   187  ASN187     -0.1225
     27  CA        64.5430   58.3150  198.8790 C.3   187  ASN187      0.1785
     28  C         63.4180   58.9780  198.0510 C.2   187  ASN187      0.2598
     29  O         62.4850   59.5790  198.5900 O.2   187  ASN187     -0.2718
     30  CB        65.1500   59.3190  199.8690 C.3   187  ASN187      0.1169
     31  CG        65.3250   60.7160  199.2660 C.2   187  ASN187      0.2627
     32  OD1       65.5450   60.8840  198.0560 O.2   187  ASN187     -0.2716
     33  ND2       65.2350   61.7260  200.1080 N.am  187  ASN187     -0.0877
     34  N         63.5410   58.8890  196.7290 N.am  188  GLY188     -0.1942
     35  CA        62.5180   59.3850  195.8140 C.3   188  GLY188      0.2014
     36  C         62.4510   60.8720  195.5350 C.2   188  GLY188      0.2639
     37  O         61.6250   61.2670  194.7370 O.2   188  GLY188     -0.2714
     38  N         63.2730   61.7020  196.1950 N.am  189  SER189     -0.1949
     39  CA        63.4280   63.1000  195.7870 C.3   189  SER189      0.1924
     40  C         63.9960   63.0710  194.3700 C.2   189  SER189      0.2314
     41  O         64.7520   62.1510  194.0490 O.2   189  SER189     -0.2863
     42  CB        64.4580   63.8240  196.6380 C.3   189  SER189      0.2116
     43  OG        64.0490   64.0200  197.9530 O.3   189  SER189     -0.2180
     44  N         69.8020   55.3660  200.0230 N.3   204  LYS204     -0.1245
     45  CA        69.7950   54.7120  201.3120 C.3   204  LYS204      0.1561
     46  C         71.0850   53.8860  201.5290 C.2   204  LYS204      0.2260
     47  O         71.8500   53.6340  200.5820 O.2   204  LYS204     -0.2867
     48  CB        68.5900   53.7860  201.3230 C.3   204  LYS204      0.0271
     49  CG        67.3770   54.3630  201.9330 C.3   204  LYS204      0.0035
     50  CD        66.3590   54.9530  201.0320 C.3   204  LYS204      0.0206
     51  CE        65.1500   55.2740  201.9400 C.3   204  LYS204      0.1093
     52  NZ        64.1140   56.1850  201.3650 N.3   204  LYS204     -0.1314
     53  N         68.4460   51.7800  205.8180 N.3   208  LYS208     -0.1245
     54  CA        67.7360   52.7390  204.9620 C.3   208  LYS208      0.1561
     55  C         68.0110   54.2040  205.2940 C.2   208  LYS208      0.2260
     56  O         67.1580   55.0630  205.0550 O.2   208  LYS208     -0.2867
     57  CB        66.2360   52.4230  204.8900 C.3   208  LYS208      0.0271
     58  CG        65.9660   50.9310  204.9870 C.3   208  LYS208      0.0035
     59  CD        64.9040   50.4600  204.0400 C.3   208  LYS208      0.0206
     60  CE        65.2850   49.0820  203.5460 C.3   208  LYS208      0.1093
     61  NZ        64.2160   48.1370  203.8950 N.3   208  LYS208     -0.1314
     62  N         69.5370   57.8030  204.6110 N.3   210  ASP210     -0.1239
     63  CA        69.8370   58.6510  203.4320 C.3   210  ASP210      0.1674
     64  C         71.2240   59.2290  203.6180 C.2   210  ASP210      0.2266
     65  O         71.3980   60.1340  204.4320 O.2   210  ASP210     -0.2867
     66  CB        68.8310   59.7980  203.3020 C.3   210  ASP210      0.1410
     67  CG        67.3920   59.3240  203.0160 C.2   210  ASP210      0.3668
     68  OD1       67.1260   58.1090  202.7760 O.co2 210  ASP210     -0.2456
     69  OD2       66.4950   60.1980  203.0470 O.co2 210  ASP210     -0.2456
     70  N         50.5190   63.4370  220.0650 N.3   478  TYR478     -0.1241
     71  CA        51.7110   62.9640  219.3690 C.3   478  TYR478      0.1605
     72  C         52.7930   62.4450  220.3280 C.2   478  TYR478      0.2264
     73  O         52.8790   61.2430  220.4620 O.2   478  TYR478     -0.2867
     74  CB        52.1990   63.9140  218.2980 C.3   478  TYR478      0.0534
     75  CG        53.0240   63.2000  217.2450 C.ar  478  TYR478     -0.0201
     76  CD1       52.4700   62.2190  216.4130 C.ar  478  TYR478     -0.0009
     77  CD2       54.3770   63.5150  217.0810 C.ar  478  TYR478     -0.0009
     78  CE1       53.2730   61.5790  215.4490 C.ar  478  TYR478      0.0417
     79  CE2       55.1560   62.9010  216.1320 C.ar  478  TYR478      0.0417
     80  CZ        54.6210   61.9390  215.3360 C.ar  478  TYR478      0.1957
     81  OH        55.4730   61.3660  214.4430 O.3   478  TYR478     -0.2866
     82  N         59.7330   64.7050  218.7370 N.3   481  TYR481     -0.1241
     83  CA        60.3910   65.3070  217.5650 C.3   481  TYR481      0.1605
     84  C         60.1330   66.7900  217.3970 C.2   481  TYR481      0.2264
     85  O         60.4510   67.3560  216.3330 O.2   481  TYR481     -0.2867
     86  CB        59.8940   64.6660  216.2730 C.3   481  TYR481      0.0534
     87  CG        59.9580   63.1620  216.1760 C.ar  481  TYR481     -0.0201
     88  CD1       61.1710   62.4700  216.3090 C.ar  481  TYR481     -0.0009
     89  CD2       58.8100   62.4340  215.8560 C.ar  481  TYR481     -0.0009
     90  CE1       61.2220   61.0990  216.1760 C.ar  481  TYR481      0.0417
     91  CE2       58.8550   61.0590  215.7210 C.ar  481  TYR481      0.0417
     92  CZ        60.0610   60.4090  215.8800 C.ar  481  TYR481      0.1957
     93  OH        60.0820   59.0600  215.7520 O.3   481  TYR481     -0.2866
     94  N         57.3770   67.9540  216.7560 N.3   483  ILE483     -0.1245
     95  CA        56.2330   68.1180  215.8300 C.3   483  ILE483      0.1561
     96  C         54.9390   68.4690  216.5780 C.2   483  ILE483      0.2260
     97  O         54.7120   68.0130  217.6840 O.2   483  ILE483     -0.2867
     98  CB        56.0120   66.8730  214.9330 C.3   483  ILE483      0.0252
     99  CG1       56.9820   66.8730  213.7470 C.3   483  ILE483      0.0019
    100  CG2       54.5740   66.8120  214.3980 C.3   483  ILE483      0.0019
    101  CD1       56.9660   65.5430  212.9460 C.3   483  ILE483      0.0001
    102  N         52.2210   56.1350  215.3060 N.3   559  SER559     -0.1202
    103  CA        53.7020   56.1150  215.2860 C.3   559  SER559      0.2020
    104  C         54.3810   56.4390  216.6600 C.2   559  SER559      0.2618
    105  O         54.3350   55.6140  217.5770 O.2   559  SER559     -0.2717
    106  CB        54.2220   56.9470  214.0960 C.3   559  SER559      0.2103
    107  OG        55.6370   56.9390  213.9860 O.3   559  SER559     -0.2182
    108  N         55.0060   57.6030  216.8220 N.am  560  ALA560     -0.1979
    109  CA        55.5550   57.9740  218.1420 C.3   560  ALA560      0.1597
    110  C         54.4110   58.3530  219.0530 C.2   560  ALA560      0.2287
    111  O         54.5510   58.4310  220.2900 O.2   560  ALA560     -0.2864
    112  CB        56.5380   59.1160  218.0470 C.3   560  ALA560      0.0319
    113  N         55.2950   52.6160  217.7130 N.3   585  PHE585     -0.1241
    114  CA        56.6500   52.4510  218.2020 C.3   585  PHE585      0.1605
    115  C         56.5480   52.0110  219.6550 C.2   585  PHE585      0.2264
    116  O         56.3730   52.8180  220.5550 O.2   585  PHE585     -0.2867
    117  CB        57.4260   53.7670  218.0800 C.3   585  PHE585      0.0534
    118  CG        58.8490   53.7070  218.6170 C.ar  585  PHE585     -0.0203
    119  CD1       59.6840   52.6300  218.3320 C.ar  585  PHE585     -0.0042
    120  CD2       59.3630   54.7550  219.3860 C.ar  585  PHE585     -0.0042
    121  CE1       60.9980   52.5900  218.8170 C.ar  585  PHE585     -0.0003
    122  CE2       60.6750   54.7130  219.8830 C.ar  585  PHE585     -0.0003
    123  CZ        61.4930   53.6320  219.5830 C.ar  585  PHE585     -0.0000
    124  N         64.5510   47.7680  220.1870 N.3   591  THR591     -0.1203
    125  CA        64.8360   48.4360  218.9180 C.3   591  THR591      0.1994
    126  C         65.9770   49.3960  219.0780 C.2   591  THR591      0.2617
    127  O         66.9440   49.3370  218.3330 O.2   591  THR591     -0.2717
    128  CB        63.6120   49.1850  218.3100 C.3   591  THR591      0.1784
    129  OG1       62.5610   48.2570  218.0470 O.3   591  THR591     -0.2211
    130  CG2       63.9820   49.8850  217.0020 C.3   591  THR591      0.0376
    131  N         65.8700   50.2760  220.0570 N.am  592  MET592     -0.1979
    132  CA        66.8100   51.3820  220.1630 C.3   592  MET592      0.1605
    133  C         68.2490   50.9650  220.4060 C.2   592  MET592      0.2287
    134  O         69.1460   51.8080  220.3330 O.2   592  MET592     -0.2864
    135  CB        66.3580   52.3880  221.2120 C.3   592  MET592      0.0413
    136  CG        65.3310   53.3580  220.6780 C.3   592  MET592      0.0598
    137  SD        65.6720   54.0470  219.0350 S.3   592  MET592     -0.1393
    138  CE        67.2830   54.7720  219.2840 C.3   592  MET592      0.0692
    139  N         68.3480   48.3460  212.5490 N.3   597  ILE597     -0.1245
    140  CA        66.9150   48.6730  212.3840 C.3   597  ILE597      0.1561
    141  C         66.5940   50.0470  211.7820 C.2   597  ILE597      0.2260
    142  O         66.9570   51.0930  212.3130 O.2   597  ILE597     -0.2867
    143  CB        66.0970   48.4780  213.6760 C.3   597  ILE597      0.0252
    144  CG1       66.2550   47.0500  214.2010 C.3   597  ILE597      0.0019
    145  CG2       64.6070   48.7720  213.4160 C.3   597  ILE597      0.0019
    146  CD1       65.8880   46.9260  215.6710 C.3   597  ILE597      0.0001
    147  N         65.4790   52.8370  211.6070 N.3   599  LEU599     -0.1231
    148  CA        65.6100   54.2630  211.9800 C.3   599  LEU599      0.1693
    149  C         66.4220   54.5740  213.2510 C.2   599  LEU599      0.2592
    150  O         66.7290   55.7300  213.5610 O.2   599  LEU599     -0.2718
    151  CB        64.2440   54.9070  212.0880 C.3   599  LEU599      0.0284
    152  CG        63.7050   55.7530  210.9570 C.3   599  LEU599      0.0019
    153  CD1       62.4150   56.3630  211.4250 C.3   599  LEU599      0.0001
    154  CD2       64.6680   56.8660  210.5830 C.3   599  LEU599      0.0001
    155  N         66.7540   53.5070  213.9650 N.am  600  THR600     -0.1953
    156  CA        67.3830   53.5100  215.2530 C.3   600  THR600      0.1897
    157  C         68.5040   54.5190  215.4900 C.2   600  THR600      0.2313
    158  O         68.3990   55.2920  216.4430 O.2   600  THR600     -0.2863
    159  CB        67.8130   52.0620  215.5520 C.3   600  THR600      0.1794
    160  OG1       66.6230   51.2740  215.7290 O.3   600  THR600     -0.2208
    161  CG2       68.7830   51.9440  216.7560 C.3   600  THR600      0.0378
    162  N         67.9260   58.0960  215.8550 N.3   603  GLU603     -0.1245
    163  CA        67.1030   58.3920  217.0250 C.3   603  GLU603      0.1567
    164  C         67.7760   58.2030  218.3840 C.2   603  GLU603      0.2260
    165  O         67.1530   58.3800  219.4210 O.2   603  GLU603     -0.2867
    166  CB        65.7690   57.6550  216.9470 C.3   603  GLU603      0.0388
    167  CG        64.8420   58.2380  215.8940 C.3   603  GLU603      0.1160
    168  CD        63.4450   57.6900  215.9670 C.2   603  GLU603      0.3649
    169  OE1       63.1230   56.8610  216.8480 O.co2 603  GLU603     -0.2457
    170  OE2       62.6550   58.0980  215.1080 O.co2 603  GLU603     -0.2457
    171  N         58.8140   50.6890  207.0660 N.3   645  PRO645     -0.2102
    172  CA        60.2280   50.8970  207.3460 C.3   645  PRO645      0.1504
    173  C         60.4550   51.8940  208.4560 C.2   645  PRO645      0.2576
    174  O         61.5530   52.3920  208.5650 O.2   645  PRO645     -0.2718
    175  CB        60.7070   51.5580  206.0720 C.3   645  PRO645      0.0282
    176  CG        59.5470   52.4510  205.6890 C.3   645  PRO645      0.0208
    177  CD        58.3030   51.6940  206.1120 C.3   645  PRO645      0.0893
    178  N         59.4210   52.2440  209.2160 N.am  646  ARG646     -0.1966
    179  CA        59.5270   53.2770  210.2460 C.3   646  ARG646      0.1729
    180  C         59.2300   52.7100  211.6320 C.2   646  ARG646      0.2616
    181  O         60.0570   52.8490  212.5520 O.2   646  ARG646     -0.2715
    182  CB        58.6480   54.4690  209.9230 C.3   646  ARG646      0.0348
    183  CG        59.1750   55.2780  208.7690 C.3   646  ARG646      0.0492
    184  CD        58.4680   56.6090  208.7300 C.3   646  ARG646      0.2205
    185  NE        58.4500   57.2630  207.4220 N.pl3 646  ARG646     -0.0865
    186  CZ        58.2320   58.5670  207.2620 C.cat 646  ARG646      0.5346
    187  NH1       58.0070   59.3470  208.3230 N.pl3 646  ARG646      0.1354
    188  NH2       58.2140   59.1000  206.0480 N.pl3 646  ARG646      0.1354
    189  N         58.0670   52.0620  211.7680 N.am  647  VAL647     -0.1977
    190  CA        57.9000   51.0770  212.8450 C.3   647  VAL647      0.1596
    191  C         57.7230   49.6690  212.2720 C.2   647  VAL647      0.2287
    192  O         56.7310   49.3380  211.6270 O.2   647  VAL647     -0.2864
    193  CB        56.7930   51.4220  213.8860 C.3   647  VAL647      0.0276
    194  CG1       56.7890   50.3810  215.0130 C.3   647  VAL647      0.0022
    195  CG2       57.0090   52.8100  214.4720 C.3   647  VAL647      0.0022
    196  N         57.1830   45.0900  216.0420 N.3   651  GLU651     -0.1245
    197  CA        56.9720   45.8940  217.2480 C.3   651  GLU651      0.1567
    198  C         55.5490   45.7690  217.7780 C.2   651  GLU651      0.2260
    199  O         55.3670   45.2770  218.8720 O.2   651  GLU651     -0.2867
    200  CB        57.4090   47.3520  217.0620 C.3   651  GLU651      0.0388
    201  CG        58.9240   47.4980  216.8210 C.3   651  GLU651      0.1160
    202  CD        59.4840   48.9160  217.1040 C.2   651  GLU651      0.3649
    203  OE1       59.1650   49.5090  218.1850 O.co2 651  GLU651     -0.2457
    204  OE2       60.2700   49.4190  216.2330 O.co2 651  GLU651     -0.2457
    205  N         54.2150   52.3220  206.4810 N.3   679  HIS679     -0.1226
    206  CA        53.9360   53.0340  207.7290 C.3   679  HIS679      0.1752
    207  C         52.7740   54.0160  207.6170 C.2   679  HIS679      0.2596
    208  O         51.8940   54.0730  208.4920 O.2   679  HIS679     -0.2718
    209  CB        55.1990   53.7830  208.1560 C.3   679  HIS679      0.0759
    210  CG        54.9990   54.7660  209.2680 C.ar  679  HIS679      0.0818
    211  ND1       55.2550   54.4580  210.5840 N.ar  679  HIS679     -0.2268
    212  CD2       54.6210   56.0670  209.2500 C.ar  679  HIS679      0.1154
    213  CE1       55.0240   55.5210  211.3320 C.ar  679  HIS679      0.1986
    214  NE2       54.6380   56.5110  210.5460 N.ar  679  HIS679     -0.2212
    215  N         52.8070   54.8180  206.5570 N.am  680  PHE680     -0.1976
    216  CA        51.8370   55.8850  206.3650 C.3   680  PHE680      0.1639
    217  C         50.6270   55.2530  205.8410 C.2   680  PHE680      0.2290
    218  O         49.5690   55.8600  205.7370 O.2   680  PHE680     -0.2864
    219  CB        52.2980   56.8070  205.2630 C.3   680  PHE680      0.0560
    220  CG        53.2530   57.8260  205.7100 C.ar  680  PHE680     -0.0200
    221  CD1       52.7940   59.0530  206.1890 C.ar  680  PHE680     -0.0042
    222  CD2       54.6190   57.5740  205.6520 C.ar  680  PHE680     -0.0042
    223  CE1       53.6910   60.0280  206.6030 C.ar  680  PHE680     -0.0003
    224  CE2       55.5220   58.5330  206.0510 C.ar  680  PHE680     -0.0003
    225  CZ        55.0650   59.7700  206.5290 C.ar  680  PHE680     -0.0000
@<TRIPOS>BOND
     1    16    17    2
     2    16    15    1
     3    41    40    2
     4    40    39    1
     5    37    36    2
     6    15    18    1
     7    15    14    1
     8     1     2    1
     9    18    19    1
    10     3     2    1
    11     3     4    2
    12    36    35    1
    13    36    38   am
    14    39    38    1
    15    39    42    1
    16    35    34    1
    17    21    19   ar
    18    21    23   ar
    19    19    20   ar
    20    42    43    1
    21    34    28   am
    22    23    24   ar
    23    20    22   ar
    24    26    27    1
    25    28    29    2
    26    28    27    1
    27    32    31    2
    28    24    22   ar
    29    24    25    1
    30    27    30    1
    31    31    30    1
    32    31    33   am
    33    44    45    1
    34     7     8    2
    35     7     6    1
    36    47    46    2
    37     6     5    1
    38     6     9    1
    39    50    49    1
    40    50    51    1
    41    45    48    1
    42    45    46    1
    43    48    49    1
    44    52    51    1
    45     9    10    1
    46    10    11    1
    47    68    67   ar
    48    67    69   ar
    49    67    66    1
    50    66    63    1
    51    63    64    1
    52    63    62    1
    53    60    61    1
    54    60    59    1
    55    64    65    2
    56    11    13   ar
    57    11    12   ar
    58    59    58    1
    59    57    54    1
    60    57    58    1
    61    54    55    1
    62    54    53    1
    63    56    55    2
    64   219   220    1
    65   219   216    1
    66   222   220   ar
    67   222   224   ar
    68   176   175    1
    69   176   177    1
    70   220   221   ar
    71   218   217    2
    72   217   216    1
    73   188   186    1
    74   224   225   ar
    75   175   172    1
    76   177   171    1
    77   221   223   ar
    78   216   215    1
    79   205   206    1
    80   225   223   ar
    81   215   207   am
    82   171   172    1
    83   186   185    2
    84   186   187    1
    85   172   173    1
    86   185   184    1
    87   207   206    1
    88   207   208    2
    89   206   209    1
    90   209   210    1
    91   173   174    2
    92   173   178   am
    93   184   183    1
    94   183   182    1
    95   178   179    1
    96   212   210   ar
    97   212   214   ar
    98   210   211   ar
    99   182   179    1
   100   179   180    1
   101   214   213   ar
   102   154   152    1
   103   211   213   ar
   104   152   153    1
   105   152   151    1
   106   147   148    1
   107   192   191    2
   108   180   189   am
   109   180   181    2
   110   189   190    1
   111   141   142    2
   112   141   140    1
   113   148   151    1
   114   148   149    1
   115   191   190    1
   116   140   139    1
   117   140   143    1
   118   190   193    1
   119   101    99    1
   120   149   150    2
   121   149   155   am
   122   145   143    1
   123   143   144    1
   124    99    98    1
   125   193   195    1
   126   193   194    1
   127   155   156    1
   128   107   106    1
   129   106   103    1
   130   144   146    1
   131   100    98    1
   132    81    80    1
   133    98    95    1
   134   170   168   ar
   135   156   157    1
   136   156   159    1
   137   103   102    1
   138   103   104    1
   139    80    78   ar
   140    80    79   ar
   141    78    76   ar
   142   157   158    2
   143   159   160    1
   144   159   161    1
   145    91    89   ar
   146    91    92   ar
   147    93    92    1
   148    95    96    1
   149    95    94    1
   150   162   163    1
   151    89    87   ar
   152    92    90   ar
   153   167   168    1
   154   167   166    1
   155   168   169   ar
   156   196   197    1
   157    79    77   ar
   158    87    86    1
   159    87    88   ar
   160    90    88   ar
   161   204   202   ar
   162    86    83    1
   163    85    84    2
   164    76    75   ar
   165    96    97    2
   166   104   108   am
   167   104   105    2
   168   201   200    1
   169   201   202    1
   170   108   109    1
   171   166   163    1
   172   130   128    1
   173   163   164    1
   174   200   197    1
   175    77    75   ar
   176   202   203   ar
   177    75    74    1
   178   197   198    1
   179    84    83    1
   180    83    82    1
   181   113   114    1
   182   198   199    2
   183   112   109    1
   184   129   128    1
   185   117   114    1
   186   117   118    1
   187   109   110    1
   188   114   115    1
   189    74    71    1
   190   128   125    1
   191   119   118   ar
   192   119   121   ar
   193   127   126    2
   194   164   165    2
   195   118   120   ar
   196   121   123   ar
   197   125   126    1
   198   125   124    1
   199   137   138    1
   200   137   136    1
   201   110   111    2
   202   126   131   am
   203    71    70    1
   204    71    72    1
   205   120   122   ar
   206   123   122   ar
   207   115   116    2
   208   131   132    1
   209   132   133    1
   210   132   135    1
   211    72    73    2
   212   134   133    2
   213   136   135    1
