@<TRIPOS>MOLECULE
tmp/4bpaB01.pdb
 122 118 0 0 0
SMALL
GASTEIGER

@<TRIPOS>ATOM
      1  N         -7.1530   -4.4590    6.2610 N.3    24  HIS24      -0.1226
      2  CA        -6.3570   -4.2920    5.0530 C.3    24  HIS24       0.1752
      3  C         -6.9250   -5.1340    3.9270 C.2    24  HIS24       0.2596
      4  O         -7.7660   -6.0020    4.1470 O.2    24  HIS24      -0.2718
      5  CB        -4.9250   -4.7730    5.2740 C.3    24  HIS24       0.0759
      6  CG        -4.2310   -4.1300    6.4240 C.ar   24  HIS24       0.0818
      7  ND1       -3.5860   -2.9190    6.3150 N.ar   24  HIS24      -0.2268
      8  CD2       -4.0480   -4.5410    7.7000 C.ar   24  HIS24       0.1154
      9  CE1       -3.0470   -2.6030    7.4790 C.ar   24  HIS24       0.1986
     10  NE2       -3.3140   -3.5720    8.3350 N.ar   24  HIS24      -0.2212
     11  N         -6.4570   -4.8640    2.7150 N.am   25  TYR25      -0.1962
     12  CA        -6.4800   -5.8640    1.6690 C.3    25  TYR25       0.1771
     13  C         -5.0400   -6.1830    1.3000 C.2    25  TYR25       0.2620
     14  O         -4.1290   -5.3820    1.5210 O.2    25  TYR25      -0.2715
     15  CB        -7.3330   -5.4590    0.4520 C.3    25  TYR25       0.0574
     16  CG        -6.9860   -4.1600   -0.2550 C.ar   25  TYR25      -0.0198
     17  CD1       -5.7100   -3.9280   -0.7710 C.ar   25  TYR25      -0.0009
     18  CD2       -7.9620   -3.1860   -0.4700 C.ar   25  TYR25      -0.0009
     19  CE1       -5.3990   -2.7540   -1.4280 C.ar   25  TYR25       0.0417
     20  CE2       -7.6640   -2.0080   -1.1320 C.ar   25  TYR25       0.0417
     21  CZ        -6.3790   -1.7960   -1.6100 C.ar   25  TYR25       0.1957
     22  OH        -6.0580   -0.6230   -2.2620 O.3    25  TYR25      -0.2866
     23  N         -4.8390   -7.3590    0.7340 N.am   26  THR26      -0.1937
     24  CA        -3.5460   -7.7340    0.2250 C.3    26  THR26       0.2028
     25  C         -3.7640   -7.1730   -1.1480 C.2    26  THR26       0.2643
     26  O         -4.9160   -7.0240   -1.5500 O.2    26  THR26      -0.2714
     27  CB        -3.3660   -9.2520    0.0930 C.3    26  THR26       0.1808
     28  OG1       -4.2270   -9.7460   -0.9460 O.3    26  THR26      -0.2208
     29  CG2       -3.6900   -9.9280    1.4030 C.3    26  THR26       0.0379
     30  N         -2.7220   -6.8620   -1.8920 N.am   27  SER27      -0.1935
     31  CA        -2.9530   -6.5310   -3.2960 C.3    27  SER27       0.2055
     32  C         -2.6400   -7.7400   -4.1900 C.2    27  SER27       0.2643
     33  O         -2.5450   -7.6130   -5.4090 O.2    27  SER27      -0.2714
     34  CB        -2.1610   -5.2800   -3.6820 C.3    27  SER27       0.2130
     35  OG        -2.5370   -4.2120   -2.8250 O.3    27  SER27      -0.2179
     36  N         -2.5410   -8.9110   -3.5630 N.am   28  THR28      -0.1950
     37  CA        -2.0480  -10.1200   -4.1790 C.3    28  THR28       0.1897
     38  C         -3.0330  -11.2620   -3.9400 C.2    28  THR28       0.2313
     39  O         -3.8900  -11.1600   -3.0680 O.2    28  THR28      -0.2863
     40  CB        -0.6750  -10.4840   -3.6010 C.3    28  THR28       0.1794
     41  OG1       -0.7060  -10.4240   -2.1690 O.3    28  THR28      -0.2208
     42  CG2        0.3800   -9.5220   -4.1110 C.3    28  THR28       0.0378
     43  N          4.0760  -13.6600    1.6070 N.3    36  ILE36      -0.1231
     44  CA         4.4190  -12.3020    2.0240 C.3    36  ILE36       0.1692
     45  C          4.1670  -12.1070    3.5130 C.2    36  ILE36       0.2591
     46  O          4.9930  -11.5190    4.2170 O.2    36  ILE36      -0.2718
     47  CB         3.6080  -11.2510    1.2390 C.3    36  ILE36       0.0266
     48  CG1        4.0510  -11.2240   -0.2250 C.3    36  ILE36       0.0019
     49  CG2        3.7810   -9.8660    1.8530 C.3    36  ILE36       0.0020
     50  CD1        3.0390  -10.5820   -1.1480 C.3    36  ILE36       0.0001
     51  N          3.0190  -12.5910    3.9820 N.am   37  LEU37      -0.1980
     52  CA         2.6030  -12.3750    5.3620 C.3    37  LEU37       0.1596
     53  C          3.3090  -13.2890    6.3620 C.2    37  LEU37       0.2287
     54  O          3.2380  -13.0500    7.5670 O.2    37  LEU37      -0.2864
     55  CB         1.0760  -12.4770    5.4810 C.3    37  LEU37       0.0297
     56  CG         0.3210  -11.3790    4.7120 C.3    37  LEU37       0.0022
     57  CD1       -1.1760  -11.6550    4.6970 C.3    37  LEU37       0.0001
     58  CD2        0.5980   -9.9930    5.2820 C.3    37  LEU37       0.0001
     59  N          6.4310   -7.9830    5.9870 N.3    42  VAL42      -0.1245
     60  CA         5.1340   -7.5360    6.4980 C.3    42  VAL42       0.1561
     61  C          4.3600   -8.7450    7.0400 C.2    42  VAL42       0.2260
     62  O          4.5840   -9.8780    6.6220 O.2    42  VAL42      -0.2867
     63  CB         4.3430   -6.7870    5.3860 C.3    42  VAL42       0.0252
     64  CG1        2.8730   -6.5700    5.7450 C.3    42  VAL42       0.0019
     65  CG2        4.9940   -5.4400    5.1050 C.3    42  VAL42       0.0019
     66  N          1.9160   -4.6720   10.2330 N.3    68  HIS68      -0.1241
     67  CA         0.9210   -4.3760    9.1960 C.3    68  HIS68       0.1621
     68  C          0.6680   -2.8800    9.0080 C.2    68  HIS68       0.2264
     69  O          0.3790   -2.4340    7.8940 O.2    68  HIS68      -0.2867
     70  CB        -0.4030   -5.0690    9.5300 C.3    68  HIS68       0.0745
     71  CG        -0.9080   -4.7730   10.9060 C.ar   68  HIS68       0.0817
     72  ND1       -1.8350   -3.7900   11.1630 N.ar   68  HIS68      -0.2268
     73  CD2       -0.6030   -5.3210   12.1040 C.ar   68  HIS68       0.1154
     74  CE1       -2.0880   -3.7520   12.4570 C.ar   68  HIS68       0.1986
     75  NE2       -1.3500   -4.6680   13.0520 N.ar   68  HIS68      -0.2212
     76  N         -5.6470   -8.9160    7.1430 N.3    88  GLU88      -0.1245
     77  CA        -5.5060   -8.7780    5.6990 C.3    88  GLU88       0.1567
     78  C         -6.5810   -9.6140    5.0300 C.2    88  GLU88       0.2260
     79  O         -7.0120  -10.6290    5.5680 O.2    88  GLU88      -0.2867
     80  CB        -4.1160   -9.2370    5.2410 C.3    88  GLU88       0.0388
     81  CG        -2.9470   -8.4380    5.8260 C.3    88  GLU88       0.1160
     82  CD        -2.4080   -7.3520    4.9010 C.2    88  GLU88       0.3649
     83  OE1       -2.8960   -7.2210    3.7550 O.co2  88  GLU88      -0.2457
     84  OE2       -1.4710   -6.6310    5.3200 O.co2  88  GLU88      -0.2457
     85  N         -6.8820    0.8410    7.1210 N.3   135  HIS135     -0.1241
     86  CA        -5.5210    1.3350    7.0170 C.3   135  HIS135      0.1621
     87  C         -5.4980    2.7490    6.4540 C.2   135  HIS135      0.2264
     88  O         -4.6530    3.5680    6.8300 O.2   135  HIS135     -0.2867
     89  CB        -4.7040    0.4180    6.1250 C.3   135  HIS135      0.0745
     90  CG        -3.2310    0.5250    6.3470 C.ar  135  HIS135      0.0817
     91  ND1       -2.3130   -0.1430    5.5690 N.ar  135  HIS135     -0.2268
     92  CD2       -2.5140    1.2080    7.2690 C.ar  135  HIS135      0.1154
     93  CE1       -1.0960    0.1080    6.0140 C.ar  135  HIS135      0.1986
     94  NE2       -1.1890    0.9350    7.0360 N.ar  135  HIS135     -0.2212
     95  N         -0.8830    7.9930    2.7400 N.3   142  ARG142     -0.1231
     96  CA         0.0380    6.9190    2.4300 C.3   142  ARG142      0.1694
     97  C         -0.6650    5.6130    2.0440 C.2   142  ARG142      0.2591
     98  O         -0.1310    4.8260    1.2600 O.2   142  ARG142     -0.2718
     99  CB         0.9440    6.7310    3.6490 C.3   142  ARG142      0.0321
    100  CG         2.1740    5.8790    3.4000 C.3   142  ARG142      0.0489
    101  CD         3.0990    5.7610    4.6130 C.3   142  ARG142      0.2205
    102  NE         2.4450    5.1700    5.7890 N.pl3 142  ARG142     -0.0865
    103  CZ         2.5670    3.9010    6.1940 C.cat 142  ARG142      0.5346
    104  NH1        3.3280    3.0290    5.5300 N.pl3 142  ARG142      0.1354
    105  NH2        1.9150    3.4970    7.2860 N.pl3 142  ARG142      0.1354
    106  N         -1.8560    5.3830    2.5870 N.am  143  LYS143     -0.1980
    107  CA        -2.5980    4.1520    2.3440 C.3   143  LYS143      0.1596
    108  C         -4.0130    4.4470    1.9150 C.2   143  LYS143      0.2287
    109  O         -4.5160    5.5500    2.1280 O.2   143  LYS143     -0.2864
    110  CB        -2.6370    3.3200    3.6140 C.3   143  LYS143      0.0298
    111  CG        -1.2760    2.8860    4.1020 C.3   143  LYS143      0.0038
    112  CD        -0.7380    1.7440    3.2580 C.3   143  LYS143      0.0206
    113  CE         0.5790    1.2190    3.8250 C.3   143  LYS143      0.1093
    114  NZ         0.8740   -0.2200    3.5460 N.3   143  LYS143     -0.1314
    115  N         -6.3890    1.3320    1.6260 N.3   145  ASP145     -0.1239
    116  CA        -7.0900    0.0650    1.8050 C.3   145  ASP145      0.1674
    117  C         -7.8720    0.0990    3.1090 C.2   145  ASP145      0.2266
    118  O         -7.4490    0.7470    4.0660 O.2   145  ASP145     -0.2867
    119  CB        -6.1040   -1.1100    1.8040 C.3   145  ASP145      0.1410
    120  CG        -4.9400   -0.9010    2.7520 C.2   145  ASP145      0.3668
    121  OD1       -4.2480    0.1300    2.6200 O.co2 145  ASP145     -0.2456
    122  OD2       -4.7020   -1.7640    3.6180 O.co2 145  ASP145     -0.2456
@<TRIPOS>BOND
     1    33    32    2
     2    32    36   am
     3    32    31    1
     4    37    38    1
     5    37    40    1
     6    37    36    1
     7    42    40    1
     8    38    39    2
     9    34    31    1
    10    34    35    1
    11    40    41    1
    12    31    30    1
    13    22    21    1
    14    30    25   am
    15    21    19   ar
    16    21    20   ar
    17    26    25    2
    18    19    17   ar
    19    50    48    1
    20    25    24    1
    21    20    18   ar
    22    28    27    1
    23    17    16   ar
    24    18    16   ar
    25    16    15    1
    26    48    47    1
    27    27    24    1
    28    27    29    1
    29    24    23    1
    30    15    12    1
    31    23    13   am
    32    47    49    1
    33    47    44    1
    34    98    97    2
    35    13    14    2
    36    13    12    1
    37    43    44    1
    38   115   116    1
    39    12    11    1
    40   119   116    1
    41   119   120    1
    42   116   117    1
    43   108   109    2
    44   108   107    1
    45    44    45    1
    46    97    96    1
    47    97   106   am
    48   107   106    1
    49   107   110    1
    50    96    95    1
    51    96    99    1
    52   121   120   ar
    53    11     3   am
    54   120   122   ar
    55   117   118    2
    56   112   113    1
    57   112   111    1
    58   100    99    1
    59   100   101    1
    60    45    51   am
    61    45    46    2
    62   114   113    1
    63   110   111    1
    64    83    82   ar
    65     3     4    2
    66     3     2    1
    67    51    52    1
    68   101   102    1
    69    57    56    1
    70    56    58    1
    71    56    55    1
    72    82    84   ar
    73    82    81    1
    74    78    79    2
    75    78    77    1
    76     2     5    1
    77     2     1    1
    78    65    63    1
    79    80    77    1
    80    80    81    1
    81     5     6    1
    82    52    55    1
    83    52    53    1
    84    63    64    1
    85    63    60    1
    86   104   103    1
    87    91    93   ar
    88    91    90   ar
    89    77    76    1
    90   102   103    2
    91    59    60    1
    92    93    94   ar
    93    89    90    1
    94    89    86    1
    95   103   105    1
    96     7     6   ar
    97     7     9   ar
    98    90    92   ar
    99    53    54    2
   100     6     8   ar
   101    87    88    2
   102    87    86    1
   103    60    61    1
   104    62    61    2
   105    86    85    1
   106    94    92   ar
   107     9    10   ar
   108     8    10   ar
   109    69    68    2
   110    68    67    1
   111    67    70    1
   112    67    66    1
   113    70    71    1
   114    71    72   ar
   115    71    73   ar
   116    72    74   ar
   117    73    75   ar
   118    74    75   ar
