@<TRIPOS>MOLECULE
tmp/4bpaB00.pdb
 164 159 0 0 0
SMALL
GASTEIGER

@<TRIPOS>ATOM
      1  N         -6.4570   -4.8640    2.7150 N.3    25  TYR25      -0.1241
      2  CA        -6.4800   -5.8640    1.6690 C.3    25  TYR25       0.1605
      3  C         -5.0400   -6.1830    1.3000 C.2    25  TYR25       0.2264
      4  O         -4.1290   -5.3820    1.5210 O.2    25  TYR25      -0.2867
      5  CB        -7.3330   -5.4590    0.4520 C.3    25  TYR25       0.0534
      6  CG        -6.9860   -4.1600   -0.2550 C.ar   25  TYR25      -0.0201
      7  CD1       -5.7100   -3.9280   -0.7710 C.ar   25  TYR25      -0.0009
      8  CD2       -7.9620   -3.1860   -0.4700 C.ar   25  TYR25      -0.0009
      9  CE1       -5.3990   -2.7540   -1.4280 C.ar   25  TYR25       0.0417
     10  CE2       -7.6640   -2.0080   -1.1320 C.ar   25  TYR25       0.0417
     11  CZ        -6.3790   -1.7960   -1.6100 C.ar   25  TYR25       0.1957
     12  OH        -6.0580   -0.6230   -2.2620 O.3    25  TYR25      -0.2866
     13  N         -2.7220   -6.8620   -1.8920 N.3    27  SER27      -0.1217
     14  CA        -2.9530   -6.5310   -3.2960 C.3    27  SER27       0.1889
     15  C         -2.6400   -7.7400   -4.1900 C.2    27  SER27       0.2288
     16  O         -2.5450   -7.6130   -5.4090 O.2    27  SER27      -0.2866
     17  CB        -2.1610   -5.2800   -3.6820 C.3    27  SER27       0.2089
     18  OG        -2.5370   -4.2120   -2.8250 O.3    27  SER27      -0.2183
     19  N         -6.7300   -2.0780   -6.7310 N.3    94  TYR94      -0.1241
     20  CA        -7.3320   -1.1280   -7.6600 C.3    94  TYR94       0.1605
     21  C         -6.6390   -1.0950   -9.0080 C.2    94  TYR94       0.2264
     22  O         -5.5840   -1.7120   -9.1950 O.2    94  TYR94      -0.2867
     23  CB        -7.3130    0.2730   -7.0620 C.3    94  TYR94       0.0534
     24  CG        -5.9530    0.8820   -6.8460 C.ar   94  TYR94      -0.0201
     25  CD1       -5.2360    1.4220   -7.9060 C.ar   94  TYR94      -0.0009
     26  CD2       -5.4070    0.9770   -5.5710 C.ar   94  TYR94      -0.0009
     27  CE1       -4.0060    2.0230   -7.7060 C.ar   94  TYR94       0.0417
     28  CE2       -4.1730    1.5660   -5.3620 C.ar   94  TYR94       0.0417
     29  CZ        -3.4780    2.0880   -6.4300 C.ar   94  TYR94       0.1957
     30  OH        -2.2550    2.6780   -6.2210 O.3    94  TYR94      -0.2866
     31  N         -6.1780    1.8590  -12.5490 N.3    96  ASP96      -0.1239
     32  CA        -6.3260    3.2560  -12.9700 C.3    96  ASP96       0.1674
     33  C         -6.8960    3.4250  -14.3780 C.2    96  ASP96       0.2266
     34  O         -6.2670    3.0240  -15.3530 O.2    96  ASP96      -0.2867
     35  CB        -4.9740    3.9690  -12.8640 C.3    96  ASP96       0.1410
     36  CG        -4.6760    4.4300  -11.4530 C.2    96  ASP96       0.3668
     37  OD1       -5.5520    5.1020  -10.8570 O.co2  96  ASP96      -0.2456
     38  OD2       -3.5720    4.1200  -10.9430 O.co2  96  ASP96      -0.2456
     39  N        -10.3280    5.9440  -10.6560 N.3   101  ARG101     -0.1245
     40  CA        -9.8050    4.6790  -10.1760 C.3   101  ARG101      0.1563
     41  C        -10.8960    3.6620   -9.8520 C.2   101  ARG101      0.2260
     42  O        -11.8890    3.9810   -9.2130 O.2   101  ARG101     -0.2867
     43  CB        -8.9680    4.9810   -8.9460 C.3   101  ARG101      0.0307
     44  CG        -8.1080    3.8280   -8.4890 C.3   101  ARG101      0.0489
     45  CD        -6.7220    4.3100   -8.1090 C.3   101  ARG101      0.2205
     46  NE        -6.6750    5.6370   -7.4930 N.pl3 101  ARG101     -0.0865
     47  CZ        -5.5530    6.3270   -7.2830 C.cat 101  ARG101      0.5346
     48  NH1       -4.3640    5.8200   -7.6160 N.pl3 101  ARG101      0.1354
     49  NH2       -5.6130    7.5260   -6.7130 N.pl3 101  ARG101      0.1354
     50  N        -11.8570   -0.5060   -8.5720 N.3   103  TRP103     -0.1241
     51  CA       -11.4200   -1.3830   -7.4910 C.3   103  TRP103      0.1605
     52  C        -12.1240   -2.7130   -7.5920 C.2   103  TRP103      0.2264
     53  O        -13.2570   -2.7820   -8.0640 O.2   103  TRP103     -0.2867
     54  CB       -11.7640   -0.7240   -6.1660 C.3   103  TRP103      0.0550
     55  CG       -11.2380    0.6650   -6.0330 C.ar  103  TRP103      0.0003
     56  CD1      -11.6780    1.7740   -6.7070 C.ar  103  TRP103      0.0946
     57  CD2      -10.1850    1.1130   -5.1770 C.ar  103  TRP103      0.0152
     58  NE1      -10.9660    2.8770   -6.3290 N.ar  103  TRP103     -0.2442
     59  CE2      -10.0460    2.5050   -5.3890 C.ar  103  TRP103      0.0810
     60  CE3       -9.3490    0.4810   -4.2490 C.ar  103  TRP103      0.0012
     61  CZ2       -9.1170    3.2700   -4.7190 C.ar  103  TRP103      0.0191
     62  CZ3       -8.4160    1.2510   -3.5800 C.ar  103  TRP103      0.0001
     63  CH2       -8.3120    2.6370   -3.8240 C.ar  103  TRP103      0.0015
     64  N         -3.6280    8.4110    6.1870 N.3   140  PRO140     -0.2102
     65  CA        -4.4340    8.9090    5.0690 C.3   140  PRO140      0.1504
     66  C         -3.7100    9.2880    3.7880 C.2   140  PRO140      0.2576
     67  O         -4.2640    9.0970    2.7080 O.2   140  PRO140     -0.2718
     68  CB        -5.1400   10.1230    5.6660 C.3   140  PRO140      0.0282
     69  CG        -5.1230    9.9090    7.1380 C.3   140  PRO140      0.0208
     70  CD        -3.8160    9.2320    7.4000 C.3   140  PRO140      0.0893
     71  N         -2.5050    9.8300    3.8960 N.am  141  GLY141     -0.1943
     72  CA        -1.7390   10.2420    2.7120 C.3   141  GLY141      0.2014
     73  C         -0.8500    9.1630    2.1200 C.2   141  GLY141      0.2639
     74  O         -0.1730    9.3810    1.1080 O.2   141  GLY141     -0.2714
     75  N         -0.8830    7.9930    2.7400 N.am  142  ARG142     -0.1963
     76  CA         0.0380    6.9190    2.4300 C.3   142  ARG142      0.1729
     77  C         -0.6650    5.6130    2.0440 C.2   142  ARG142      0.2616
     78  O         -0.1310    4.8260    1.2600 O.2   142  ARG142     -0.2715
     79  CB         0.9440    6.7310    3.6490 C.3   142  ARG142      0.0348
     80  CG         2.1740    5.8790    3.4000 C.3   142  ARG142      0.0492
     81  CD         3.0990    5.7610    4.6130 C.3   142  ARG142      0.2205
     82  NE         2.4450    5.1700    5.7890 N.pl3 142  ARG142     -0.0865
     83  CZ         2.5670    3.9010    6.1940 C.cat 142  ARG142      0.5346
     84  NH1        3.3280    3.0290    5.5300 N.pl3 142  ARG142      0.1354
     85  NH2        1.9150    3.4970    7.2860 N.pl3 142  ARG142      0.1354
     86  N         -1.8560    5.3830    2.5870 N.am  143  LYS143     -0.1963
     87  CA        -2.5980    4.1520    2.3440 C.3   143  LYS143      0.1728
     88  C         -4.0130    4.4470    1.9150 C.2   143  LYS143      0.2616
     89  O         -4.5160    5.5500    2.1280 O.2   143  LYS143     -0.2715
     90  CB        -2.6370    3.3200    3.6140 C.3   143  LYS143      0.0311
     91  CG        -1.2760    2.8860    4.1020 C.3   143  LYS143      0.0038
     92  CD        -0.7380    1.7440    3.2580 C.3   143  LYS143      0.0206
     93  CE         0.5790    1.2190    3.8250 C.3   143  LYS143      0.1093
     94  NZ         0.8740   -0.2200    3.5460 N.3   143  LYS143     -0.1314
     95  N         -4.6560    3.4430    1.3290 N.am  144  VAL144     -0.1963
     96  CA        -6.0020    3.6020    0.7820 C.3   144  VAL144      0.1727
     97  C         -6.8800    2.3350    0.8980 C.2   144  VAL144      0.2616
     98  O         -7.9890    2.2880    0.3610 O.2   144  VAL144     -0.2715
     99  CB        -5.9000    4.0870   -0.6840 C.3   144  VAL144      0.0290
    100  CG1       -5.8160    2.9240   -1.6490 C.3   144  VAL144      0.0023
    101  CG2       -7.0670    4.9920   -1.0340 C.3   144  VAL144      0.0023
    102  N         -6.3890    1.3320    1.6260 N.am  145  ASP145     -0.1971
    103  CA        -7.0900    0.0650    1.8050 C.3   145  ASP145      0.1709
    104  C         -7.8720    0.0990    3.1090 C.2   145  ASP145      0.2293
    105  O         -7.4490    0.7470    4.0660 O.2   145  ASP145     -0.2864
    106  CB        -6.1040   -1.1100    1.8040 C.3   145  ASP145      0.1436
    107  CG        -4.9400   -0.9010    2.7520 C.2   145  ASP145      0.3671
    108  OD1       -4.2480    0.1300    2.6200 O.co2 145  ASP145     -0.2456
    109  OD2       -4.7020   -1.7640    3.6180 O.co2 145  ASP145     -0.2456
    110  N         -6.2410   17.3090    2.5280 N.3   208  ARG208     -0.1231
    111  CA        -7.0810   16.7020    1.4910 C.3   208  ARG208      0.1694
    112  C         -7.0630   15.1680    1.5270 C.2   208  ARG208      0.2592
    113  O         -8.0730   14.5090    1.2620 O.2   208  ARG208     -0.2718
    114  CB        -6.6120   17.1760    0.1200 C.3   208  ARG208      0.0321
    115  CG        -7.7190   17.2090   -0.9060 C.3   208  ARG208      0.0489
    116  CD        -7.2430   17.9170   -2.1510 C.3   208  ARG208      0.2205
    117  NE        -8.2200   17.7500   -3.2250 N.pl3 208  ARG208     -0.0865
    118  CZ        -9.0070   18.7070   -3.7110 C.cat 208  ARG208      0.5346
    119  NH1       -8.9370   19.9550   -3.2470 N.pl3 208  ARG208      0.1354
    120  NH2       -9.8620   18.4130   -4.6850 N.pl3 208  ARG208      0.1354
    121  N         -5.8970   14.6130    1.8310 N.am  209  ASP209     -0.1974
    122  CA        -5.7520   13.1750    1.9870 C.3   209  ASP209      0.1709
    123  C         -6.6920   12.6640    3.0680 C.2   209  ASP209      0.2293
    124  O         -7.3520   11.6320    2.8950 O.2   209  ASP209     -0.2864
    125  CB        -4.3060   12.8210    2.3540 C.3   209  ASP209      0.1436
    126  CG        -3.3540   12.9060    1.1580 C.2   209  ASP209      0.3671
    127  OD1       -3.7940   12.6670    0.0130 O.co2 209  ASP209     -0.2456
    128  OD2       -2.1580   13.2070    1.3730 O.co2 209  ASP209     -0.2456
    129  N        -10.3180   13.0010    2.1630 N.3   212  GLY212     -0.1210
    130  CA       -10.4980   11.9380    1.1790 C.3   212  GLY212      0.1956
    131  C        -10.7030   10.5700    1.8140 C.2   212  GLY212      0.2611
    132  O        -11.5590    9.7910    1.3840 O.2   212  GLY212     -0.2717
    133  N         -9.9210   10.2770    2.8470 N.am  213  ALA213     -0.1979
    134  CA       -10.0230    8.9970    3.5440 C.3   213  ALA213      0.1597
    135  C        -11.3800    8.8330    4.2230 C.2   213  ALA213      0.2287
    136  O        -11.9790    7.7510    4.2010 O.2   213  ALA213     -0.2864
    137  CB        -8.9040    8.8660    4.5630 C.3   213  ALA213      0.0319
    138  N        -14.0330    8.1250    1.6130 N.3   216  MET216     -0.1245
    139  CA       -13.9530    6.7260    1.2010 C.3   216  MET216      0.1570
    140  C        -14.7600    5.7840    2.0930 C.2   216  MET216      0.2261
    141  O        -15.3880    4.8480    1.6130 O.2   216  MET216     -0.2867
    142  CB       -12.5060    6.2640    1.2020 C.3   216  MET216      0.0387
    143  CG       -12.1150    5.6090   -0.1040 C.3   216  MET216      0.0595
    144  SD       -10.4150    5.0840   -0.1230 S.3   216  MET216     -0.1393
    145  CE       -10.3050    4.1400    1.3920 C.3   216  MET216      0.0692
    146  N        -14.5460   10.6960   -3.3480 N.3   223  PHE223     -0.1227
    147  CA       -13.5760   10.9410   -2.2850 C.3   223  PHE223      0.1736
    148  C        -12.3130   11.6510   -2.8020 C.2   223  PHE223      0.2595
    149  O        -11.1760   11.2390   -2.5390 O.2   223  PHE223     -0.2718
    150  CB       -13.2430    9.6360   -1.5520 C.3   223  PHE223      0.0547
    151  CG       -12.9390    8.4760   -2.4630 C.ar  223  PHE223     -0.0202
    152  CD1      -13.9640    7.6940   -2.9810 C.ar  223  PHE223     -0.0042
    153  CD2      -11.6320    8.1490   -2.7820 C.ar  223  PHE223     -0.0042
    154  CE1      -13.6960    6.6170   -3.8120 C.ar  223  PHE223     -0.0003
    155  CE2      -11.3550    7.0710   -3.6080 C.ar  223  PHE223     -0.0003
    156  CZ       -12.3870    6.3070   -4.1260 C.ar  223  PHE223     -0.0000
    157  N        -12.5370   12.7470   -3.5240 N.am  224  ASP224     -0.1974
    158  CA       -11.4600   13.6080   -4.0090 C.3   224  ASP224      0.1709
    159  C        -10.8180   14.4420   -2.9000 C.2   224  ASP224      0.2293
    160  O         -9.7890   15.0850   -3.1140 O.2   224  ASP224     -0.2864
    161  CB       -11.9830   14.5350   -5.1030 C.3   224  ASP224      0.1436
    162  CG       -13.2510   15.2700   -4.7030 C.2   224  ASP224      0.3671
    163  OD1      -13.6520   15.2010   -3.5200 O.co2 224  ASP224     -0.2456
    164  OD2      -13.8480   15.9190   -5.5850 O.co2 224  ASP224     -0.2456
@<TRIPOS>BOND
     1    34    33    2
     2    33    32    1
     3    32    35    1
     4    32    31    1
     5    35    36    1
     6    36    38   ar
     7    36    37   ar
     8    39    40    1
     9    40    41    1
    10    40    43    1
    11    41    42    2
    12    22    21    2
    13    21    20    1
    14    43    44    1
    15    50    51    1
    16    44    45    1
    17    45    46    1
    18    53    52    2
    19    25    27   ar
    20    25    24   ar
    21    27    29   ar
    22    20    23    1
    23    20    19    1
    24    48    47    1
    25    52    51    1
    26    46    47    2
    27    51    54    1
    28    47    49    1
    29    23    24    1
    30    24    26   ar
    31    56    58   ar
    32    56    55   ar
    33    29    30    1
    34    29    28   ar
    35    58    59   ar
    36    54    55    1
    37    55    57   ar
    38   164   162   ar
    39    26    28   ar
    40    16    15    2
    41    59    57   ar
    42    59    61   ar
    43    57    60   ar
    44   161   162    1
    45   161   158    1
    46    61    63   ar
    47   162   163   ar
    48   120   118    1
    49    60    62   ar
    50    15    14    1
    51   156   154   ar
    52   156   155   ar
    53   158   157    1
    54   158   159    1
    55    63    62   ar
    56   154   152   ar
    57   118   119    1
    58   118   117    2
    59    17    14    1
    60    17    18    1
    61   155   153   ar
    62   157   148   am
    63   146   147    1
    64    14    13    1
    65   117   116    1
    66   160   159    2
    67   152   151   ar
    68   148   149    2
    69   148   147    1
    70   153   151   ar
    71   151   150    1
    72   147   150    1
    73    12    11    1
    74   116   115    1
    75   100    99    1
    76    11     9   ar
    77    11    10   ar
    78     9     7   ar
    79    10     8   ar
    80   101    99    1
    81   115   114    1
    82     7     6   ar
    83    99    96    1
    84     8     6   ar
    85     6     5    1
    86   144   143    1
    87   144   145    1
    88   143   142    1
    89   127   126   ar
    90   114   111    1
    91    98    97    2
    92     5     2    1
    93    96    97    1
    94    96    95    1
    95    97   102   am
    96    74    73    2
    97   126   128   ar
    98   126   125    1
    99   130   131    1
   100   130   129    1
   101   139   142    1
   102   139   138    1
   103   139   140    1
   104    78    77    2
   105   113   112    2
   106     3     4    2
   107     3     2    1
   108    95    88   am
   109   132   131    2
   110   111   112    1
   111   111   110    1
   112   112   121   am
   113   141   140    2
   114   102   103    1
   115     2     1    1
   116   106   103    1
   117   106   107    1
   118   103   104    1
   119   131   133   am
   120   121   122    1
   121    88    89    2
   122    88    87    1
   123   122   125    1
   124   122   123    1
   125    77    76    1
   126    77    86   am
   127    73    72    1
   128    73    75   am
   129    87    86    1
   130    87    90    1
   131    76    75    1
   132    76    79    1
   133   108   107   ar
   134    67    66    2
   135    72    71    1
   136   107   109   ar
   137   133   134    1
   138   124   123    2
   139   104   105    2
   140    92    93    1
   141    92    91    1
   142    80    79    1
   143    80    81    1
   144   134   135    1
   145   134   137    1
   146    94    93    1
   147    90    91    1
   148    66    71   am
   149    66    65    1
   150   136   135    2
   151    81    82    1
   152    65    68    1
   153    65    64    1
   154    84    83    1
   155    68    69    1
   156    82    83    2
   157    64    70    1
   158    83    85    1
   159    69    70    1
