@<TRIPOS>MOLECULE
tmp/4bpdA00.pdb
 116 111 0 0 0
SMALL
GASTEIGER

@<TRIPOS>ATOM
      1  N         -0.6560   11.5940  -20.7970 N.3    15  TRP15      -0.1241
      2  CA         0.7980   11.6910  -20.7720 C.3    15  TRP15       0.1605
      3  C          1.3160   12.5010  -21.9550 C.2    15  TRP15       0.2264
      4  O          2.3320   13.1880  -21.8510 O.2    15  TRP15      -0.2867
      5  CB         1.4340   10.3010  -20.7700 C.3    15  TRP15       0.0550
      6  CG         2.9280   10.3370  -20.8110 C.ar   15  TRP15       0.0003
      7  CD1        3.7260   10.0770  -21.8860 C.ar   15  TRP15       0.0946
      8  CD2        3.8060   10.6670  -19.7290 C.ar   15  TRP15       0.0152
      9  NE1        5.0480   10.2180  -21.5390 N.ar   15  TRP15      -0.2442
     10  CE2        5.1240   10.5790  -20.2200 C.ar   15  TRP15       0.0810
     11  CE3        3.6070   11.0240  -18.3920 C.ar   15  TRP15       0.0012
     12  CZ2        6.2360   10.8360  -19.4210 C.ar   15  TRP15       0.0191
     13  CZ3        4.7120   11.2780  -17.6010 C.ar   15  TRP15       0.0001
     14  CH2        6.0100   11.1830  -18.1180 C.ar   15  TRP15       0.0015
     15  N          0.5780   16.1310  -20.9100 N.3    18  LEU18      -0.1231
     16  CA         1.4940   16.5580  -19.8590 C.3    18  LEU18       0.1693
     17  C          2.8950   16.7710  -20.4190 C.2    18  LEU18       0.2591
     18  O          3.6310   17.6450  -19.9610 O.2    18  LEU18      -0.2718
     19  CB         1.5260   15.5320  -18.7260 C.3    18  LEU18       0.0284
     20  CG         0.2850   15.4620  -17.8350 C.3    18  LEU18       0.0019
     21  CD1        0.4380   14.3710  -16.7860 C.3    18  LEU18       0.0001
     22  CD2        0.0250   16.8080  -17.1790 C.3    18  LEU18       0.0001
     23  N          3.2560   15.9660  -21.4130 N.am   19  ARG19      -0.1980
     24  CA         4.5420   16.1050  -22.0850 C.3    19  ARG19       0.1597
     25  C          4.5890   17.3790  -22.9190 C.2    19  ARG19       0.2287
     26  O          5.5510   18.1430  -22.8470 O.2    19  ARG19      -0.2864
     27  CB         4.8150   14.8930  -22.9770 C.3    19  ARG19       0.0334
     28  CG         5.8850   15.1340  -24.0290 C.3    19  ARG19       0.0492
     29  CD         6.0490   13.9300  -24.9380 C.3    19  ARG19       0.2205
     30  NE         6.5870   12.7800  -24.2200 N.pl3  19  ARG19      -0.0865
     31  CZ         7.8840   12.5380  -24.0680 C.cat  19  ARG19       0.5346
     32  NH1        8.7810   13.3680  -24.5850 N.pl3  19  ARG19       0.1354
     33  NH2        8.2860   11.4670  -23.4000 N.pl3  19  ARG19       0.1354
     34  N          4.7220   20.5070  -20.9280 N.3    22  TRP22      -0.1227
     35  CA         6.0250   20.6350  -20.2880 C.3    22  TRP22       0.1737
     36  C          7.0780   21.1150  -21.2830 C.2    22  TRP22       0.2595
     37  O          8.0130   21.8240  -20.9190 O.2    22  TRP22      -0.2718
     38  CB         6.4480   19.2980  -19.6730 C.3    22  TRP22       0.0564
     39  CG         7.7290   19.3640  -18.8980 C.ar   22  TRP22       0.0003
     40  CD1        8.9920   19.1930  -19.3850 C.ar   22  TRP22       0.0946
     41  CD2        7.8710   19.6110  -17.4930 C.ar   22  TRP22       0.0152
     42  NE1        9.9120   19.3220  -18.3730 N.ar   22  TRP22      -0.2442
     43  CE2        9.2490   19.5790  -17.2010 C.ar   22  TRP22       0.0810
     44  CE3        6.9680   19.8580  -16.4550 C.ar   22  TRP22       0.0012
     45  CZ2        9.7450   19.7850  -15.9150 C.ar   22  TRP22       0.0191
     46  CZ3        7.4620   20.0620  -15.1790 C.ar   22  TRP22       0.0001
     47  CH2        8.8380   20.0250  -14.9200 C.ar   22  TRP22       0.0015
     48  N          6.9210   20.7240  -22.5430 N.am   23  ILE23      -0.1980
     49  CA         7.8620   21.1150  -23.5860 C.3    23  ILE23       0.1595
     50  C          7.6590   22.5670  -24.0150 C.2    23  ILE23       0.2287
     51  O          8.6210   23.3200  -24.1710 O.2    23  ILE23      -0.2864
     52  CB         7.7480   20.1910  -24.8180 C.3    23  ILE23       0.0276
     53  CG1        8.2810   18.7970  -24.4870 C.3    23  ILE23       0.0022
     54  CG2        8.5110   20.7670  -26.0010 C.3    23  ILE23       0.0022
     55  CD1        9.7550   18.7770  -24.1520 C.3    23  ILE23       0.0001
     56  N          5.1950   26.7640  -17.1100 N.3    28  PHE28      -0.1241
     57  CA         4.4730   25.5490  -16.7570 C.3    28  PHE28       0.1605
     58  C          5.3960   24.5640  -16.0490 C.2    28  PHE28       0.2264
     59  O          5.0000   23.9190  -15.0780 O.2    28  PHE28      -0.2867
     60  CB         3.8610   24.9000  -18.0000 C.3    28  PHE28       0.0534
     61  CG         3.0560   23.6650  -17.7040 C.ar   28  PHE28      -0.0203
     62  CD1        1.7240   23.7630  -17.3380 C.ar   28  PHE28      -0.0042
     63  CD2        3.6310   22.4070  -17.7910 C.ar   28  PHE28      -0.0042
     64  CE1        0.9810   22.6300  -17.0630 C.ar   28  PHE28      -0.0003
     65  CE2        2.8940   21.2710  -17.5160 C.ar   28  PHE28      -0.0003
     66  CZ         1.5670   21.3830  -17.1530 C.ar   28  PHE28      -0.0000
     67  N          4.9480   23.1980  -12.2850 N.3    32  GLY32      -0.1225
     68  CA         4.9220   21.7890  -11.9410 C.3    32  GLY32       0.1811
     69  C          5.9200   21.4620  -10.8480 C.2    32  GLY32       0.2280
     70  O          5.6650   20.6130   -9.9950 O.2    32  GLY32      -0.2866
     71  N          4.5150   22.6550   -7.5620 N.3    35  VAL35      -0.1231
     72  CA         3.4920   21.7140   -7.1210 C.3    35  VAL35       0.1692
     73  C          4.1220   20.4560   -6.5300 C.2    35  VAL35       0.2591
     74  O          3.7500   20.0210   -5.4400 O.2    35  VAL35      -0.2718
     75  CB         2.5450   21.3220   -8.2740 C.3    35  VAL35       0.0266
     76  CG1        1.5980   20.2160   -7.8350 C.3    35  VAL35       0.0020
     77  CG2        1.7660   22.5370   -8.7570 C.3    35  VAL35       0.0020
     78  N          5.0820   19.8830   -7.2510 N.am   36  LEU36      -0.1980
     79  CA         5.7640   18.6690   -6.8050 C.3    36  LEU36       0.1596
     80  C          6.4650   18.8590   -5.4640 C.2    36  LEU36       0.2287
     81  O          6.4650   17.9580   -4.6250 O.2    36  LEU36      -0.2864
     82  CB         6.7640   18.1880   -7.8590 C.3    36  LEU36       0.0297
     83  CG         6.1690   17.5380   -9.1090 C.3    36  LEU36       0.0022
     84  CD1        7.2690   17.0940  -10.0600 C.3    36  LEU36       0.0001
     85  CD2        5.2780   16.3670   -8.7290 C.3    36  LEU36       0.0001
     86  N          3.8220   18.8200   -2.7480 N.3    39  VAL39      -0.1245
     87  CA         3.3450   17.4670   -2.4850 C.3    39  VAL39       0.1561
     88  C          4.3080   16.7210   -1.5650 C.2    39  VAL39       0.2260
     89  O          3.8900   16.0710   -0.6060 O.2    39  VAL39      -0.2867
     90  CB         3.1550   16.6730   -3.7930 C.3    39  VAL39       0.0252
     91  CG1        2.7810   15.2300   -3.4940 C.3    39  VAL39       0.0019
     92  CG2        2.0960   17.3340   -4.6620 C.3    39  VAL39       0.0019
     93  N         -2.3690   19.1130   -0.1730 N.3    56  ILE56      -0.1245
     94  CA        -2.2330   18.4490   -1.4620 C.3    56  ILE56       0.1561
     95  C         -3.3530   18.8600   -2.4130 C.2    56  ILE56       0.2260
     96  O         -3.0920   19.2730   -3.5410 O.2    56  ILE56      -0.2867
     97  CB        -2.2170   16.9160   -1.3070 C.3    56  ILE56       0.0252
     98  CG1       -0.9380   16.4700   -0.5960 C.3    56  ILE56       0.0019
     99  CG2       -2.3230   16.2400   -2.6620 C.3    56  ILE56       0.0019
    100  CD1       -0.8550   14.9770   -0.3640 C.3    56  ILE56       0.0001
    101  N         -3.0330   20.4990   -6.2390 N.3    60  MET60      -0.1245
    102  CA        -3.5240   19.6090   -7.2860 C.3    60  MET60       0.1570
    103  C         -4.5920   20.3130   -8.1130 C.2    60  MET60       0.2261
    104  O         -4.6490   20.1570   -9.3310 O.2    60  MET60      -0.2867
    105  CB        -4.0850   18.3170   -6.6870 C.3    60  MET60       0.0387
    106  CG        -3.0410   17.4300   -6.0250 C.3    60  MET60       0.0595
    107  SD        -1.9040   16.6480   -7.1830 S.3    60  MET60      -0.1393
    108  CE        -2.9440   15.3560   -7.8570 C.3    60  MET60       0.0692
    109  N         -3.0810   22.7490  -10.7320 N.3    63  MET63      -0.1245
    110  CA        -2.6250   22.1180  -11.9640 C.3    63  MET63       0.1570
    111  C         -3.7960   21.7550  -12.8740 C.2    63  MET63       0.2261
    112  O         -3.7030   21.8780  -14.0950 O.2    63  MET63      -0.2867
    113  CB        -1.7910   20.8740  -11.6510 C.3    63  MET63       0.0387
    114  CG        -1.1480   20.2350  -12.8720 C.3    63  MET63       0.0595
    115  SD        -0.0520   21.3630  -13.7560 S.3    63  MET63      -0.1393
    116  CE         1.1240   21.7730  -12.4690 C.3    63  MET63       0.0692
@<TRIPOS>BOND
     1    54    52    1
     2    29    30    1
     3    29    28    1
     4    52    53    1
     5    52    49    1
     6    32    31    1
     7    53    55    1
     8    30    31    2
     9    51    50    2
    10    31    33    1
    11    28    27    1
    12    50    49    1
    13    49    48    1
    14    27    24    1
    15    25    26    2
    16    25    24    1
    17    48    36   am
    18    24    23    1
    19     3     4    2
    20     3     2    1
    21     7     9   ar
    22     7     6   ar
    23     9    10   ar
    24    23    17   am
    25    36    37    2
    26    36    35    1
    27    34    35    1
    28    15    16    1
    29     6     5    1
    30     6     8   ar
    31     1     2    1
    32     2     5    1
    33    17    18    2
    34    17    16    1
    35    35    38    1
    36    10     8   ar
    37    10    12   ar
    38    16    19    1
    39     8    11   ar
    40    38    39    1
    41    12    14   ar
    42    40    39   ar
    43    40    42   ar
    44    39    41   ar
    45    19    20    1
    46    11    13   ar
    47    42    43   ar
    48    14    13   ar
    49    60    61    1
    50    60    57    1
    51    20    22    1
    52    20    21    1
    53    63    61   ar
    54    63    65   ar
    55    61    62   ar
    56    65    66   ar
    57    41    43   ar
    58    41    44   ar
    59    62    64   ar
    60    43    45   ar
    61    66    64   ar
    62    56    57    1
    63    57    58    1
    64    44    46   ar
    65    58    59    2
    66    45    47   ar
    67    46    47   ar
    68   112   111    2
    69   115   114    1
    70   115   116    1
    71   111   110    1
    72   114   113    1
    73    67    68    1
    74   110   113    1
    75   110   109    1
    76    68    69    1
    77    69    70    2
    78    84    83    1
    79   104   103    2
    80    83    85    1
    81    83    82    1
    82    77    75    1
    83    75    76    1
    84    75    72    1
    85   103   102    1
    86    82    79    1
    87   108   107    1
    88    71    72    1
    89   102   105    1
    90   102   101    1
    91    78    79    1
    92    78    73   am
    93   107   106    1
    94    72    73    1
    95    79    80    1
    96   105   106    1
    97    73    74    2
    98    80    81    2
    99    92    90    1
   100    90    91    1
   101    90    87    1
   102    96    95    2
   103    86    87    1
   104    99    97    1
   105    87    88    1
   106    95    94    1
   107    88    89    2
   108    94    97    1
   109    94    93    1
   110    97    98    1
   111    98   100    1
