@<TRIPOS>MOLECULE
tmp/4bpjA00.pdb
 137 134 0 0 0
SMALL
GASTEIGER

@<TRIPOS>ATOM
      1  N         23.6460   23.4910   10.8910 N.3    37  ARG37      -0.1231
      2  CA        23.5780   24.6860   11.7250 C.3    37  ARG37       0.1694
      3  C         22.1580   25.0340   12.2020 C.2    37  ARG37       0.2591
      4  O         21.9360   25.2740   13.3930 O.2    37  ARG37      -0.2718
      5  CB        24.1960   25.8840   10.9890 C.3    37  ARG37       0.0321
      6  CG        23.9810   27.2300   11.6820 C.3    37  ARG37       0.0489
      7  CD        24.6660   28.3690   10.9250 C.3    37  ARG37       0.2205
      8  NE        24.4120   28.3150    9.4860 N.pl3  37  ARG37      -0.0865
      9  CZ        23.4200   28.9510    8.8670 C.cat  37  ARG37       0.5346
     10  NH1       22.5720   29.7060    9.5560 N.pl3  37  ARG37       0.1354
     11  NH2       23.2750   28.8330    7.5540 N.pl3  37  ARG37       0.1354
     12  N         21.2080   25.0760   11.2790 N.am   38  VAL38      -0.1980
     13  CA        19.8440   25.4750   11.6090 C.3    38  VAL38       0.1595
     14  C         19.1210   24.3400   12.3300 C.2    38  VAL38       0.2287
     15  O         18.4410   24.5640   13.3180 O.2    38  VAL38      -0.2864
     16  CB        19.0620   25.8820   10.3450 C.3    38  VAL38       0.0276
     17  CG1       17.6270   26.2500   10.6830 C.3    38  VAL38       0.0022
     18  CG2       19.7620   27.0440    9.6500 C.3    38  VAL38       0.0022
     19  N         17.2690   24.1750   15.9790 N.3    42  VAL42      -0.1245
     20  CA        15.8770   23.8060   16.2440 C.3    42  VAL42       0.1561
     21  C         15.8120   22.7480   17.3480 C.2    42  VAL42       0.2260
     22  O         15.0590   22.8870   18.3250 O.2    42  VAL42      -0.2867
     23  CB        15.1920   23.2650   14.9790 C.3    42  VAL42       0.0252
     24  CG1       13.7940   22.7220   15.3100 C.3    42  VAL42       0.0019
     25  CG2       15.1290   24.3510   13.9020 C.3    42  VAL42       0.0019
     26  N         16.7930   24.2960   20.7870 N.3    45  ASN45      -0.1240
     27  CA        15.7960   25.2140   21.3210 C.3    45  ASN45       0.1653
     28  C         14.4870   24.5350   21.6940 C.2    45  ASN45       0.2266
     29  O         13.7630   25.0090   22.5670 O.2    45  ASN45      -0.2867
     30  CB        15.5160   26.3470   20.3280 C.3    45  ASN45       0.1155
     31  CG        16.6560   27.3420   20.2470 C.2    45  ASN45       0.2627
     32  OD1       17.3450   27.5910   21.2310 O.2    45  ASN45      -0.2716
     33  ND2       16.8650   27.9050   19.0680 N.am   45  ASN45      -0.0877
     34  N          0.9630   19.4010    9.1940 N.3    75  VAL75      -0.1245
     35  CA         1.6080   20.7300    9.2180 C.3    75  VAL75       0.1561
     36  C          1.3010   21.5280    7.9620 C.2    75  VAL75       0.2260
     37  O          0.9320   22.6930    8.0380 O.2    75  VAL75      -0.2867
     38  CB         3.1330   20.6460    9.4080 C.3    75  VAL75       0.0252
     39  CG1        3.8230   22.0150    9.1310 C.3    75  VAL75       0.0019
     40  CG2        3.4560   20.1720   10.8330 C.3    75  VAL75       0.0019
     41  N          0.0670   26.3910    3.5670 N.3    80  VAL80      -0.1245
     42  CA         1.2490   27.2410    3.6210 C.3    80  VAL80       0.1561
     43  C          2.5340   26.4170    3.5290 C.2    80  VAL80       0.2260
     44  O          2.6520   25.3590    4.1430 O.2    80  VAL80      -0.2867
     45  CB         1.2380   28.0790    4.9010 C.3    80  VAL80       0.0252
     46  CG1        2.5530   28.8460    5.0820 C.3    80  VAL80       0.0019
     47  CG2        0.0460   29.0190    4.8670 C.3    80  VAL80       0.0019
     48  N          6.8300   26.9460    3.6610 N.3    82  ASN82      -0.1225
     49  CA         8.0030   27.7910    3.8170 C.3    82  ASN82       0.1785
     50  C          9.1940   26.9720    4.2910 C.2    82  ASN82       0.2597
     51  O          9.0340   25.8180    4.6790 O.2    82  ASN82      -0.2718
     52  CB         7.7280   28.9990    4.7350 C.3    82  ASN82       0.1169
     53  CG         7.3450   28.5980    6.1580 C.2    82  ASN82       0.2627
     54  OD1        7.9930   27.7640    6.7660 O.2    82  ASN82      -0.2716
     55  ND2        6.2710   29.1800    6.6690 N.am   82  ASN82      -0.0877
     56  N         10.3830   27.5580    4.2450 N.am   83  TRP83      -0.1962
     57  CA        11.5890   26.8200    4.6190 C.3    83  TRP83       0.1771
     58  C         11.6470   26.5630    6.1250 C.2    83  TRP83       0.2620
     59  O         12.2330   25.5860    6.5630 O.2    83  TRP83      -0.2715
     60  CB        12.8550   27.5610    4.1760 C.3    83  TRP83       0.0590
     61  CG        13.1100   27.5580    2.6760 C.ar   83  TRP83       0.0006
     62  CD1       13.1900   28.6580    1.8640 C.ar   83  TRP83       0.0946
     63  CD2       13.3480   26.4190    1.8330 C.ar   83  TRP83       0.0152
     64  NE1       13.4450   28.2740    0.5670 N.ar   83  TRP83      -0.2442
     65  CE2       13.5570   26.9100    0.5190 C.ar   83  TRP83       0.0810
     66  CE3       13.4090   25.0410    2.0560 C.ar   83  TRP83       0.0012
     67  CZ2       13.8090   26.0630   -0.5680 C.ar   83  TRP83       0.0191
     68  CZ3       13.6590   24.1950    0.9660 C.ar   83  TRP83       0.0001
     69  CH2       13.8580   24.7140   -0.3190 C.ar   83  TRP83       0.0015
     70  N         11.0360   27.4330    6.9210 N.am   84  GLY84      -0.1940
     71  CA        10.9860   27.1930    8.3600 C.3    84  GLY84       0.2014
     72  C         10.2910   25.8780    8.6690 C.2    84  GLY84       0.2638
     73  O         10.7540   25.0740    9.4950 O.2    84  GLY84      -0.2714
     74  N          9.1830   25.6270    7.9810 N.am   85  ARG85      -0.1977
     75  CA         8.4510   24.3570    8.1400 C.3    85  ARG85       0.1597
     76  C          9.2530   23.1680    7.6610 C.2    85  ARG85       0.2287
     77  O          9.2970   22.1300    8.3130 O.2    85  ARG85      -0.2864
     78  CB         7.1100   24.3850    7.3990 C.3    85  ARG85       0.0334
     79  CG         6.1220   25.3640    8.0260 C.3    85  ARG85       0.0492
     80  CD         4.8880   25.5090    7.1580 C.3    85  ARG85       0.2205
     81  NE         3.9550   26.4160    7.8220 N.pl3  85  ARG85      -0.0865
     82  CZ         2.6370   26.3260    7.7140 C.cat  85  ARG85       0.5346
     83  NH1        2.0900   25.3710    6.9610 N.pl3  85  ARG85       0.1354
     84  NH2        1.8610   27.1920    8.3520 N.pl3  85  ARG85       0.1354
     85  N         12.5670   22.8480    7.3400 N.3    87  VAL87      -0.1231
     86  CA        13.7010   22.5360    8.2140 C.3    87  VAL87       0.1692
     87  C         13.2520   22.0400    9.5950 C.2    87  VAL87       0.2592
     88  O         13.9130   21.1920   10.2020 O.2    87  VAL87      -0.2718
     89  CB        14.7140   23.7060    8.3230 C.3    87  VAL87       0.0266
     90  CG1       14.2040   24.7640    9.2760 C.3    87  VAL87       0.0020
     91  CG2       16.0680   23.1900    8.7810 C.3    87  VAL87       0.0020
     92  N         12.1270   22.5440   10.0910 N.am   88  THR88      -0.1953
     93  CA        11.6260   22.0940   11.3880 C.3    88  THR88       0.1897
     94  C         11.1910   20.6290   11.3230 C.2    88  THR88       0.2313
     95  O         11.4450   19.8520   12.2490 O.2    88  THR88      -0.2863
     96  CB        10.4870   23.0100   11.8800 C.3    88  THR88       0.1794
     97  OG1       11.0160   24.3290   12.0690 O.3    88  THR88      -0.2208
     98  CG2        9.9210   22.5110   13.2040 C.3    88  THR88       0.0378
     99  N         18.2740   31.1100    1.9340 N.3   140  PHE140     -0.1227
    100  CA        17.2540   31.5870    2.8680 C.3   140  PHE140      0.1736
    101  C         17.8000   31.7100    4.3010 C.2   140  PHE140      0.2595
    102  O         17.4940   32.6700    5.0140 O.2   140  PHE140     -0.2718
    103  CB        16.0120   30.6820    2.8610 C.3   140  PHE140      0.0547
    104  CG        14.9230   31.1700    3.7710 C.ar  140  PHE140     -0.0202
    105  CD1       14.1280   32.2440    3.4080 C.ar  140  PHE140     -0.0042
    106  CD2       14.6970   30.5580    5.0050 C.ar  140  PHE140     -0.0042
    107  CE1       13.1360   32.7200    4.2560 C.ar  140  PHE140     -0.0003
    108  CE2       13.7020   31.0350    5.8660 C.ar  140  PHE140     -0.0003
    109  CZ        12.9140   32.1040    5.4830 C.ar  140  PHE140     -0.0000
    110  N         18.6130   30.7390    4.6970 N.am  141  PHE141     -0.1962
    111  CA        19.1520   30.6920    6.0560 C.3   141  PHE141      0.1771
    112  C         20.5330   31.3380    6.2480 C.2   141  PHE141      0.2620
    113  O         20.9040   31.6690    7.3790 O.2   141  PHE141     -0.2715
    114  CB        19.1550   29.2450    6.5690 C.3   141  PHE141      0.0574
    115  CG        17.7770   28.6850    6.8170 C.ar  141  PHE141     -0.0200
    116  CD1       16.9890   29.1900    7.8390 C.ar  141  PHE141     -0.0042
    117  CD2       17.2740   27.6570    6.0380 C.ar  141  PHE141     -0.0042
    118  CE1       15.7250   28.6770    8.0750 C.ar  141  PHE141     -0.0003
    119  CE2       16.0040   27.1360    6.2690 C.ar  141  PHE141     -0.0003
    120  CZ        15.2280   27.6470    7.2880 C.ar  141  PHE141     -0.0000
    121  N         21.2970   31.5260    5.1700 N.am  142  HIS142     -0.1959
    122  CA        22.6320   32.1200    5.3050 C.3   142  HIS142      0.1787
    123  C         22.5280   33.4940    5.9550 C.2   142  HIS142      0.2620
    124  O         21.6730   34.3030    5.5970 O.2   142  HIS142     -0.2715
    125  CB        23.3620   32.2090    3.9550 C.3   142  HIS142      0.0785
    126  CG        24.7640   32.7450    4.0470 C.ar  142  HIS142      0.0821
    127  ND1       25.8750   31.9980    3.7120 N.ar  142  HIS142     -0.2267
    128  CD2       25.2320   33.9570    4.4280 C.ar  142  HIS142      0.1154
    129  CE1       26.9630   32.7250    3.8830 C.ar  142  HIS142      0.1986
    130  NE2       26.6020   33.9170    4.3200 N.ar  142  HIS142     -0.2212
    131  N         23.3860   33.7530    6.9320 N.am  143  VAL143     -0.1977
    132  CA        23.3750   35.0640    7.5730 C.3   143  VAL143      0.1596
    133  C         24.6590   35.7940    7.2110 C.2   143  VAL143      0.2287
    134  O         24.6340   36.8530    6.5940 O.2   143  VAL143     -0.2864
    135  CB        23.2630   34.9550    9.0930 C.3   143  VAL143      0.0276
    136  CG1       23.1580   36.3460    9.7060 C.3   143  VAL143      0.0022
    137  CG2       22.0730   34.0990    9.4780 C.3   143  VAL143      0.0022
@<TRIPOS>BOND
     1    67    69   ar
     2    67    65   ar
     3    69    68   ar
     4    65    64   ar
     5    65    63   ar
     6    64    62   ar
     7    68    66   ar
     8    63    66   ar
     9    63    61   ar
    10    62    61   ar
    11    99   100    1
    12    61    60    1
    13   103   100    1
    14   103   104    1
    15   100   101    1
    16   105   104   ar
    17   105   107   ar
    18    43    42    1
    19    43    44    2
    20    41    42    1
    21    42    45    1
    22    48    49    1
    23   127   129   ar
    24   127   126   ar
    25   104   106   ar
    26    49    50    1
    27    49    52    1
    28   129   130   ar
    29   125   126    1
    30   125   122    1
    31   126   128   ar
    32    60    57    1
    33    56    50   am
    34    56    57    1
    35   107   109   ar
    36    50    51    2
    37   101   110   am
    38   101   102    2
    39   130   128   ar
    40    57    58    1
    41   110   111    1
    42    52    53    1
    43    47    45    1
    44    45    46    1
    45   106   108   ar
    46   121   122    1
    47   121   112   am
    48   122   123    1
    49   109   108   ar
    50   124   123    2
    51   123   131   am
    52   117   119   ar
    53   117   115   ar
    54   111   112    1
    55   111   114    1
    56    58    59    2
    57    58    70   am
    58    53    55   am
    59    53    54    2
    60   112   113    2
    61   119   120   ar
    62   114   115    1
    63   134   133    2
    64   115   116   ar
    65    70    71    1
    66   131   132    1
    67    83    82    1
    68    80    81    1
    69    80    79    1
    70   133   132    1
    71   120   118   ar
    72    85    86    1
    73    78    79    1
    74    78    75    1
    75    11     9    1
    76   132   135    1
    77    76    75    1
    78    76    77    2
    79    82    81    2
    80    82    84    1
    81   116   118   ar
    82    36    37    2
    83    36    35    1
    84    74    75    1
    85    74    72   am
    86    86    89    1
    87    86    87    1
    88    89    91    1
    89    89    90    1
    90    71    72    1
    91    72    73    2
    92     9     8    2
    93     9    10    1
    94   135   137    1
    95   135   136    1
    96    39    38    1
    97    34    35    1
    98    35    38    1
    99    38    40    1
   100     8     7    1
   101    87    92   am
   102    87    88    2
   103    18    16    1
   104    92    93    1
   105    16    17    1
   106    16    13    1
   107     1     2    1
   108     7     6    1
   109     5     6    1
   110     5     2    1
   111    12    13    1
   112    12     3   am
   113    94    93    1
   114    94    95    2
   115    93    96    1
   116    13    14    1
   117     2     3    1
   118    96    97    1
   119    96    98    1
   120     3     4    2
   121    14    15    2
   122    25    23    1
   123    23    24    1
   124    23    20    1
   125    19    20    1
   126    20    21    1
   127    21    22    2
   128    33    31   am
   129    31    30    1
   130    31    32    2
   131    30    27    1
   132    26    27    1
   133    27    28    1
   134    28    29    2
