@<TRIPOS>MOLECULE
tmp/4bpsA00.pdb
 150 141 0 0 0
SMALL
GASTEIGER

@<TRIPOS>ATOM
      1  N         59.7920    1.7900   14.6650 N.3   125  ASN125     -0.1240
      2  CA        59.6720    0.3520   14.4240 C.3   125  ASN125      0.1653
      3  C         60.7820   -0.0540   13.4670 C.2   125  ASN125      0.2266
      4  O         60.8080    0.3820   12.3130 O.2   125  ASN125     -0.2867
      5  CB        58.3110    0.0060   13.7980 C.3   125  ASN125      0.1155
      6  CG        57.1540    0.6040   14.5690 C.2   125  ASN125      0.2627
      7  OD1       56.7290    0.0470   15.5720 O.2   125  ASN125     -0.2716
      8  ND2       56.6520    1.7650   14.1130 N.am  125  ASN125     -0.0877
      9  N         56.0870   -6.1150    6.1940 N.3   141  TYR141     -0.1241
     10  CA        55.5580   -4.8040    6.5970 C.3   141  TYR141      0.1605
     11  C         54.0400   -4.8630    6.7900 C.2   141  TYR141      0.2264
     12  O         53.5010   -4.2400    7.7020 O.2   141  TYR141     -0.2867
     13  CB        55.8750   -3.7460    5.5440 C.3   141  TYR141      0.0534
     14  CG        55.3540   -2.3710    5.9230 C.ar  141  TYR141     -0.0201
     15  CD1       55.7980   -1.7130    7.0740 C.ar  141  TYR141     -0.0009
     16  CD2       54.3850   -1.7400    5.1610 C.ar  141  TYR141     -0.0009
     17  CE1       55.3080   -0.4820    7.4260 C.ar  141  TYR141      0.0417
     18  CE2       53.9090   -0.4920    5.4830 C.ar  141  TYR141      0.0417
     19  CZ        54.3620    0.1340    6.6230 C.ar  141  TYR141      0.1957
     20  OH        53.8580    1.3740    6.9390 O.3   141  TYR141     -0.2866
     21  N         53.2190   -6.7190   10.0060 N.3   144  PHE144     -0.1241
     22  CA        53.4400   -5.7530   11.0800 C.3   144  PHE144      0.1605
     23  C         52.2700   -4.7570   11.1810 C.2   144  PHE144      0.2264
     24  O         51.7870   -4.4740   12.2790 O.2   144  PHE144     -0.2867
     25  CB        54.7770   -5.0310   10.8210 C.3   144  PHE144      0.0534
     26  CG        54.8940   -3.7130   11.5350 C.ar  144  PHE144     -0.0203
     27  CD1       55.1350   -3.6600   12.9100 C.ar  144  PHE144     -0.0042
     28  CD2       54.7290   -2.5210   10.8510 C.ar  144  PHE144     -0.0042
     29  CE1       55.1920   -2.4490   13.5820 C.ar  144  PHE144     -0.0003
     30  CE2       54.8050   -1.3050   11.5230 C.ar  144  PHE144     -0.0003
     31  CZ        55.0220   -1.2760   12.8870 C.ar  144  PHE144     -0.0000
     32  N         49.9230   -3.9650   14.4970 N.3   148  ARG148     -0.1245
     33  CA        49.7920   -2.6450   15.0950 C.3   148  ARG148      0.1563
     34  C         48.3280   -2.2000   15.1200 C.2   148  ARG148      0.2260
     35  O         47.8260   -1.7400   16.1350 O.2   148  ARG148     -0.2867
     36  CB        50.6860   -1.6610   14.3500 C.3   148  ARG148      0.0307
     37  CG        50.5010   -0.2210   14.7940 C.3   148  ARG148      0.0489
     38  CD        51.5640    0.7300   14.2160 C.3   148  ARG148      0.2205
     39  NE        51.5330    0.7510   12.7420 N.pl3 148  ARG148     -0.0865
     40  CZ        52.4360    1.3730   11.9870 C.cat 148  ARG148      0.5346
     41  NH1       53.4530    2.0580   12.5430 N.pl3 148  ARG148      0.1354
     42  NH2       52.3400    1.3000   10.6600 N.pl3 148  ARG148      0.1354
     43  N         56.1540    8.6850   13.5370 N.3   164  ALA164     -0.1231
     44  CA        56.6250    7.3050   13.5060 C.3   164  ALA164      0.1694
     45  C         57.6840    7.0780   12.4470 C.2   164  ALA164      0.2593
     46  O         57.8770    7.8930   11.5270 O.2   164  ALA164     -0.2718
     47  CB        55.4360    6.3410   13.2550 C.3   164  ALA164      0.0304
     48  N         58.3570    5.9470   12.5990 N.am  165  THR165     -0.1939
     49  CA        59.2250    5.3530   11.5890 C.3   165  THR165      0.2028
     50  C         58.8750    3.8830   11.4750 C.2   165  THR165      0.2642
     51  O         58.6660    3.2280   12.5010 O.2   165  THR165     -0.2714
     52  CB        60.6790    5.4940   12.0070 C.3   165  THR165      0.1808
     53  OG1       60.9880    6.8890   12.0170 O.3   165  THR165     -0.2208
     54  CG2       61.6440    4.7490   11.0900 C.3   165  THR165      0.0379
     55  N         58.8090    3.3760   10.2370 N.am  166  GLY166     -0.1954
     56  CA        58.6210    1.9570    9.9500 C.3   166  GLY166      0.1869
     57  C         59.6730    1.5780    8.9270 C.2   166  GLY166      0.2309
     58  O         59.5010    1.8350    7.7330 O.2   166  GLY166     -0.2863
     59  N         45.0950    5.2700    3.9320 N.3   200  TYR200     -0.1241
     60  CA        45.6140    4.6590    2.7250 C.3   200  TYR200      0.1605
     61  C         44.6240    3.6300    2.1630 C.2   200  TYR200      0.2264
     62  O         43.9700    2.9040    2.9080 O.2   200  TYR200     -0.2867
     63  CB        46.9360    3.9470    2.9710 C.3   200  TYR200      0.0534
     64  CG        48.2070    4.7910    3.0650 C.ar  200  TYR200     -0.0201
     65  CD1       48.1920    6.1900    3.0090 C.ar  200  TYR200     -0.0009
     66  CD2       49.4310    4.1680    3.2070 C.ar  200  TYR200     -0.0009
     67  CE1       49.3680    6.8980    3.0970 C.ar  200  TYR200      0.0417
     68  CE2       50.6160    4.8640    3.3180 C.ar  200  TYR200      0.0417
     69  CZ        50.5880    6.2350    3.2710 C.ar  200  TYR200      0.1957
     70  OH        51.7490    6.9970    3.3990 O.3   200  TYR200     -0.2866
     71  N         49.9620    6.5570   11.7010 N.3   211  PHE211     -0.1241
     72  CA        50.9780    7.4570   12.2670 C.3   211  PHE211      0.1605
     73  C         50.7200    8.8770   11.7860 C.2   211  PHE211      0.2264
     74  O         50.1830    9.0780   10.6880 O.2   211  PHE211     -0.2867
     75  CB        52.4380    7.0470   11.9270 C.3   211  PHE211      0.0534
     76  CG        52.7460    6.9620   10.4540 C.ar  211  PHE211     -0.0203
     77  CD1       52.5650    5.7790    9.7410 C.ar  211  PHE211     -0.0042
     78  CD2       53.2450    8.0610    9.7770 C.ar  211  PHE211     -0.0042
     79  CE1       52.8600    5.7030    8.4030 C.ar  211  PHE211     -0.0003
     80  CE2       53.5400    7.9930    8.4310 C.ar  211  PHE211     -0.0003
     81  CZ        53.3310    6.8210    7.7380 C.ar  211  PHE211     -0.0000
     82  N         52.3750   12.7020   10.6490 N.3   213  ARG213     -0.1245
     83  CA        53.5450   13.0900    9.8420 C.3   213  ARG213      0.1563
     84  C         54.5940   13.8670   10.6750 C.2   213  ARG213      0.2260
     85  O         55.7850   13.9050   10.3140 O.2   213  ARG213     -0.2867
     86  CB        53.1070   13.8670    8.5880 C.3   213  ARG213      0.0307
     87  CG        52.1420   13.0660    7.7300 C.3   213  ARG213      0.0489
     88  CD        52.7980   11.8330    7.1440 C.3   213  ARG213      0.2205
     89  NE        51.8020   10.9560    6.5350 N.pl3 213  ARG213     -0.0865
     90  CZ        52.1190    9.9450    5.7310 C.cat 213  ARG213      0.5346
     91  NH1       53.3850    9.6910    5.4320 N.pl3 213  ARG213      0.1354
     92  NH2       51.1500    9.1940    5.2180 N.pl3 213  ARG213      0.1354
     93  N         59.7350    9.5660    9.8720 N.3   229  ALA229     -0.1231
     94  CA        60.4250    9.1460    8.6570 C.3   229  ALA229      0.1694
     95  C         59.5560    9.5770    7.4790 C.2   229  ALA229      0.2593
     96  O         58.3480    9.3010    7.4540 O.2   229  ALA229     -0.2718
     97  CB        60.6220    7.6550    8.6630 C.3   229  ALA229      0.0304
     98  N         60.1780   10.2690    6.5260 N.am  230  THR230     -0.1939
     99  CA        59.4790   10.9430    5.4340 C.3   230  THR230      0.2028
    100  C         60.0260   10.4460    4.0940 C.2   230  THR230      0.2642
    101  O         61.2460   10.4410    3.9000 O.2   230  THR230     -0.2714
    102  CB        59.6770   12.4600    5.5820 C.3   230  THR230      0.1808
    103  OG1       59.1960   12.8930    6.8660 O.3   230  THR230     -0.2208
    104  CG2       58.8920   13.2140    4.4940 C.3   230  THR230      0.0379
    105  N         59.1150   10.0330    3.2220 N.am  231  ALA231     -0.1977
    106  CA        59.4510    9.4040    1.9540 C.3   231  ALA231      0.1597
    107  C         59.0730   10.2770    0.7650 C.2   231  ALA231      0.2287
    108  O         58.3750   11.3010    0.9000 O.2   231  ALA231     -0.2864
    109  CB        58.7110    8.0730    1.8350 C.3   231  ALA231      0.0319
    110  N         56.7460   10.4910   -1.5040 N.3   233  ILE233     -0.1245
    111  CA        55.3590   10.1680   -1.7700 C.3   233  ILE233      0.1561
    112  C         54.5870   11.4800   -1.9940 C.2   233  ILE233      0.2260
    113  O         54.8930   12.5100   -1.3690 O.2   233  ILE233     -0.2867
    114  CB        54.7630    9.3810   -0.5490 C.3   233  ILE233      0.0252
    115  CG1       55.1640    7.8990   -0.5910 C.3   233  ILE233      0.0019
    116  CG2       53.2520    9.4690   -0.4730 C.3   233  ILE233      0.0019
    117  CD1       54.9380    7.1420    0.7240 C.3   233  ILE233      0.0001
    118  N         59.7360    0.7500    3.9400 N.3   315  ALA315     -0.1231
    119  CA        58.4790    0.0250    4.1010 C.3   315  ALA315      0.1694
    120  C         57.8650   -0.4920    2.8040 C.2   315  ALA315      0.2591
    121  O         57.1710   -1.5090    2.8500 O.2   315  ALA315     -0.2718
    122  CB        57.4560    0.9160    4.8110 C.3   315  ALA315      0.0304
    123  N         58.0580    0.2270    1.6840 N.am  316  ARG316     -0.1980
    124  CA        57.6730   -0.2790    0.3550 C.3   316  ARG316      0.1597
    125  C         58.9310   -0.5670   -0.4300 C.2   316  ARG316      0.2287
    126  O         59.8780    0.2270   -0.3930 O.2   316  ARG316     -0.2864
    127  CB        56.8910    0.7520   -0.4620 C.3   316  ARG316      0.0334
    128  CG        55.6550    1.2660    0.1980 C.3   316  ARG316      0.0492
    129  CD        55.0150    2.3340   -0.6420 C.3   316  ARG316      0.2205
    130  NE        53.8550    2.8750    0.0440 N.pl3 316  ARG316     -0.0865
    131  CZ        53.1610    3.9170   -0.3860 C.cat 316  ARG316      0.5346
    132  NH1       53.5220    4.6060   -1.4890 N.pl3 316  ARG316      0.1354
    133  NH2       52.1030    4.3010    0.3080 N.pl3 316  ARG316      0.1354
    134  N         60.2260    2.3580   -2.4830 N.3   319  LEU319     -0.1245
    135  CA        60.8060    3.5080   -1.8030 C.3   319  LEU319      0.1561
    136  C         62.2840    3.2400   -1.5880 C.2   319  LEU319      0.2260
    137  O         62.6760    2.1600   -1.1280 O.2   319  LEU319     -0.2867
    138  CB        60.0790    3.7990   -0.4870 C.3   319  LEU319      0.0270
    139  CG        58.6160    4.2370   -0.6620 C.3   319  LEU319      0.0019
    140  CD1       57.9270    4.3080    0.6970 C.3   319  LEU319      0.0001
    141  CD2       58.4990    5.5760   -1.4140 C.3   319  LEU319      0.0001
    142  N         64.4810    7.4630    2.9170 N.3   322  GLU322     -0.1245
    143  CA        63.6060    8.2250    3.7960 C.3   322  GLU322      0.1567
    144  C         64.4630    9.0180    4.7760 C.2   322  GLU322      0.2260
    145  O         65.6090    8.6430    5.0480 O.2   322  GLU322     -0.2867
    146  CB        62.7070    7.3330    4.6330 C.3   322  GLU322      0.0388
    147  CG        61.5910    6.7220    3.8790 C.3   322  GLU322      0.1160
    148  CD        60.6460    6.0050    4.8140 C.2   322  GLU322      0.3649
    149  OE1       61.1120    5.5430    5.9010 O.co2 322  GLU322     -0.2457
    150  OE2       59.4560    5.8830    4.5010 O.co2 322  GLU322     -0.2457
@<TRIPOS>BOND
     1   134   135    1
     2   112   111    1
     3   112   113    2
     4   135   136    1
     5   135   138    1
     6   111   110    1
     7   111   114    1
     8   136   137    2
     9   132   131    1
    10   141   139    1
    11   139   138    1
    12   139   140    1
    13   129   130    1
    14   129   128    1
    15   115   114    1
    16   115   117    1
    17   114   116    1
    18   127   128    1
    19   127   124    1
    20   125   126    2
    21   125   124    1
    22   131   130    2
    23   131   133    1
    24   124   123    1
    25   107   108    2
    26   107   106    1
    27   123   120   am
    28   109   106    1
    29   106   105    1
    30    61    60    1
    31    61    62    2
    32    60    63    1
    33    60    59    1
    34   120   121    2
    35   120   119    1
    36   142   143    1
    37    63    64    1
    38    65    64   ar
    39    65    67   ar
    40    64    66   ar
    41    67    69   ar
    42    66    68   ar
    43   105   100   am
    44    69    68   ar
    45    69    70    1
    46   143   146    1
    47   143   144    1
    48   147   146    1
    49   147   148    1
    50   101   100    2
    51   118   119    1
    52   100    99    1
    53   119   122    1
    54   104   102    1
    55   150   148   ar
    56   144   145    2
    57   148   149   ar
    58    16    18   ar
    59    16    14   ar
    60    92    90    1
    61    91    90    1
    62    99   102    1
    63    99    98    1
    64    18    19   ar
    65    13    14    1
    66    13    10    1
    67   102   103    1
    68    90    89    2
    69    14    15   ar
    70     9    10    1
    71    98    95   am
    72    89    88    1
    73    10    11    1
    74    19    20    1
    75    19    17   ar
    76    11    12    2
    77    15    17   ar
    78    88    87    1
    79    96    95    2
    80    95    94    1
    81    87    86    1
    82    58    57    2
    83    81    79   ar
    84    81    80   ar
    85    79    77   ar
    86    80    78   ar
    87    86    83    1
    88    94    97    1
    89    94    93    1
    90    57    56    1
    91    77    76   ar
    92    78    76   ar
    93    83    82    1
    94    83    84    1
    95    56    55    1
    96    21    22    1
    97    55    50   am
    98    85    84    2
    99    76    75    1
   100    42    40    1
   101    74    73    2
   102    25    22    1
   103    25    26    1
   104    28    30   ar
   105    28    26   ar
   106    22    23    1
   107    54    52    1
   108    23    24    2
   109    50    49    1
   110    50    51    2
   111    30    31   ar
   112    46    45    2
   113    26    27   ar
   114    49    52    1
   115    49    48    1
   116    71    72    1
   117    73    72    1
   118    75    72    1
   119    40    41    1
   120    40    39    2
   121    52    53    1
   122     4     3    2
   123    45    48   am
   124    45    44    1
   125    39    38    1
   126    31    29   ar
   127    27    29   ar
   128    47    44    1
   129     3     2    1
   130    44    43    1
   131     5     2    1
   132     5     6    1
   133     8     6   am
   134    38    37    1
   135    36    37    1
   136    36    33    1
   137     2     1    1
   138    32    33    1
   139     6     7    2
   140    33    34    1
   141    34    35    2
