@<TRIPOS>MOLECULE
tmp/4bptA00.pdb
 109 108 0 0 0
SMALL
GASTEIGER

@<TRIPOS>ATOM
      1  N          0.3010    8.6600   -6.7780 N.3    79  ILE79      -0.1231
      2  CA        -0.9680    8.0210   -6.7520 C.3    79  ILE79       0.1692
      3  C         -1.6760    8.4420   -5.5090 C.2    79  ILE79       0.2593
      4  O         -1.0330    8.8410   -4.5520 O.2    79  ILE79      -0.2718
      5  CB        -0.8240    6.4610   -6.6750 C.3    79  ILE79       0.0266
      6  CG1        0.0220    6.1380   -5.4340 C.3    79  ILE79       0.0019
      7  CG2       -0.2510    5.9770   -7.9820 C.3    79  ILE79       0.0020
      8  CD1        0.6390    4.7670   -5.3850 C.3    79  ILE79       0.0001
      9  N         -3.0070    8.2210   -5.5060 N.am   80  SER80      -0.1938
     10  CA        -3.9060    8.8630   -4.5260 C.3    80  SER80       0.2055
     11  C         -4.1670    7.9190   -3.3820 C.2    80  SER80       0.2642
     12  O         -3.9060    6.7190   -3.5450 O.2    80  SER80      -0.2714
     13  CB        -5.2290    9.2500   -5.1810 C.3    80  SER80       0.2130
     14  OG        -6.0530    8.1120   -5.4220 O.3    80  SER80      -0.2179
     15  N         -4.7240    8.4020   -2.2510 N.am   81  ALA81      -0.1977
     16  CA        -4.8920    7.4760   -1.1500 C.3    81  ALA81       0.1597
     17  C         -5.7840    6.3450   -1.6080 C.2    81  ALA81       0.2287
     18  O         -5.5400    5.1940   -1.3380 O.2    81  ALA81      -0.2864
     19  CB        -5.4660    8.1380    0.0820 C.3    81  ALA81       0.0319
     20  N         -3.9930    3.6690   -3.9380 N.3    84  PHE84      -0.1241
     21  CA        -3.2000    2.8240   -3.0340 C.3    84  PHE84       0.1605
     22  C         -4.0490    1.7440   -2.3920 C.2    84  PHE84       0.2264
     23  O         -3.7090    0.5470   -2.4580 O.2    84  PHE84      -0.2867
     24  CB        -2.5710    3.6860   -1.9320 C.3    84  PHE84       0.0534
     25  CG        -1.5620    2.9780   -1.0900 C.ar   84  PHE84      -0.0203
     26  CD1       -0.3010    2.6660   -1.6080 C.ar   84  PHE84      -0.0042
     27  CD2       -1.8180    2.7060    0.2140 C.ar   84  PHE84      -0.0042
     28  CE1        0.6490    2.0630   -0.8460 C.ar   84  PHE84      -0.0003
     29  CE2       -0.8510    2.0510    1.0080 C.ar   84  PHE84      -0.0003
     30  CZ         0.3730    1.7430    0.4710 C.ar   84  PHE84      -0.0000
     31  N          7.5630    8.6500   -2.0000 N.3   111  PRO111     -0.2116
     32  CA         8.0600    7.2830   -2.0480 C.3   111  PRO111      0.1372
     33  C          8.4170    6.6960   -3.4050 C.2   111  PRO111      0.2244
     34  O          7.6060    6.6960   -4.3330 O.2   111  PRO111     -0.2868
     35  CB         6.9010    6.4800   -1.4550 C.3   111  PRO111      0.0268
     36  CG         5.7440    7.4190   -1.3740 C.3   111  PRO111      0.0207
     37  CD         6.3810    8.7390   -1.1500 C.3   111  PRO111      0.0892
     38  N         11.9440    2.7190   -1.4780 N.3   115  HIS115     -0.1226
     39  CA        10.9190    2.7600   -0.4410 C.3   115  HIS115      0.1752
     40  C         10.0060    1.5580   -0.5630 C.2   115  HIS115      0.2595
     41  O          9.7240    0.8740    0.4470 O.2   115  HIS115     -0.2718
     42  CB        10.0930    4.0360   -0.5620 C.3   115  HIS115      0.0759
     43  CG         9.0990    4.2700    0.6000 C.ar  115  HIS115      0.0818
     44  ND1        9.4710    4.8460    1.8080 N.ar  115  HIS115     -0.2268
     45  CD2        7.7030    3.9540    0.7140 C.ar  115  HIS115      0.1154
     46  CE1        8.3860    4.8490    2.6480 C.ar  115  HIS115      0.1986
     47  NE2        7.3030    4.3190    1.9660 N.ar  115  HIS115     -0.2212
     48  N          9.5860    1.2290   -1.7930 N.am  116  GLU116     -0.1979
     49  CA         8.6020    0.1510   -2.0180 C.3   116  GLU116      0.1602
     50  C          9.2370   -1.1930   -1.9650 C.2   116  GLU116      0.2287
     51  O          8.9230   -1.9650   -1.0740 O.2   116  GLU116     -0.2864
     52  CB         7.9320    0.2260   -3.4130 C.3   116  GLU116      0.0415
     53  CG         7.5920    1.5710   -3.9880 C.3   116  GLU116      0.1163
     54  CD         6.5620    2.2880   -3.2210 C.2   116  GLU116      0.3649
     55  OE1        6.2920    1.8670   -2.0560 O.co2 116  GLU116     -0.2457
     56  OE2        6.0050    3.2470   -3.8260 O.co2 116  GLU116     -0.2457
     57  N          8.9980   -2.2340    1.9460 N.3   120  HIS120     -0.1241
     58  CA         7.6920   -2.7900    2.2010 C.3   120  HIS120      0.1621
     59  C          7.4800   -4.2040    1.7390 C.2   120  HIS120      0.2264
     60  O          7.1060   -5.0190    2.5460 O.2   120  HIS120     -0.2867
     61  CB         6.6510   -1.8790    1.5360 C.3   120  HIS120      0.0745
     62  CG         6.5300   -0.5950    2.1750 C.ar  120  HIS120      0.0817
     63  ND1        5.7150   -0.4470    3.2540 N.ar  120  HIS120     -0.2268
     64  CD2        7.1320    0.6500    1.9270 C.ar  120  HIS120      0.1154
     65  CE1        5.7280    0.8790    3.6270 C.ar  120  HIS120      0.1986
     66  NE2        6.6040    1.5330    2.7970 N.ar  120  HIS120     -0.2212
     67  N         -5.6590    6.0020    8.4400 N.3   152  GLN152     -0.1245
     68  CA        -4.2730    6.2830    7.9240 C.3   152  GLN152      0.1566
     69  C         -3.2760    6.5810    9.0500 C.2   152  GLN152      0.2260
     70  O         -2.1010    6.2330    8.9560 O.2   152  GLN152     -0.2867
     71  CB        -4.2750    7.3310    6.8060 C.3   152  GLN152      0.0367
     72  CG        -4.5730    6.7120    5.4610 C.3   152  GLN152      0.0905
     73  CD        -4.8840    7.7180    4.3620 C.2   152  GLN152      0.2608
     74  OE1       -6.0360    7.9490    3.9380 O.2   152  GLN152     -0.2717
     75  NE2       -3.8410    8.3440    3.8940 N.am  152  GLN152     -0.0878
     76  N         -2.3930    2.9410   10.1430 N.3   155  PHE155     -0.1227
     77  CA        -1.5110    2.3810    9.1350 C.3   155  PHE155      0.1736
     78  C         -0.0580    2.8590    9.3530 C.2   155  PHE155      0.2595
     79  O          0.9220    2.1370    9.1000 O.2   155  PHE155     -0.2718
     80  CB        -2.0470    2.8170    7.7490 C.3   155  PHE155      0.0547
     81  CG        -1.3870    2.1660    6.5930 C.ar  155  PHE155     -0.0202
     82  CD1       -0.1250    2.5920    6.1450 C.ar  155  PHE155     -0.0042
     83  CD2       -1.9950    1.0850    5.9590 C.ar  155  PHE155     -0.0042
     84  CE1        0.4630    1.9910    5.0190 C.ar  155  PHE155     -0.0003
     85  CE2       -1.3910    0.4560    4.8780 C.ar  155  PHE155     -0.0003
     86  CZ        -0.1760    0.9370    4.3910 C.ar  155  PHE155     -0.0000
     87  N          0.0730    4.1450    9.7030 N.am  156  TRP156     -0.1976
     88  CA         1.3910    4.7870    9.9180 C.3   156  TRP156      0.1640
     89  C          2.0810    4.1420   11.0630 C.2   156  TRP156      0.2290
     90  O          3.2740    3.8630   10.9660 O.2   156  TRP156     -0.2864
     91  CB         1.1500    6.2690   10.1920 C.3   156  TRP156      0.0576
     92  CG         2.3540    7.1120   10.3830 C.ar  156  TRP156      0.0006
     93  CD1        2.9750    7.4060   11.5740 C.ar  156  TRP156      0.0946
     94  CD2        3.1420    7.8000    9.3370 C.ar  156  TRP156      0.0152
     95  NE1        4.0660    8.2020   11.3630 N.ar  156  TRP156     -0.2442
     96  CE2        4.2370    8.4420   10.0160 C.ar  156  TRP156      0.0810
     97  CE3        3.0850    7.8640    7.9380 C.ar  156  TRP156      0.0012
     98  CZ2        5.1910    9.1990    9.3260 C.ar  156  TRP156      0.0191
     99  CZ3        4.0910    8.5470    7.2560 C.ar  156  TRP156      0.0001
    100  CH2        5.1140    9.2000    7.9270 C.ar  156  TRP156      0.0015
    101  N          3.9820    1.2300    8.3990 N.3   160  GLU160     -0.1245
    102  CA         5.1700    2.0870    8.2160 C.3   160  GLU160      0.1567
    103  C          6.2270    2.1210    9.3250 C.2   160  GLU160      0.2260
    104  O          7.4170    2.1130    9.0120 O.2   160  GLU160     -0.2867
    105  CB         4.7550    3.4850    8.0740 C.3   160  GLU160      0.0388
    106  CG         3.8560    3.7010    6.8990 C.3   160  GLU160      0.1160
    107  CD         4.5420    3.3530    5.5940 C.2   160  GLU160      0.3649
    108  OE1        5.7350    3.4700    5.4280 O.co2 160  GLU160     -0.2457
    109  OE2        3.8520    2.9620    4.7080 O.co2 160  GLU160     -0.2457
@<TRIPOS>BOND
     1     7     5    1
     2     1     2    1
     3     2     5    1
     4     2     3    1
     5     5     6    1
     6     3     9   am
     7     3     4    2
     8     9    10    1
     9     6     8    1
    10    14    13    1
    11    13    10    1
    12    10    11    1
    13    34    33    2
    14    53    52    1
    15    53    54    1
    16    20    21    1
    17    56    54   ar
    18    12    11    2
    19    52    49    1
    20    33    32    1
    21    11    15   am
    22    54    55   ar
    23    21    22    1
    24    21    24    1
    25    23    22    2
    26    15    16    1
    27    32    31    1
    28    32    35    1
    29    49    50    1
    30    49    48    1
    31    31    37    1
    32    50    51    2
    33    24    25    1
    34    48    40   am
    35    17    18    2
    36    17    16    1
    37    26    25   ar
    38    26    28   ar
    39    38    39    1
    40    35    36    1
    41    36    37    1
    42    16    19    1
    43    25    27   ar
    44    28    30   ar
    45    40    39    1
    46    40    41    2
    47    42    39    1
    48    42    43    1
    49    27    29   ar
    50    30    29   ar
    51    43    45   ar
    52    43    44   ar
    53    45    47   ar
    54    61    62    1
    55    61    58    1
    56    59    58    1
    57    59    60    2
    58    44    46   ar
    59    64    62   ar
    60    64    66   ar
    61    57    58    1
    62    47    46   ar
    63    62    63   ar
    64    66    65   ar
    65    63    65   ar
    66    75    73   am
    67    74    73    2
    68    73    72    1
    69    86    85   ar
    70    86    84   ar
    71   109   107   ar
    72    85    83   ar
    73    84    82   ar
    74   108   107   ar
    75    72    71    1
    76   107   106    1
    77    83    81   ar
    78    82    81   ar
    79    81    80    1
    80    71    68    1
    81   106   105    1
    82    99   100   ar
    83    99    97   ar
    84    80    77    1
    85    68    67    1
    86    68    69    1
    87   100    98   ar
    88    97    94   ar
    89   105   102    1
    90   102   101    1
    91   102   103    1
    92    70    69    2
    93   104   103    2
    94    79    78    2
    95    77    78    1
    96    77    76    1
    97    98    96   ar
    98    94    96   ar
    99    94    92   ar
   100    78    87   am
   101    87    88    1
   102    88    91    1
   103    88    89    1
   104    96    95   ar
   105    91    92    1
   106    92    93   ar
   107    90    89    2
   108    95    93   ar
