@<TRIPOS>MOLECULE
tmp/4bpvD00.pdb
 80 76 0 0 0
SMALL
GASTEIGER

@<TRIPOS>ATOM
      1  N         29.5320   -9.1060   48.6420 N.3   116  ILE116     -0.1231
      2  CA        29.2460   -8.4580   47.3830 C.3   116  ILE116      0.1692
      3  C         27.8670   -8.9140   46.9220 C.2   116  ILE116      0.2592
      4  O         27.5590  -10.1430   46.8860 O.2   116  ILE116     -0.2718
      5  CB        30.3010   -8.8160   46.3050 C.3   116  ILE116      0.0266
      6  CG1       31.6910   -8.2340   46.6320 C.3   116  ILE116      0.0019
      7  CG2       29.8930   -8.3050   44.9290 C.3   116  ILE116      0.0020
      8  CD1       32.2990   -8.6830   47.9300 C.3   116  ILE116      0.0001
      9  N         27.0310   -7.9310   46.5960 N.am  117  GLN117     -0.1966
     10  CA        25.8010   -8.1840   45.8280 C.3   117  GLN117      0.1733
     11  C         25.9340   -7.8850   44.3520 C.2   117  GLN117      0.2616
     12  O         26.4220   -6.8230   43.9330 O.2   117  GLN117     -0.2715
     13  CB        24.6240   -7.4160   46.4200 C.3   117  GLN117      0.0408
     14  CG        24.1230   -8.1020   47.6740 C.3   117  GLN117      0.0908
     15  CD        23.1820   -7.2400   48.4760 C.2   117  GLN117      0.2608
     16  OE1       23.5730   -6.2060   48.9940 O.2   117  GLN117     -0.2717
     17  NE2       21.9400   -7.6830   48.6140 N.am  117  GLN117     -0.0878
     18  N         25.4640   -8.8100   43.5460 N.am  118  LEU118     -0.1964
     19  CA        25.5630   -8.6410   42.1160 C.3   118  LEU118      0.1713
     20  C         24.3110   -7.9650   41.5660 C.2   118  LEU118      0.2458
     21  O         23.2820   -8.0170   42.2210 O.2   118  LEU118     -0.2730
     22  CB        25.7760   -9.9940   41.4740 C.3   118  LEU118      0.0310
     23  CG        27.0710  -10.7270   41.8390 C.3   118  LEU118      0.0022
     24  CD1       27.1580  -11.9420   40.9370 C.3   118  LEU118      0.0001
     25  CD2       28.3100   -9.8660   41.6710 C.3   118  LEU118      0.0001
     26  N         24.4090   -7.2970   40.3890 N.am  119  PRO119     -0.2727
     27  CA        23.2540   -6.6450   39.7420 C.3   119  PRO119      0.1402
     28  C         22.1200   -7.6180   39.4410 C.2   119  PRO119      0.2269
     29  O         22.3470   -8.6830   38.8430 O.2   119  PRO119     -0.2865
     30  CB        23.8090   -6.0990   38.4320 C.3   119  PRO119      0.0296
     31  CG        25.3190   -6.0630   38.5990 C.3   119  PRO119      0.0237
     32  CD        25.6710   -7.0750   39.6510 C.3   119  PRO119      0.0939
     33  N         21.4610  -10.0140   36.1570 N.3   122  ASP122     -0.1239
     34  CA        22.5330   -9.8050   35.2150 C.3   122  ASP122      0.1674
     35  C         23.3240  -11.0940   35.0680 C.2   122  ASP122      0.2266
     36  O         24.2040  -11.3440   35.8660 O.2   122  ASP122     -0.2867
     37  CB        23.4330   -8.6630   35.6810 C.3   122  ASP122      0.1410
     38  CG        24.3670   -8.1910   34.5890 C.2   122  ASP122      0.3668
     39  OD1       24.8950   -9.0400   33.8240 O.co2 122  ASP122     -0.2456
     40  OD2       24.5510   -6.9630   34.4640 O.co2 122  ASP122     -0.2456
     41  N         27.1850  -10.6500   34.7300 N.3   125  ALA125     -0.1245
     42  CA        27.8640  -10.3210   35.9880 C.3   125  ALA125      0.1562
     43  C         28.0000  -11.5550   36.8390 C.2   125  ALA125      0.2260
     44  O         28.9950  -11.7310   37.5400 O.2   125  ALA125     -0.2867
     45  CB        27.0960   -9.2540   36.7440 C.3   125  ALA125      0.0290
     46  N         30.9190  -13.5230   35.4160 N.3   128  GLU128     -0.1182
     47  CA        32.2130  -12.9310   35.8470 C.3   128  GLU128      0.1915
     48  C         32.5590  -13.2730   37.2910 C.2   128  GLU128      0.2634
     49  O         33.7040  -13.5840   37.6300 O.2   128  GLU128     -0.2714
     50  CB        32.1810  -11.3700   35.6310 C.2   128  GLU128      0.0085
     51  CG        33.4480  -10.5920   36.0690 C.2   128  GLU128      0.0835
     52  CD        33.2960   -9.0540   36.2060 C.2   128  GLU128      0.3877
     53  OE1       32.1900   -8.4850   36.1000 O.co2 128  GLU128     -0.2406
     54  OE2       34.3160   -8.3820   36.4510 O.co2 128  GLU128     -0.2406
     55  N         31.5840  -13.1800   38.1790 N.am  129  ALA129     -0.1977
     56  CA        31.8310  -13.5020   39.5780 C.3   129  ALA129      0.1597
     57  C         32.1970  -14.9860   39.7770 C.2   129  ALA129      0.2287
     58  O         33.1610  -15.2950   40.4820 O.2   129  ALA129     -0.2864
     59  CB        30.6300  -13.1210   40.4150 C.3   129  ALA129      0.0319
     60  N         35.7910  -15.1440   40.9950 N.3   133  LYS133     -0.1245
     61  CA        35.8050  -14.9970   42.4480 C.3   133  LYS133      0.1561
     62  C         35.6720  -16.3200   43.1810 C.2   133  LYS133      0.2260
     63  O         36.3640  -16.5770   44.1510 O.2   133  LYS133     -0.2867
     64  CB        34.6700  -14.0890   42.8840 C.3   133  LYS133      0.0271
     65  CG        34.7110  -12.7060   42.3100 C.3   133  LYS133      0.0035
     66  CD        35.7560  -11.8660   43.0130 C.3   133  LYS133      0.0206
     67  CE        35.6760  -10.4370   42.4950 C.3   133  LYS133      0.1093
     68  NZ        37.0480   -9.9660   42.1890 N.3   133  LYS133     -0.1314
     69  N         28.1930  -13.1370   47.2840 N.3   216  TYR216     -0.1241
     70  CA        29.3580  -13.9030   47.7530 C.3   216  TYR216      0.1605
     71  C         30.1760  -13.1270   48.8090 C.2   216  TYR216      0.2264
     72  O         30.2730  -11.8690   48.7850 O.2   216  TYR216     -0.2867
     73  CB        30.2430  -14.3680   46.5790 C.3   216  TYR216      0.0534
     74  CG        30.9140  -13.2570   45.8240 C.ar  216  TYR216     -0.0201
     75  CD1       30.2430  -12.5780   44.8320 C.ar  216  TYR216     -0.0009
     76  CD2       32.2400  -12.8900   46.0910 C.ar  216  TYR216     -0.0009
     77  CE1       30.8510  -11.5470   44.1370 C.ar  216  TYR216      0.0417
     78  CE2       32.8520  -11.8680   45.3930 C.ar  216  TYR216      0.0417
     79  CZ        32.1440  -11.1870   44.4280 C.ar  216  TYR216      0.1957
     80  OH        32.7100  -10.1740   43.6910 O.3   216  TYR216     -0.2866
@<TRIPOS>BOND
     1    39    38   ar
     2    40    38   ar
     3    38    37    1
     4    41    42    1
     5    35    34    1
     6    35    36    2
     7    34    37    1
     8    34    33    1
     9    46    47    1
    10    50    47    1
    11    50    51    2
    12    47    48    1
    13    42    45    1
    14    42    43    1
    15    51    52    1
    16    53    52   ar
    17    52    54   ar
    18    43    44    2
    19    48    49    2
    20    48    55   am
    21    55    56    1
    22    30    31    1
    23    30    27    1
    24    31    32    1
    25    29    28    2
    26    28    27    1
    27    56    57    1
    28    56    59    1
    29    32    26    1
    30    27    26    1
    31    57    58    2
    32    26    20   am
    33    24    23    1
    34    60    61    1
    35    22    23    1
    36    22    19    1
    37    20    19    1
    38    20    21    2
    39    25    23    1
    40    19    18    1
    41    68    67    1
    42    65    64    1
    43    65    66    1
    44    61    64    1
    45    61    62    1
    46    67    66    1
    47    62    63    2
    48    18    11   am
    49    80    79    1
    50    12    11    2
    51    77    79   ar
    52    77    75   ar
    53    11    10    1
    54    79    78   ar
    55    75    74   ar
    56     7     5    1
    57    78    76   ar
    58    74    76   ar
    59    74    73    1
    60    10    13    1
    61    10     9    1
    62     5     6    1
    63     5     2    1
    64    13    14    1
    65    73    70    1
    66     9     3   am
    67     6     8    1
    68     4     3    2
    69     3     2    1
    70    69    70    1
    71     2     1    1
    72    14    15    1
    73    70    71    1
    74    15    17   am
    75    15    16    2
    76    72    71    2
