@<TRIPOS>MOLECULE
tmp/4bpvE00.pdb
 139 134 0 0 0
SMALL
GASTEIGER

@<TRIPOS>ATOM
      1  N         18.5790    3.2180   -2.8120 N.3    20  GLN20      -0.1245
      2  CA        18.3750    4.3080   -3.7590 C.3    20  GLN20       0.1566
      3  C         19.6240    5.1280   -4.0670 C.2    20  GLN20       0.2260
      4  O         19.6360    5.8610   -5.0580 O.2    20  GLN20      -0.2867
      5  CB        17.2640    5.2470   -3.2790 C.3    20  GLN20       0.0367
      6  CG        17.5850    6.0510   -2.0280 C.3    20  GLN20       0.0905
      7  CD        16.4250    6.9300   -1.6220 C.2    20  GLN20       0.2608
      8  OE1       15.3820    6.4470   -1.1910 O.2    20  GLN20      -0.2717
      9  NE2       16.5840    8.2260   -1.8150 N.am   20  GLN20      -0.0878
     10  N         17.1060   10.7780   -5.6690 N.3    24  GLY24      -0.1225
     11  CA        15.9130   11.0060   -4.8480 C.3    24  GLY24       0.1811
     12  C         14.7070   10.2540   -5.3520 C.2    24  GLY24       0.2280
     13  O         13.6770   10.8720   -5.6700 O.2    24  GLY24      -0.2866
     14  N         12.9480    7.7280   -3.7070 N.3    26  CYS26      -0.1221
     15  CA        12.1720    7.0950   -2.6200 C.3    26  CYS26       0.1808
     16  C         10.7430    6.8100   -2.9980 C.2    26  CYS26       0.2601
     17  O         10.2470    5.7090   -2.7780 O.2    26  CYS26      -0.2717
     18  CB        12.2010    7.9480   -1.3370 C.3    26  CYS26       0.0970
     19  SG        11.5840    9.6190   -1.5170 S.3    26  CYS26      -0.0800
     20  N         10.0980    7.8000   -3.5940 N.am   27  TRP27      -0.1976
     21  CA         8.7160    7.7080   -4.0850 C.3    27  TRP27       0.1640
     22  C          8.5160    6.5780   -5.1070 C.2    27  TRP27       0.2290
     23  O          7.4630    5.9520   -5.1700 O.2    27  TRP27      -0.2864
     24  CB         8.2850    9.0600   -4.7180 C.3    27  TRP27       0.0576
     25  CG         9.1690    9.4460   -5.8840 C.ar   27  TRP27       0.0006
     26  CD1       10.3800   10.0810   -5.8120 C.ar   27  TRP27       0.0946
     27  CD2        8.9410    9.1880   -7.2880 C.ar   27  TRP27       0.0152
     28  NE1       10.9140   10.2250   -7.0610 N.ar   27  TRP27      -0.2442
     29  CE2       10.0550    9.7060   -7.9890 C.ar   27  TRP27       0.0810
     30  CE3        7.9200    8.5710   -8.0110 C.ar   27  TRP27       0.0012
     31  CZ2       10.1790    9.6230   -9.3930 C.ar   27  TRP27       0.0191
     32  CZ3        8.0380    8.4880   -9.4150 C.ar   27  TRP27       0.0001
     33  CH2        9.1730    9.0180  -10.0790 C.ar   27  TRP27       0.0015
     34  N          4.2610   15.8220  -12.6490 N.3    64  GLY64      -0.1225
     35  CA         4.9310   16.6210  -11.6100 C.3    64  GLY64       0.1811
     36  C          5.9960   15.8730  -10.8370 C.2    64  GLY64       0.2280
     37  O          6.6170   16.4230   -9.9320 O.2    64  GLY64      -0.2866
     38  N          9.8120   14.4670  -10.6400 N.3    66  LYS66      -0.1245
     39  CA        11.0280   15.0760  -11.1180 C.3    66  LYS66       0.1561
     40  C         12.1740   14.1110  -11.1300 C.2    66  LYS66       0.2260
     41  O         13.3320   14.5070  -10.9900 O.2    66  LYS66      -0.2867
     42  CB        11.3570   16.3240  -10.2850 C.3    66  LYS66       0.0271
     43  CG        10.2000   17.3230  -10.2620 C.3    66  LYS66       0.0035
     44  CD        10.5210   18.5690   -9.4580 C.3    66  LYS66       0.0206
     45  CE        10.5610   18.2840   -7.9640 C.3    66  LYS66       0.1093
     46  NZ        11.5900   19.1300   -7.3050 N.3    66  LYS66      -0.1314
     47  N         15.0410   14.0580   -8.5790 N.3    69  GLY69      -0.1210
     48  CA        14.6920   15.2120   -7.7490 C.3    69  GLY69       0.1956
     49  C         13.4540   15.0100   -6.8780 C.2    69  GLY69       0.2612
     50  O         13.0310   15.9300   -6.1990 O.2    69  GLY69      -0.2717
     51  N         12.8570   13.8170   -6.9210 N.am   70  GLY70      -0.1942
     52  CA        11.6870   13.4890   -6.1000 C.3    70  GLY70       0.2014
     53  C         10.4020   13.4280   -6.8810 C.2    70  GLY70       0.2639
     54  O         10.3440   13.8070   -8.0740 O.2    70  GLY70      -0.2714
     55  N          9.3550   12.9450   -6.2240 N.am   71  GLY71      -0.1939
     56  CA         8.0620   12.8800   -6.8430 C.3    71  GLY71       0.2014
     57  C          6.9970   12.3130   -5.9250 C.2    71  GLY71       0.2639
     58  O          7.1570   12.3160   -4.7030 O.2    71  GLY71      -0.2714
     59  N          5.9290   11.8260   -6.5290 N.am   72  TYR72      -0.1959
     60  CA         4.7040   11.4460   -5.8320 C.3    72  TYR72       0.1771
     61  C          4.2730   10.0400   -6.1620 C.2    72  TYR72       0.2619
     62  O          4.2080    9.6560   -7.3370 O.2    72  TYR72      -0.2715
     63  CB         3.5670   12.3850   -6.2090 C.3    72  TYR72       0.0574
     64  CG         3.8530   13.8160   -5.8210 C.ar   72  TYR72      -0.0198
     65  CD1        3.5820   14.2720   -4.5390 C.ar   72  TYR72      -0.0009
     66  CD2        4.4080   14.7160   -6.7380 C.ar   72  TYR72      -0.0009
     67  CE1        3.8510   15.5740   -4.1760 C.ar   72  TYR72       0.0417
     68  CE2        4.6720   16.0230   -6.3760 C.ar   72  TYR72       0.0417
     69  CZ         4.3820   16.4420   -5.0910 C.ar   72  TYR72       0.1957
     70  OH         4.6380   17.7280   -4.7220 O.3    72  TYR72      -0.2866
     71  N          3.9610    9.2750   -5.1180 N.am   73  MET73      -0.1963
     72  CA         3.5620    7.8990   -5.2870 C.3    73  MET73       0.1736
     73  C          2.2620    7.8320   -6.0730 C.2    73  MET73       0.2617
     74  O          2.1470    6.9920   -6.9580 O.2    73  MET73      -0.2715
     75  CB         3.4620    7.1520   -3.9410 C.3    73  MET73       0.0427
     76  CG         4.8110    6.9620   -3.2750 C.3    73  MET73       0.0599
     77  SD         5.3880    8.3830   -2.3270 S.3    73  MET73      -0.1393
     78  CE         4.3160    8.2110   -0.8850 C.3    73  MET73       0.0692
     79  N          1.3090    8.7210   -5.7850 N.am   74  THR74      -0.1951
     80  CA         0.0280    8.7420   -6.5210 C.3    74  THR74       0.1897
     81  C          0.2580    9.0130   -8.0190 C.2    74  THR74       0.2313
     82  O         -0.3040    8.3380   -8.8730 O.2    74  THR74      -0.2863
     83  CB        -0.9130    9.8260   -5.9840 C.3    74  THR74       0.1794
     84  OG1       -0.1880   11.0510   -5.8890 O.3    74  THR74      -0.2208
     85  CG2       -1.4780    9.4230   -4.5960 C.3    74  THR74       0.0378
     86  N         -6.5510    6.7100   -2.5800 N.3   117  GLN117     -0.1245
     87  CA        -6.0680    7.5430   -1.5000 C.3   117  GLN117      0.1566
     88  C         -6.9450    7.3930   -0.2540 C.2   117  GLN117      0.2260
     89  O         -8.1560    7.2780   -0.3420 O.2   117  GLN117     -0.2867
     90  CB        -6.0580    8.9950   -1.9300 C.3   117  GLN117      0.0367
     91  CG        -5.0200    9.2570   -2.9950 C.3   117  GLN117      0.0905
     92  CD        -5.0280   10.6960   -3.4330 C.2   117  GLN117      0.2608
     93  OE1       -5.8940   11.1170   -4.1860 O.2   117  GLN117     -0.2717
     94  NE2       -4.0720   11.4570   -2.9540 N.am  117  GLN117     -0.0878
     95  N          3.8250    8.8790    2.8730 N.3   139  GLY139     -0.1225
     96  CA         4.8670    9.8860    3.1250 C.3   139  GLY139      0.1811
     97  C          5.1570   10.1220    4.6300 C.2   139  GLY139      0.2280
     98  O          4.2360   10.2500    5.4380 O.2   139  GLY139     -0.2866
     99  N          6.0070   16.0470    5.7610 N.3   164  VAL164     -0.1231
    100  CA         6.5830   14.8420    5.1710 C.3   164  VAL164      0.1692
    101  C          7.4990   15.2190    3.9840 C.2   164  VAL164      0.2592
    102  O          7.2470   16.2210    3.2930 O.2   164  VAL164     -0.2718
    103  CB         5.4840   13.8410    4.7450 C.3   164  VAL164      0.0266
    104  CG1        4.5430   13.4910    5.9110 C.3   164  VAL164      0.0020
    105  CG2        4.6800   14.3790    3.5830 C.3   164  VAL164      0.0020
    106  N          8.5550   14.4200    3.7880 N.am  165  ASN165     -0.1960
    107  CA         9.6000   14.6580    2.7800 C.3   165  ASN165      0.1819
    108  C         10.1690   13.3780    2.1770 C.2   165  ASN165      0.2621
    109  O         11.1360   13.4210    1.4060 O.2   165  ASN165     -0.2715
    110  CB        10.7590   15.4500    3.4180 C.3   165  ASN165      0.1195
    111  CG        11.1920   14.8830    4.7790 C.2   165  ASN165      0.2630
    112  OD1       11.5110   13.7020    4.8970 O.2   165  ASN165     -0.2716
    113  ND2       11.2140   15.7390    5.8140 N.am  165  ASN165     -0.0877
    114  N          9.5730   12.2370    2.5170 N.am  166  HIS166     -0.1959
    115  CA        10.1590   10.9550    2.1800 C.3   166  HIS166      0.1787
    116  C          9.1060    9.8580    2.0420 C.2   166  HIS166      0.2620
    117  O          8.3600    9.5620    2.9710 O.2   166  HIS166     -0.2715
    118  CB        11.2360   10.6040    3.2000 C.3   166  HIS166      0.0785
    119  CG        11.9890    9.3470    2.8970 C.ar  166  HIS166      0.0821
    120  ND1       12.9360    9.2630    1.8980 N.ar  166  HIS166     -0.2267
    121  CD2       11.9540    8.1250    3.4860 C.ar  166  HIS166      0.1154
    122  CE1       13.4470    8.0420    1.8800 C.ar  166  HIS166      0.1986
    123  NE2       12.8560    7.3270    2.8230 N.ar  166  HIS166     -0.2212
    124  N          9.0650    9.2500    0.8560 N.am  167  GLY167     -0.1954
    125  CA         8.1270    8.1680    0.5540 C.3   167  GLY167      0.1869
    126  C          8.6730    6.8100    0.9720 C.2   167  GLY167      0.2309
    127  O          9.8300    6.5030    0.7270 O.2   167  GLY167     -0.2863
    128  N         -0.6220   11.1400    3.8360 N.3   213  TYR213     -0.1241
    129  CA        -0.7360   10.9750    2.3790 C.3   213  TYR213      0.1605
    130  C         -0.5310    9.5090    2.0020 C.2   213  TYR213      0.2264
    131  O          0.5400    9.1140    1.5640 O.2   213  TYR213     -0.2867
    132  CB         0.2900   11.8870    1.6980 C.3   213  TYR213      0.0534
    133  CG         0.0910   13.3490    2.0570 C.ar  213  TYR213     -0.0201
    134  CD1       -1.0720   14.0210    1.6960 C.ar  213  TYR213     -0.0009
    135  CD2        1.0430   14.0430    2.7840 C.ar  213  TYR213     -0.0009
    136  CE1       -1.2690   15.3500    2.0370 C.ar  213  TYR213      0.0417
    137  CE2        0.8590   15.3710    3.1220 C.ar  213  TYR213      0.0417
    138  CZ        -0.2950   16.0140    2.7430 C.ar  213  TYR213      0.1957
    139  OH        -0.4870   17.3220    3.0840 O.3   213  TYR213     -0.2866
@<TRIPOS>BOND
     1    34    35    1
     2    35    36    1
     3    40    39    1
     4    40    41    2
     5    39    38    1
     6    39    42    1
     7    36    37    2
     8    42    43    1
     9    43    44    1
    10    33    32   ar
    11    33    31   ar
    12    44    45    1
    13    32    30   ar
    14    31    29   ar
    15    82    81    2
    16    47    48    1
    17    54    53    2
    18    81    80    1
    19    30    27   ar
    20    29    27   ar
    21    29    28   ar
    22    45    46    1
    23    48    49    1
    24    62    61    2
    25    27    25   ar
    26    28    26   ar
    27    74    73    2
    28    51    49   am
    29    51    52    1
    30    53    55   am
    31    53    52    1
    32    49    50    2
    33    56    55    1
    34    56    57    1
    35    66    68   ar
    36    66    64   ar
    37    59    57   am
    38    59    60    1
    39    80    83    1
    40    80    79    1
    41    68    69   ar
    42    63    60    1
    43    63    64    1
    44    61    60    1
    45    61    71   am
    46    73    79   am
    47    73    72    1
    48    83    84    1
    49    83    85    1
    50    57    58    2
    51    25    26   ar
    52    25    24    1
    53    64    65   ar
    54    13    12    2
    55    10    11    1
    56    12    11    1
    57    72    71    1
    58    72    75    1
    59    23    22    2
    60    22    21    1
    61    69    70    1
    62    69    67   ar
    63     4     3    2
    64    24    21    1
    65    65    67   ar
    66    93    92    2
    67    21    20    1
    68     3     2    1
    69    75    76    1
    70     2     5    1
    71     2     1    1
    72    14    15    1
    73    20    16   am
    74    92    91    1
    75    92    94   am
    76     5     6    1
    77    76    77    1
    78    16    17    2
    79    16    15    1
    80    91    90    1
    81    15    18    1
    82    86    87    1
    83    77    78    1
    84     6     7    1
    85    90    87    1
    86     9     7   am
    87     7     8    2
    88    19    18    1
    89    87    88    1
    90    89    88    2
    91   125   124    1
    92   125   126    1
    93   127   126    2
    94   124   116   am
    95   109   108    2
    96   131   130    2
    97   134   136   ar
    98   134   133   ar
    99   132   133    1
   100   132   129    1
   101   122   120   ar
   102   122   123   ar
   103   120   119   ar
   104   130   129    1
   105   136   138   ar
   106   116   115    1
   107   116   117    2
   108   133   135   ar
   109   108   114   am
   110   108   107    1
   111   115   114    1
   112   115   118    1
   113   129   128    1
   114   138   139    1
   115   138   137   ar
   116   107   110    1
   117   107   106    1
   118   135   137   ar
   119   123   121   ar
   120    95    96    1
   121   119   118    1
   122   119   121   ar
   123    96    97    1
   124   102   101    2
   125   110   111    1
   126   105   103    1
   127   106   101   am
   128   101   100    1
   129    97    98    2
   130   103   100    1
   131   103   104    1
   132   111   112    2
   133   111   113   am
   134   100    99    1
