@<TRIPOS>MOLECULE
tmp/4bpwA00.pdb
 138 131 0 0 0
SMALL
GASTEIGER

@<TRIPOS>ATOM
      1  N         39.1770   80.2340  -13.1260 N.3    51  TYR51      -0.1241
      2  CA        38.4860   78.9750  -13.3410 C.3    51  TYR51       0.1605
      3  C         36.9990   79.2510  -13.4840 C.2    51  TYR51       0.2264
      4  O         36.4170   79.9510  -12.6560 O.2    51  TYR51      -0.2867
      5  CB        38.7400   78.0210  -12.1720 C.3    51  TYR51       0.0534
      6  CG        37.9900   76.7150  -12.2640 C.ar   51  TYR51      -0.0201
      7  CD1       38.5000   75.6720  -13.0250 C.ar   51  TYR51      -0.0009
      8  CD2       36.7750   76.5260  -11.6210 C.ar   51  TYR51      -0.0009
      9  CE1       37.8370   74.4670  -13.1320 C.ar   51  TYR51       0.0417
     10  CE2       36.0960   75.3200  -11.7260 C.ar   51  TYR51       0.0417
     11  CZ        36.6350   74.2930  -12.4850 C.ar   51  TYR51       0.1957
     12  OH        35.9820   73.0850  -12.6040 O.3    51  TYR51      -0.2866
     13  N         37.8640   71.0500  -19.2270 N.3    76  ASP76      -0.1239
     14  CA        37.2900   69.8900  -18.5330 C.3    76  ASP76       0.1674
     15  C         35.8470   69.6300  -18.9760 C.2    76  ASP76       0.2266
     16  O         35.0680   70.5630  -19.1420 O.2    76  ASP76      -0.2867
     17  CB        37.3320   70.0810  -17.0100 C.3    76  ASP76       0.1410
     18  CG        38.7420   70.3260  -16.4770 C.2    76  ASP76       0.3668
     19  OD1       39.7090   69.7810  -17.0550 O.co2  76  ASP76      -0.2456
     20  OD2       38.8860   71.0580  -15.4710 O.co2  76  ASP76      -0.2456
     21  N         40.4110   57.7840  -13.8150 N.3   106  ASP106     -0.1239
     22  CA        41.6860   58.4800  -13.7840 C.3   106  ASP106      0.1674
     23  C         42.6960   57.5990  -13.0570 C.2   106  ASP106      0.2266
     24  O         42.4180   57.1010  -11.9700 O.2   106  ASP106     -0.2867
     25  CB        41.5460   59.8520  -13.1260 C.3   106  ASP106      0.1410
     26  CG        42.8690   60.5990  -13.0510 C.2   106  ASP106      0.3668
     27  OD1       43.4330   60.9200  -14.1100 O.co2 106  ASP106     -0.2456
     28  OD2       43.3310   60.8960  -11.9300 O.co2 106  ASP106     -0.2456
     29  N         46.7720   57.5560  -11.8750 N.3   108  ASP108     -0.1239
     30  CA        47.9330   58.4350  -11.6830 C.3   108  ASP108      0.1674
     31  C         49.1640   57.6440  -11.2800 C.2   108  ASP108      0.2266
     32  O         49.1250   56.8730  -10.3240 O.2   108  ASP108     -0.2867
     33  CB        47.6810   59.4790  -10.5890 C.3   108  ASP108      0.1410
     34  CG        46.4190   60.2920  -10.8120 C.2   108  ASP108      0.3668
     35  OD1       46.1790   60.7430  -11.9520 O.co2 108  ASP108     -0.2456
     36  OD2       45.6660   60.4870   -9.8310 O.co2 108  ASP108     -0.2456
     37  N         46.9230   61.4010  -20.2460 N.3   157  SER157     -0.1217
     38  CA        46.4850   62.5700  -19.4780 C.3   157  SER157      0.1889
     39  C         47.4000   63.7670  -19.7060 C.2   157  SER157      0.2288
     40  O         47.0870   64.8760  -19.2830 O.2   157  SER157     -0.2866
     41  CB        46.4110   62.2490  -17.9840 C.3   157  SER157      0.2089
     42  OG        47.7030   62.2010  -17.4050 O.3   157  SER157     -0.2183
     43  N         50.8030   63.8400  -18.8230 N.3   159  ARG159     -0.1231
     44  CA        51.9950   63.8450  -17.9790 C.3   159  ARG159      0.1694
     45  C         52.1160   62.5610  -17.1670 C.2   159  ARG159      0.2592
     46  O         53.0600   61.7920  -17.3540 O.2   159  ARG159     -0.2718
     47  CB        52.0000   65.0590  -17.0500 C.3   159  ARG159      0.0321
     48  CG        53.3080   65.2270  -16.2940 C.3   159  ARG159      0.0489
     49  CD        53.2300   66.3550  -15.3030 C.3   159  ARG159      0.2205
     50  NE        54.5600   66.8060  -14.9120 N.pl3 159  ARG159     -0.0865
     51  CZ        54.7890   67.9090  -14.2050 C.cat 159  ARG159      0.5346
     52  NH1       53.7750   68.6790  -13.8080 N.pl3 159  ARG159      0.1354
     53  NH2       56.0320   68.2540  -13.9070 N.pl3 159  ARG159      0.1354
     54  N         51.1610   62.3260  -16.2700 N.am  160  ARG160     -0.1966
     55  CA        51.3350   61.2980  -15.2460 C.3   160  ARG160      0.1732
     56  C         50.5230   60.0280  -15.4360 C.2   160  ARG160      0.2655
     57  O         50.7140   59.0750  -14.6890 O.2   160  ARG160     -0.2711
     58  CB        50.9760   61.8510  -13.8700 C.3   160  ARG160      0.0348
     59  CG        52.0170   62.7330  -13.2190 C.3   160  ARG160      0.0492
     60  CD        51.3100   63.7130  -12.3140 C.3   160  ARG160      0.2205
     61  NE        50.2980   63.0050  -11.5310 N.pl3 160  ARG160     -0.0865
     62  CZ        49.2500   63.5780  -10.9510 C.cat 160  ARG160      0.5346
     63  NH1       49.0540   64.8870  -11.0560 N.pl3 160  ARG160      0.1354
     64  NH2       48.3900   62.8330  -10.2700 N.pl3 160  ARG160      0.1354
     65  N         49.6160   59.9860  -16.4030 N.am  161  GLY161     -0.1730
     66  CA        48.7750   58.8090  -16.5180 C.2   161  GLY161      0.1340
     67  C         47.8250   58.7610  -17.6910 C.2   161  GLY161      0.2521
     68  O         48.0500   59.4070  -18.7120 O.2   161  GLY161     -0.2816
     69  N         43.4280   58.3280  -18.9000 N.3   163  HIS163     -0.1241
     70  CA        42.0180   58.3520  -18.5290 C.3   163  HIS163      0.1621
     71  C         41.3050   57.3190  -19.3860 C.2   163  HIS163      0.2264
     72  O         41.8100   56.9520  -20.4420 O.2   163  HIS163     -0.2867
     73  CB        41.3710   59.7200  -18.7250 C.3   163  HIS163      0.0745
     74  CG        42.0450   60.8260  -17.9780 C.ar  163  HIS163      0.0817
     75  ND1       41.7800   62.1550  -18.2230 N.ar  163  HIS163     -0.2268
     76  CD2       43.0410   60.8040  -17.0630 C.ar  163  HIS163      0.1154
     77  CE1       42.5440   62.9040  -17.4500 C.ar  163  HIS163      0.1986
     78  NE2       43.3210   62.1090  -16.7380 N.ar  163  HIS163     -0.2212
     79  N         41.3940   56.1960   -8.3000 N.3   296  ASP296     -0.1239
     80  CA        40.7980   57.2250   -7.4630 C.3   296  ASP296      0.1674
     81  C         39.2800   57.0490   -7.4700 C.2   296  ASP296      0.2266
     82  O         38.6300   57.4000   -8.4500 O.2   296  ASP296     -0.2867
     83  CB        41.1850   58.6150   -7.9880 C.3   296  ASP296      0.1410
     84  CG        40.8010   59.7380   -7.0360 C.2   296  ASP296      0.3668
     85  OD1       40.0890   59.4830   -6.0380 O.co2 296  ASP296     -0.2456
     86  OD2       41.2080   60.8890   -7.3000 O.co2 296  ASP296     -0.2456
     87  N         36.9000   60.0680   -8.6490 N.3   299  VAL299     -0.1245
     88  CA        36.7580   60.4720  -10.0390 C.3   299  VAL299      0.1561
     89  C         35.6010   59.7190  -10.6940 C.2   299  VAL299      0.2260
     90  O         34.8740   60.2850  -11.5100 O.2   299  VAL299     -0.2867
     91  CB        38.0570   60.2200  -10.8330 C.3   299  VAL299      0.0252
     92  CG1       37.8640   60.5400  -12.3100 C.3   299  VAL299      0.0019
     93  CG2       39.1870   61.0640  -10.2720 C.3   299  VAL299      0.0019
     94  N         31.2940   64.8000  -12.0660 N.3   305  HIS305     -0.1226
     95  CA        32.7350   65.0030  -12.0100 C.3   305  HIS305      0.1752
     96  C         33.2510   65.5230  -13.3500 C.2   305  HIS305      0.2596
     97  O         32.9150   64.9980  -14.4130 O.2   305  HIS305     -0.2718
     98  CB        33.4750   63.7210  -11.6290 C.3   305  HIS305      0.0759
     99  CG        34.9190   63.9490  -11.3080 C.ar  305  HIS305      0.0818
    100  ND1       35.3300   64.5050  -10.1160 N.ar  305  HIS305     -0.2268
    101  CD2       36.0440   63.7400  -12.0330 C.ar  305  HIS305      0.1154
    102  CE1       36.6470   64.6050  -10.1100 C.ar  305  HIS305      0.1986
    103  NE2       37.1050   64.1500  -11.2620 N.ar  305  HIS305     -0.2212
    104  N         34.0780   66.5550  -13.2790 N.am  306  LEU306     -0.1966
    105  CA        34.6510   67.1880  -14.4530 C.3   306  LEU306      0.1728
    106  C         36.0130   66.5820  -14.7480 C.2   306  LEU306      0.2616
    107  O         36.9040   66.7340  -13.9460 O.2   306  LEU306     -0.2715
    108  CB        34.8130   68.6900  -14.1950 C.3   306  LEU306      0.0311
    109  CG        33.5810   69.5910  -14.2080 C.3   306  LEU306      0.0022
    110  CD1       33.8150   70.8090  -13.3320 C.3   306  LEU306      0.0001
    111  CD2       33.2930   70.0210  -15.6270 C.3   306  LEU306      0.0001
    112  N         36.1970   65.9330  -15.8920 N.am  307  LEU307     -0.1963
    113  CA        37.4920   65.3310  -16.2260 C.3   307  LEU307      0.1728
    114  C         38.1240   66.0040  -17.4420 C.2   307  LEU307      0.2616
    115  O         37.4330   66.3940  -18.3830 O.2   307  LEU307     -0.2715
    116  CB        37.3400   63.8220  -16.4770 C.3   307  LEU307      0.0311
    117  CG        38.6180   63.0340  -16.8130 C.3   307  LEU307      0.0022
    118  CD1       39.5830   62.9990  -15.6400 C.3   307  LEU307      0.0001
    119  CD2       38.2720   61.6160  -17.2170 C.3   307  LEU307      0.0001
    120  N         39.4460   66.1310  -17.4010 N.am  308  LYS308     -0.1977
    121  CA        40.2250   66.7160  -18.4900 C.3   308  LYS308      0.1596
    122  C         39.8140   66.1600  -19.8460 C.2   308  LYS308      0.2287
    123  O         39.8130   64.9480  -20.0590 O.2   308  LYS308     -0.2864
    124  CB        41.7110   66.4670  -18.2440 C.3   308  LYS308      0.0298
    125  CG        42.6530   67.0660  -19.2600 C.3   308  LYS308      0.0038
    126  CD        44.0870   66.7240  -18.9030 C.3   308  LYS308      0.0206
    127  CE        45.0730   67.5950  -19.6560 C.3   308  LYS308      0.1093
    128  NZ        46.4810   67.2450  -19.3410 N.3   308  LYS308     -0.1314
    129  N         48.4190   70.0380  -22.1410 N.3   314  HIS314     -0.1241
    130  CA        48.9970   70.0570  -20.8080 C.3   314  HIS314      0.1621
    131  C         49.8560   71.3200  -20.6130 C.2   314  HIS314      0.2264
    132  O         50.8540   71.4990  -21.3110 O.2   314  HIS314     -0.2867
    133  CB        49.8250   68.7970  -20.5710 C.3   314  HIS314      0.0745
    134  CG        50.1230   68.5460  -19.1290 C.ar  314  HIS314      0.0817
    135  ND1       51.0390   69.2920  -18.4230 N.ar  314  HIS314     -0.2268
    136  CD2       49.5930   67.6670  -18.2460 C.ar  314  HIS314      0.1154
    137  CE1       51.0820   68.8690  -17.1740 C.ar  314  HIS314      0.1986
    138  NE2       50.2130   67.8840  -17.0390 N.ar  314  HIS314     -0.2212
@<TRIPOS>BOND
     1   129   130    1
     2   132   131    2
     3   130   131    1
     4   130   133    1
     5   133   134    1
     6    72    71    2
     7    37    38    1
     8   123   122    2
     9   122   121    1
    10    39    38    1
    11    39    40    2
    12   127   128    1
    13   127   126    1
    14    38    41    1
    15    71    70    1
    16   125   126    1
    17   125   124    1
    18    13    14    1
    19    16    15    2
    20   134   135   ar
    21   134   136   ar
    22    15    14    1
    23    69    70    1
    24    43    44    1
    25    73    70    1
    26    73    74    1
    27    68    67    2
    28    14    17    1
    29   121   124    1
    30   121   120    1
    31   135   137   ar
    32   115   114    2
    33   136   138   ar
    34    75    74   ar
    35    75    77   ar
    36    41    42    1
    37    44    45    1
    38    44    47    1
    39    74    76   ar
    40    67    66    1
    41    77    78   ar
    42   114   120   am
    43   114   113    1
    44    46    45    2
    45   119   117    1
    46   137   138   ar
    47    45    54   am
    48    76    78   ar
    49    19    18   ar
    50    47    48    1
    51    17    18    1
    52   117   116    1
    53   117   118    1
    54    66    65    2
    55   116   113    1
    56    18    20   ar
    57    65    56    1
    58    48    49    1
    59    54    55    1
    60   113   112    1
    61   112   106   am
    62   111   109    1
    63    56    55    1
    64    56    57    2
    65    49    50    1
    66    55    58    1
    67    50    51    2
    68   106   105    1
    69   106   107    2
    70   105   108    1
    71   105   104    1
    72    97    96    2
    73   109   108    1
    74   109   110    1
    75    51    53    1
    76    51    52    1
    77    27    26   ar
    78    58    59    1
    79    21    22    1
    80    22    25    1
    81    22    23    1
    82     3     2    1
    83     3     4    2
    84    96   104   am
    85    96    95    1
    86     2     1    1
    87     2     5    1
    88    59    60    1
    89     9     7   ar
    90     9    11   ar
    91    25    26    1
    92    23    24    2
    93    26    28   ar
    94     7     6   ar
    95    12    11    1
    96    11    10   ar
    97    60    61    1
    98    92    91    1
    99     6     5    1
   100     6     8   ar
   101    94    95    1
   102   101    99   ar
   103   101   103   ar
   104    95    98    1
   105    35    34   ar
   106    29    30    1
   107    10     8   ar
   108    30    31    1
   109    30    33    1
   110    98    99    1
   111    61    62    2
   112    90    89    2
   113    99   100   ar
   114    31    32    2
   115   103   102   ar
   116    63    62    1
   117    62    64    1
   118    91    93    1
   119    91    88    1
   120    34    33    1
   121    34    36   ar
   122    89    88    1
   123   100   102   ar
   124    88    87    1
   125    82    81    2
   126    79    80    1
   127    83    80    1
   128    83    84    1
   129    81    80    1
   130    86    84   ar
   131    84    85   ar
