@<TRIPOS>MOLECULE
tmp/4bpzB00.pdb
 165 158 0 0 0
SMALL
GASTEIGER

@<TRIPOS>ATOM
      1  N          9.6470   -0.5400    8.5070 N.3    33  PRO33      -0.2116
      2  CA        10.2200    0.5110    7.6920 C.3    33  PRO33       0.1372
      3  C         11.0490    1.4630    8.5500 C.2    33  PRO33       0.2244
      4  O         11.8420    2.3060    8.0010 O.2    33  PRO33      -0.2868
      5  CB         8.9750    1.2960    7.2120 C.3    33  PRO33       0.0268
      6  CG         7.9570    1.0520    8.3330 C.3    33  PRO33       0.0207
      7  CD         8.2010   -0.4470    8.5750 C.3    33  PRO33       0.0892
      8  N          5.3760    2.5330   11.7140 N.3    39  HIS39      -0.1226
      9  CA         5.1450    3.9700   11.9800 C.3    39  HIS39       0.1752
     10  C          4.0930    4.1360   13.0220 C.2    39  HIS39       0.2596
     11  O          3.5380    3.1540   13.5730 O.2    39  HIS39      -0.2718
     12  CB         4.7130    4.6370   10.6560 C.3    39  HIS39       0.0759
     13  CG         5.7340    4.4780    9.5720 C.ar   39  HIS39       0.0818
     14  ND1        6.9760    5.0000    9.6800 N.ar   39  HIS39      -0.2268
     15  CD2        5.6810    3.8170    8.4040 C.ar   39  HIS39       0.1154
     16  CE1        7.6720    4.7080    8.5710 C.ar   39  HIS39       0.1986
     17  NE2        6.8930    3.9960    7.7800 N.ar   39  HIS39      -0.2212
     18  N          3.7670    5.4010   13.3450 N.am   40  ASN40      -0.1974
     19  CA         2.6290    5.7360   14.2120 C.3    40  ASN40       0.1688
     20  C          2.7530    5.1420   15.5970 C.2    40  ASN40       0.2292
     21  O          1.7350    4.9410   16.2600 O.2    40  ASN40      -0.2864
     22  CB         1.2820    5.3100   13.5640 C.3    40  ASN40       0.1181
     23  CG         1.1750    5.7530   12.1540 C.2    40  ASN40       0.2629
     24  OD1        1.3580    6.9670   11.8760 O.2    40  ASN40      -0.2716
     25  ND2        0.8750    4.8470   11.2520 N.am   40  ASN40      -0.0877
     26  N          3.2390    2.2050   16.3990 N.3    42  GLU42      -0.1245
     27  CA         2.5550    0.9310   16.4410 C.3    42  GLU42       0.1567
     28  C          3.4150   -0.1430   17.1010 C.2    42  GLU42       0.2260
     29  O          4.6440   -0.0940   17.0830 O.2    42  GLU42      -0.2867
     30  CB         2.1780    0.4620   14.9980 C.3    42  GLU42       0.0388
     31  CG         1.1320    1.3640   14.3600 C.3    42  GLU42       0.1160
     32  CD         1.1520    1.2360   12.8280 C.2    42  GLU42       0.3649
     33  OE1        1.6650    0.2280   12.2740 O.co2  42  GLU42      -0.2457
     34  OE2        0.5440    2.1370   12.1980 O.co2  42  GLU42      -0.2457
     35  N          0.0310   -7.5670    7.0670 N.3    82  ARG82      -0.1245
     36  CA        -0.1840   -6.3790    6.2240 C.3    82  ARG82       0.1563
     37  C         -0.0070   -6.7680    4.7420 C.2    82  ARG82       0.2260
     38  O          1.1790   -7.0330    4.3870 O.2    82  ARG82      -0.2867
     39  CB         0.8890   -5.3340    6.6340 C.3    82  ARG82       0.0307
     40  CG         0.8170   -4.0430    5.7980 C.3    82  ARG82       0.0489
     41  CD         1.6630   -2.9480    6.4780 C.3    82  ARG82       0.2205
     42  NE         1.9090   -1.7550    5.6320 N.pl3  82  ARG82      -0.0865
     43  CZ         1.9230   -0.4750    6.0480 C.cat  82  ARG82       0.5346
     44  NH1        1.5280   -0.0990    7.2790 N.pl3  82  ARG82       0.1354
     45  NH2        2.3130    0.4680    5.2440 N.pl3  82  ARG82       0.1354
     46  N         -6.3760   -1.7280   15.1960 N.3   107  TRP107     -0.1241
     47  CA        -6.4910   -0.5890   14.2480 C.3   107  TRP107      0.1605
     48  C         -6.4870   -1.2310   12.8360 C.2   107  TRP107      0.2264
     49  O         -5.4330   -1.3070   12.1910 O.2   107  TRP107     -0.2867
     50  CB        -5.3360    0.3360   14.5130 C.3   107  TRP107      0.0550
     51  CG        -5.1760    1.5040   13.5790 C.ar  107  TRP107      0.0003
     52  CD1       -6.0550    1.9260   12.5680 C.ar  107  TRP107      0.0946
     53  CD2       -4.0630    2.3960   13.5490 C.ar  107  TRP107      0.0152
     54  NE1       -5.5280    3.0330   11.9420 N.ar  107  TRP107     -0.2442
     55  CE2       -4.3180    3.3320   12.5370 C.ar  107  TRP107      0.0810
     56  CE3       -2.8730    2.5290   14.3360 C.ar  107  TRP107      0.0012
     57  CZ2       -3.4760    4.4010   12.2630 C.ar  107  TRP107      0.0191
     58  CZ3       -2.0030    3.5740   14.0700 C.ar  107  TRP107      0.0001
     59  CH2       -2.2950    4.5010   13.0470 C.ar  107  TRP107      0.0015
     60  N         -7.2950   -1.5140    8.8030 N.3   109  ALA109     -0.1245
     61  CA        -7.3390   -0.5690    7.6940 C.3   109  ALA109      0.1562
     62  C         -7.4940   -1.2900    6.3710 C.2   109  ALA109      0.2260
     63  O         -6.9030   -2.3510    6.1320 O.2   109  ALA109     -0.2867
     64  CB        -6.1730    0.3560    7.6730 C.3   109  ALA109      0.0290
     65  N         -6.8560    0.4220    2.6510 N.3   111  TRP111     -0.1241
     66  CA        -6.3160    1.7100    2.2010 C.3   111  TRP111      0.1605
     67  C         -5.4710    1.5240    0.9860 C.2   111  TRP111      0.2264
     68  O         -5.2190    0.4150    0.5590 O.2   111  TRP111     -0.2867
     69  CB        -5.6110    2.4100    3.3440 C.3   111  TRP111      0.0550
     70  CG        -4.4640    1.6740    3.9650 C.ar  111  TRP111      0.0003
     71  CD1       -4.4580    0.5010    4.6970 C.ar  111  TRP111      0.0946
     72  CD2       -3.1550    2.2490    4.0900 C.ar  111  TRP111      0.0152
     73  NE1       -3.2020    0.3220    5.2210 N.ar  111  TRP111     -0.2442
     74  CE2       -2.3810    1.3410    4.8820 C.ar  111  TRP111      0.0810
     75  CE3       -2.5690    3.4220    3.6390 C.ar  111  TRP111      0.0012
     76  CZ2       -1.0930    1.5740    5.2060 C.ar  111  TRP111      0.0191
     77  CZ3       -1.2690    3.6910    3.9670 C.ar  111  TRP111      0.0001
     78  CH2       -0.4790    2.7560    4.7720 C.ar  111  TRP111      0.0015
     79  N         -1.9500    3.1470   -1.2390 N.3   113  LEU113     -0.1245
     80  CA        -0.8280    3.9980   -1.3910 C.3   113  LEU113      0.1561
     81  C         -0.5330    4.1500   -2.8680 C.2   113  LEU113      0.2260
     82  O         -0.6990    3.2330   -3.6580 O.2   113  LEU113     -0.2867
     83  CB         0.5090    3.3860   -0.7550 C.3   113  LEU113      0.0270
     84  CG         0.5950    3.5320    0.7830 C.3   113  LEU113      0.0019
     85  CD1        1.6740    2.6020    1.3190 C.3   113  LEU113      0.0001
     86  CD2        0.9930    4.9670    1.0980 C.3   113  LEU113      0.0001
     87  N          5.2220    4.8980   -3.9380 N.3   117  SER117     -0.1217
     88  CA         5.6480    5.0870   -2.5290 C.3   117  SER117      0.1889
     89  C          7.0430    4.5900   -2.2750 C.2   117  SER117      0.2288
     90  O          7.7430    5.1820   -1.4080 O.2   117  SER117     -0.2866
     91  CB         4.7160    4.3040   -1.6070 C.3   117  SER117      0.2089
     92  OG         4.9220    2.8860   -1.7700 O.3   117  SER117     -0.2183
     93  N          7.7310    2.1870   -0.5340 N.3   119  GLU119     -0.1245
     94  CA         7.8290    1.8090    0.9080 C.3   119  GLU119      0.1567
     95  C          8.7270    0.5700    0.9940 C.2   119  GLU119      0.2260
     96  O          8.5770   -0.4190    0.2360 O.2   119  GLU119     -0.2867
     97  CB         6.4390    1.5410    1.4420 C.3   119  GLU119      0.0388
     98  CG         6.4920    0.9960    2.8300 C.3   119  GLU119      0.1160
     99  CD         5.1130    1.1660    3.4770 C.2   119  GLU119      0.3649
    100  OE1        4.2240    0.2750    3.3130 O.co2 119  GLU119     -0.2457
    101  OE2        4.9370    2.2490    4.1620 O.co2 119  GLU119     -0.2457
    102  N          8.2880    9.5550   -1.3420 N.3   132  GLU132     -0.1231
    103  CA         8.0770    9.1830    0.0570 C.3   132  GLU132      0.1699
    104  C          6.7390    9.7450    0.5380 C.2   132  GLU132      0.2592
    105  O          6.4410   10.9530    0.3340 O.2   132  GLU132     -0.2718
    106  CB         9.1670    9.7970    0.9280 C.3   132  GLU132      0.0402
    107  CG         9.2350    9.3850    2.3870 C.3   132  GLU132      0.1161
    108  CD        10.4820    9.9450    3.0680 C.2   132  GLU132      0.3649
    109  OE1       10.7090   11.1770    2.9510 O.co2 132  GLU132     -0.2457
    110  OE2       11.2490    9.1690    3.6920 O.co2 132  GLU132     -0.2457
    111  N          5.9290    8.9040    1.1980 N.am  133  TRP133     -0.1976
    112  CA         4.6510    9.3650    1.7410 C.3   133  TRP133      0.1640
    113  C          4.8960   10.6080    2.5560 C.2   133  TRP133      0.2290
    114  O          5.8650   10.6160    3.3600 O.2   133  TRP133     -0.2864
    115  CB         4.0530    8.2240    2.6290 C.3   133  TRP133      0.0576
    116  CG         2.7130    8.5700    3.2220 C.ar  133  TRP133      0.0006
    117  CD1        1.4840    8.1910    2.7650 C.ar  133  TRP133      0.0946
    118  CD2        2.4870    9.4050    4.4030 C.ar  133  TRP133      0.0152
    119  NE1        0.4640    8.7170    3.5790 N.ar  133  TRP133     -0.2442
    120  CE2        1.0540    9.4370    4.5970 C.ar  133  TRP133      0.0810
    121  CE3        3.3120   10.0820    5.3030 C.ar  133  TRP133      0.0012
    122  CZ2        0.4760   10.1400    5.6510 C.ar  133  TRP133      0.0191
    123  CZ3        2.7510   10.7470    6.3540 C.ar  133  TRP133      0.0001
    124  CH2        1.3350   10.8300    6.5050 C.ar  133  TRP133      0.0015
    125  N         -2.0970    8.7040   -0.0340 N.3   138  SER138     -0.1217
    126  CA        -2.7780    7.5880    0.4650 C.3   138  SER138      0.1889
    127  C         -4.2640    7.8530    0.5440 C.2   138  SER138      0.2288
    128  O         -4.7070    9.0360    0.7580 O.2   138  SER138     -0.2866
    129  CB        -2.1970    7.3930    1.8370 C.3   138  SER138      0.2089
    130  OG        -2.8540    6.3210    2.3010 O.3   138  SER138     -0.2183
    131  N         -7.4950    6.2920    2.7320 N.3   140  ASP140     -0.1239
    132  CA        -8.0590    5.3620    3.7330 C.3   140  ASP140      0.1674
    133  C         -9.5180    5.1320    3.4360 C.2   140  ASP140      0.2266
    134  O        -10.3500    6.0060    3.6300 O.2   140  ASP140     -0.2867
    135  CB        -7.8900    5.9370    5.1820 C.3   140  ASP140      0.1410
    136  CG        -6.5210    6.0250    5.5580 C.2   140  ASP140      0.3668
    137  OD1       -5.9220    4.8900    5.9180 O.co2 140  ASP140     -0.2456
    138  OD2       -5.9370    7.1350    5.6840 O.co2 140  ASP140     -0.2456
    139  N        -10.7550    2.8960    8.1530 N.3   143  GLU143     -0.1245
    140  CA        -9.9950    2.6550    9.4020 C.3   143  GLU143      0.1567
    141  C        -11.0100    2.6090   10.5380 C.2   143  GLU143      0.2260
    142  O        -12.0550    3.2510   10.4750 O.2   143  GLU143     -0.2867
    143  CB        -8.9640    3.7490    9.6950 C.3   143  GLU143      0.0388
    144  CG        -7.8490    3.8280    8.6220 C.3   143  GLU143      0.1160
    145  CD        -6.9760    5.0170    8.9130 C.2   143  GLU143      0.3649
    146  OE1       -7.3100    6.1810    8.4440 O.co2 143  GLU143     -0.2457
    147  OE2       -6.0110    4.8930    9.6750 O.co2 143  GLU143     -0.2457
    148  N         -4.5080   11.5680    2.6010 N.3   157  HIS157     -0.1241
    149  CA        -3.2340   12.2150    2.9290 C.3   157  HIS157      0.1621
    150  C         -2.4320   12.4070    1.6720 C.2   157  HIS157      0.2264
    151  O         -2.2160   11.4360    0.9440 O.2   157  HIS157     -0.2867
    152  CB        -2.4240   11.2930    3.8470 C.3   157  HIS157      0.0745
    153  CG        -3.0790   11.0180    5.1400 C.ar  157  HIS157      0.0817
    154  ND1       -3.9860    9.9650    5.3880 N.ar  157  HIS157     -0.2268
    155  CD2       -2.9500   11.6980    6.2850 C.ar  157  HIS157      0.1154
    156  CE1       -4.3820   10.0340    6.6950 C.ar  157  HIS157      0.1986
    157  NE2       -3.6640   11.0380    7.2650 N.ar  157  HIS157     -0.2212
    158  N         -4.6670   -4.5100    6.5910 N.3   223  ASN223     -0.1240
    159  CA        -3.8360   -4.8340    7.7600 C.3   223  ASN223      0.1653
    160  C         -4.6220   -4.6260    9.0360 C.2   223  ASN223      0.2266
    161  O         -5.6740   -4.0160    9.0570 O.2   223  ASN223     -0.2867
    162  CB        -2.5560   -3.9420    7.8400 C.3   223  ASN223      0.1155
    163  CG        -2.9260   -2.4580    8.0530 C.2   223  ASN223      0.2627
    164  OD1       -3.3100   -1.7830    7.0950 O.2   223  ASN223     -0.2716
    165  ND2       -2.8350   -1.9720    9.2830 N.am  223  ASN223     -0.0877
@<TRIPOS>BOND
     1    87    88    1
     2    82    81    2
     3    81    80    1
     4    88    89    1
     5    88    91    1
     6    89    90    2
     7    92    91    1
     8    80    79    1
     9    80    83    1
    10   102   103    1
    11    83    84    1
    12    93    94    1
    13   125   126    1
    14   103   104    1
    15   103   106    1
    16    96    95    2
    17   105   104    2
    18   126   127    1
    19   126   129    1
    20   104   111   am
    21   127   128    2
    22    68    67    2
    23    84    86    1
    24    84    85    1
    25    94    95    1
    26    94    97    1
    27   106   107    1
    28   151   150    2
    29    67    66    1
    30   111   112    1
    31    97    98    1
    32   150   149    1
    33   112   113    1
    34   112   115    1
    35   129   130    1
    36    66    65    1
    37    66    69    1
    38   107   108    1
    39   113   114    2
    40   148   149    1
    41   115   116    1
    42   131   132    1
    43   117   116   ar
    44   117   119   ar
    45    98    99    1
    46   149   152    1
    47   109   108   ar
    48   108   110   ar
    49   116   118   ar
    50   100    99   ar
    51    69    70    1
    52   133   134    2
    53   133   132    1
    54    99   101   ar
    55   119   120   ar
    56    75    77   ar
    57    75    72   ar
    58   132   135    1
    59   152   153    1
    60    70    72   ar
    61    70    71   ar
    62    77    78   ar
    63    72    74   ar
    64    38    37    2
    65   118   120   ar
    66   118   121   ar
    67   120   122   ar
    68    71    73   ar
    69    37    36    1
    70    78    76   ar
    71    74    76   ar
    72    74    73   ar
    73   153   154   ar
    74   153   155   ar
    75   135   136    1
    76    45    43    1
    77   121   123   ar
    78   154   156   ar
    79   136   138   ar
    80   136   137   ar
    81    42    43    2
    82    42    41    1
    83   122   124   ar
    84    40    41    1
    85    40    39    1
    86    43    44    1
    87    63    62    2
    88    36    39    1
    89    36    35    1
    90   155   157   ar
    91   123   124   ar
    92    62    61    1
    93   158   159    1
    94   156   157   ar
    95   164   163    2
    96     5     2    1
    97     5     6    1
    98    64    61    1
    99     2     1    1
   100     2     3    1
   101    61    60    1
   102   159   162    1
   103   159   160    1
   104    17    15   ar
   105    17    16   ar
   106   162   163    1
   107     4     3    2
   108   163   165   am
   109   139   140    1
   110     6     7    1
   111    15    13   ar
   112   146   145   ar
   113     1     7    1
   114    16    14   ar
   115   144   145    1
   116   144   143    1
   117   145   147   ar
   118   160   161    2
   119   140   143    1
   120   140   141    1
   121    13    14   ar
   122    13    12    1
   123   142   141    2
   124    12     9    1
   125    25    23   am
   126     8     9    1
   127    24    23    2
   128    54    55   ar
   129    54    52   ar
   130     9    10    1
   131    23    22    1
   132    49    48    2
   133    34    32   ar
   134    57    55   ar
   135    57    59   ar
   136    33    32   ar
   137    55    53   ar
   138    52    51   ar
   139    32    31    1
   140    48    47    1
   141    10    18   am
   142    10    11    2
   143    59    58   ar
   144    18    19    1
   145    53    51   ar
   146    53    56   ar
   147    22    19    1
   148    51    50    1
   149    58    56   ar
   150    19    20    1
   151    47    50    1
   152    47    46    1
   153    31    30    1
   154    30    27    1
   155    20    21    2
   156    26    27    1
   157    27    28    1
   158    29    28    2
