@<TRIPOS>MOLECULE
tmp/4bq3B00.pdb
 170 168 0 0 0
SMALL
GASTEIGER

@<TRIPOS>ATOM
      1  N         35.3290   69.1740   46.0550 N.3   124  LEU124     -0.1245
      2  CA        36.2830   68.9730   44.9490 C.3   124  LEU124      0.1561
      3  C         37.0590   67.6570   45.1030 C.2   124  LEU124      0.2260
      4  O         37.8730   67.3600   44.2330 O.2   124  LEU124     -0.2867
      5  CB        37.2460   70.1850   44.6430 C.3   124  LEU124      0.0270
      6  CG        36.8610   71.6980   44.5290 C.3   124  LEU124      0.0019
      7  CD1       38.0960   72.6420   44.5040 C.3   124  LEU124      0.0001
      8  CD2       35.9330   72.0050   43.3500 C.3   124  LEU124      0.0001
      9  N         41.9570   64.9730   47.9180 N.3   131  ARG131     -0.1245
     10  CA        41.7300   65.8200   46.7710 C.3   131  ARG131      0.1563
     11  C         42.1550   65.0560   45.5510 C.2   131  ARG131      0.2260
     12  O         41.5280   65.1700   44.4900 O.2   131  ARG131     -0.2867
     13  CB        42.4600   67.1850   46.8460 C.3   131  ARG131      0.0307
     14  CG        42.1290   68.1430   45.6780 C.3   131  ARG131      0.0489
     15  CD        40.6340   68.4220   45.5750 C.3   131  ARG131      0.2205
     16  NE        40.1670   68.8930   46.8790 N.pl3 131  ARG131     -0.0865
     17  CZ        40.1790   70.1610   47.3090 C.cat 131  ARG131      0.5346
     18  NH1       40.5690   71.1610   46.5070 N.pl3 131  ARG131      0.1354
     19  NH2       39.7870   70.4370   48.5590 N.pl3 131  ARG131      0.1354
     20  N         39.7930   69.8860   39.8060 N.3   148  TRP148     -0.1227
     21  CA        38.3970   70.2670   40.0610 C.3   148  TRP148      0.1737
     22  C         37.6420   69.9850   38.7720 C.2   148  TRP148      0.2596
     23  O         38.2510   69.8250   37.6990 O.2   148  TRP148     -0.2718
     24  CB        38.2810   71.7820   40.3700 C.3   148  TRP148      0.0564
     25  CG        39.2110   72.6430   39.4790 C.ar  148  TRP148      0.0003
     26  CD1       39.0160   73.0040   38.1240 C.ar  148  TRP148      0.0946
     27  CD2       40.4490   73.2420   39.8670 C.ar  148  TRP148      0.0152
     28  NE1       40.0970   73.7760   37.6860 N.ar  148  TRP148     -0.2442
     29  CE2       40.9780   73.9310   38.7280 C.ar  148  TRP148      0.0810
     30  CE3       41.1650   73.2850   41.0710 C.ar  148  TRP148      0.0012
     31  CZ2       42.2120   74.6210   38.7670 C.ar  148  TRP148      0.0191
     32  CZ3       42.3800   73.9760   41.0980 C.ar  148  TRP148      0.0001
     33  CH2       42.8780   74.6480   39.9530 C.ar  148  TRP148      0.0015
     34  N         36.3170   69.9800   38.8740 N.am  149  GLY149     -0.1957
     35  CA        35.4110   69.9570   37.7330 C.3   149  GLY149      0.1869
     36  C         34.4690   68.7660   37.8520 C.2   149  GLY149      0.2309
     37  O         34.2550   68.2450   38.9460 O.2   149  GLY149     -0.2863
     38  N         32.0580   79.8010   46.5150 N.3   442  PHE442     -0.1227
     39  CA        32.9880   78.7040   46.7170 C.3   442  PHE442      0.1736
     40  C         33.0690   78.2710   48.2090 C.2   442  PHE442      0.2595
     41  O         32.6950   77.1810   48.5520 O.2   442  PHE442     -0.2718
     42  CB        34.3760   79.0290   46.1470 C.3   442  PHE442      0.0547
     43  CG        35.3160   77.8390   46.2110 C.ar  442  PHE442     -0.0202
     44  CD1       35.3250   76.8720   45.1900 C.ar  442  PHE442     -0.0042
     45  CD2       36.1300   77.6300   47.3440 C.ar  442  PHE442     -0.0042
     46  CE1       36.1600   75.7410   45.2960 C.ar  442  PHE442     -0.0003
     47  CE2       36.9320   76.4900   47.4490 C.ar  442  PHE442     -0.0003
     48  CZ        36.9590   75.5550   46.4310 C.ar  442  PHE442     -0.0000
     49  N         33.6100   79.1190   49.0760 N.am  443  TRP443     -0.1976
     50  CA        33.8100   78.7400   50.4660 C.3   443  TRP443      0.1640
     51  C         32.5070   78.8420   51.2510 C.2   443  TRP443      0.2290
     52  O         32.3320   78.1460   52.2310 O.2   443  TRP443     -0.2864
     53  CB        34.8590   79.6170   51.1180 C.3   443  TRP443      0.0576
     54  CG        36.2510   79.3900   50.6380 C.ar  443  TRP443      0.0006
     55  CD1       37.0470   80.2950   50.0070 C.ar  443  TRP443      0.0946
     56  CD2       37.0170   78.1730   50.7500 C.ar  443  TRP443      0.0152
     57  NE1       38.2930   79.7330   49.7370 N.ar  443  TRP443     -0.2442
     58  CE2       38.2970   78.4300   50.1740 C.ar  443  TRP443      0.0810
     59  CE3       36.7480   76.8970   51.2780 C.ar  443  TRP443      0.0012
     60  CZ2       39.2910   77.4440   50.0710 C.ar  443  TRP443      0.0191
     61  CZ3       37.7510   75.9170   51.2000 C.ar  443  TRP443      0.0001
     62  CH2       39.0010   76.1920   50.6130 C.ar  443  TRP443      0.0015
     63  N         39.4800   85.0730   50.3340 N.3   483  GLU483     -0.1245
     64  CA        38.9170   84.3780   49.1550 C.3   483  GLU483      0.1567
     65  C         37.3910   84.4050   49.0970 C.2   483  GLU483      0.2260
     66  O         36.7130   83.3610   48.8940 O.2   483  GLU483     -0.2867
     67  CB        39.4720   82.9500   49.0330 C.3   483  GLU483      0.0388
     68  CG        41.0070   82.9350   48.8770 C.3   483  GLU483      0.1160
     69  CD        41.5830   81.5270   48.6590 C.2   483  GLU483      0.3649
     70  OE1       40.8390   80.5170   48.7020 O.co2 483  GLU483     -0.2457
     71  OE2       42.8290   81.4010   48.4560 O.co2 483  GLU483     -0.2457
     72  N         33.2180   85.6550   39.6140 N.3   488  ARG488     -0.1245
     73  CA        34.2050   85.0200   38.7600 C.3   488  ARG488      0.1563
     74  C         34.4020   85.7300   37.4230 C.2   488  ARG488      0.2260
     75  O         33.4810   86.3390   36.9000 O.2   488  ARG488     -0.2867
     76  CB        33.8370   83.5560   38.5580 C.3   488  ARG488      0.0307
     77  CG        33.8570   82.7730   39.8540 C.3   488  ARG488      0.0489
     78  CD        34.2730   81.3390   39.5870 C.3   488  ARG488      0.2205
     79  NE        34.5310   80.6270   40.8380 N.pl3 488  ARG488     -0.0865
     80  CZ        35.4920   79.6950   40.9810 C.cat 488  ARG488      0.5346
     81  NH1       36.3170   79.3770   39.9610 N.pl3 488  ARG488      0.1354
     82  NH2       35.6620   79.1020   42.1610 N.pl3 488  ARG488      0.1354
     83  N         41.4120   86.0120   45.3450 N.3   597  PRO597     -0.2102
     84  CA        41.9500   84.9370   44.5050 C.3   597  PRO597      0.1504
     85  C         41.7360   85.3020   43.0360 C.2   597  PRO597      0.2576
     86  O         41.0070   86.2860   42.7540 O.2   597  PRO597     -0.2718
     87  CB        41.0960   83.7700   44.9150 C.3   597  PRO597      0.0282
     88  CG        39.7500   84.3770   45.1670 C.3   597  PRO597      0.0208
     89  CD        40.0160   85.7810   45.7010 C.3   597  PRO597      0.0893
     90  N         42.3830   84.5890   42.1020 N.am  598  ASP598     -0.1960
     91  CA        42.2300   84.9380   40.6940 C.3   598  ASP598      0.1840
     92  C         40.7780   84.8420   40.2160 C.2   598  ASP598      0.2622
     93  O         40.3620   85.5830   39.3090 O.2   598  ASP598     -0.2715
     94  CB        43.1770   84.1470   39.7710 C.3   598  ASP598      0.1450
     95  CG        42.9120   82.6600   39.7760 C.2   598  ASP598      0.3671
     96  OD1       42.6050   82.0680   40.8390 O.co2 598  ASP598     -0.2456
     97  OD2       43.0620   82.0460   38.7050 O.co2 598  ASP598     -0.2456
     98  N         40.0060   83.9700   40.8710 N.am  599  TRP599     -0.1974
     99  CA        38.5720   83.7580   40.5650 C.3   599  TRP599      0.1640
    100  C         37.5930   84.6580   41.3110 C.2   599  TRP599      0.2290
    101  O         36.3570   84.4220   41.2620 O.2   599  TRP599     -0.2864
    102  CB        38.1780   82.2750   40.7890 C.3   599  TRP599      0.0576
    103  CG        38.6750   81.6730   42.0760 C.ar  599  TRP599      0.0006
    104  CD1       39.8630   80.9770   42.2680 C.ar  599  TRP599      0.0946
    105  CD2       38.0290   81.7030   43.3580 C.ar  599  TRP599      0.0152
    106  NE1       39.9630   80.5560   43.5890 N.ar  599  TRP599     -0.2442
    107  CE2       38.8570   80.9880   44.2710 C.ar  599  TRP599      0.0810
    108  CE3       36.8270   82.2530   43.8260 C.ar  599  TRP599      0.0012
    109  CZ2       38.5160   80.8170   45.6300 C.ar  599  TRP599      0.0191
    110  CZ3       36.4890   82.0880   45.1750 C.ar  599  TRP599      0.0001
    111  CH2       37.3330   81.3740   46.0590 C.ar  599  TRP599      0.0015
    112  N         48.1940   81.5730   42.8910 N.3   621  TYR621     -0.1227
    113  CA        48.8580   80.3130   42.7740 C.3   621  TYR621      0.1736
    114  C         49.1680   80.1460   41.3050 C.2   621  TYR621      0.2595
    115  O         48.3800   79.5510   40.5810 O.2   621  TYR621     -0.2718
    116  CB        47.9350   79.2090   43.2300 C.3   621  TYR621      0.0548
    117  CG        47.7490   79.1840   44.7300 C.ar  621  TYR621     -0.0200
    118  CD1       48.7590   78.7100   45.5490 C.ar  621  TYR621     -0.0009
    119  CD2       46.5690   79.6320   45.3240 C.ar  621  TYR621     -0.0009
    120  CE1       48.5980   78.6890   46.9240 C.ar  621  TYR621      0.0417
    121  CE2       46.3960   79.5870   46.7020 C.ar  621  TYR621      0.0417
    122  CZ        47.4180   79.1380   47.4900 C.ar  621  TYR621      0.1957
    123  OH        47.3000   79.0750   48.8490 O.3   621  TYR621     -0.2866
    124  N         50.2950   80.7020   40.8880 N.am  622  LYS622     -0.1980
    125  CA        50.7480   80.6840   39.5020 C.3   622  LYS622      0.1596
    126  C         52.2570   80.5080   39.6450 C.2   622  LYS622      0.2287
    127  O         52.7720   80.4580   40.7520 O.2   622  LYS622     -0.2864
    128  CB        50.4490   82.0440   38.7910 C.3   622  LYS622      0.0298
    129  CG        48.9830   82.5290   38.8690 C.3   622  LYS622      0.0038
    130  CD        48.0160   81.5780   38.1240 C.3   622  LYS622      0.0206
    131  CE        46.5970   82.1240   38.2040 C.3   622  LYS622      0.1093
    132  NZ        45.5840   81.0690   37.9710 N.3   622  LYS622     -0.1314
    133  N         49.2330   84.3310   49.4600 N.3   644  GLU644     -0.1245
    134  CA        49.4720   82.9160   49.3070 C.3   644  GLU644      0.1567
    135  C         50.0850   82.6090   47.9610 C.2   644  GLU644      0.2260
    136  O         49.6930   83.1770   46.9520 O.2   644  GLU644     -0.2867
    137  CB        48.1800   82.0960   49.4280 C.3   644  GLU644      0.0388
    138  CG        47.3920   82.4070   50.6850 C.3   644  GLU644      0.1160
    139  CD        46.0780   81.6710   50.8070 C.2   644  GLU644      0.3649
    140  OE1       45.7350   80.8650   49.8820 O.co2 644  GLU644     -0.2457
    141  OE2       45.3890   81.8930   51.8130 O.co2 644  GLU644     -0.2457
    142  N         48.7170   73.2580   44.0760 N.3   659  LEU659     -0.1245
    143  CA        48.0870   73.9800   42.9620 C.3   659  LEU659      0.1561
    144  C         49.0620   74.2460   41.8280 C.2   659  LEU659      0.2260
    145  O         48.6680   74.3650   40.6870 O.2   659  LEU659     -0.2867
    146  CB        47.4140   75.2510   43.4630 C.3   659  LEU659      0.0270
    147  CG        46.2210   74.9100   44.4070 C.3   659  LEU659      0.0019
    148  CD1       45.7270   76.1600   45.1070 C.3   659  LEU659      0.0001
    149  CD2       45.0600   74.2330   43.6870 C.3   659  LEU659      0.0001
    150  N         42.2350   68.7510   51.2240 N.3   706  GLU706     -0.1245
    151  CA        43.5240   69.1510   50.6250 C.3   706  GLU706      0.1567
    152  C         44.6560   68.2900   51.2110 C.2   706  GLU706      0.2260
    153  O         44.7320   68.1310   52.4320 O.2   706  GLU706     -0.2867
    154  CB        43.8230   70.6450   50.9000 C.3   706  GLU706      0.0388
    155  CG        43.0930   71.5460   49.9480 C.3   706  GLU706      0.1160
    156  CD        43.4250   73.0200   50.1340 C.2   706  GLU706      0.3649
    157  OE1       44.4200   73.3450   50.8270 O.co2 706  GLU706     -0.2457
    158  OE2       42.6900   73.8600   49.5570 O.co2 706  GLU706     -0.2457
    159  N         48.2410   68.2350   50.1180 N.3   708  TYR708     -0.1241
    160  CA        49.2800   68.7540   49.2300 C.3   708  TYR708      0.1605
    161  C         50.6850   68.7780   49.8090 C.2   708  TYR708      0.2264
    162  O         50.8410   68.9780   51.0350 O.2   708  TYR708     -0.2867
    163  CB        48.9380   70.2070   48.9390 C.3   708  TYR708      0.0534
    164  CG        47.6290   70.4550   48.2400 C.ar  708  TYR708     -0.0201
    165  CD1       47.0070   69.4670   47.4910 C.ar  708  TYR708     -0.0009
    166  CD2       47.0330   71.7200   48.2970 C.ar  708  TYR708     -0.0009
    167  CE1       45.8130   69.7350   46.8310 C.ar  708  TYR708      0.0417
    168  CE2       45.8650   71.9980   47.6380 C.ar  708  TYR708      0.0417
    169  CZ        45.2570   70.9970   46.8990 C.ar  708  TYR708      0.1957
    170  OH        44.0980   71.3010   46.2150 O.3   708  TYR708     -0.2866
@<TRIPOS>BOND
     1    75    74    2
     2    74    73    1
     3    28    26   ar
     4    28    29   ar
     5    23    22    2
     6    35    36    1
     7    35    34    1
     8    36    37    2
     9   132   131    1
    10   130   131    1
    11   130   129    1
    12    26    25   ar
    13    76    73    1
    14    76    77    1
    15    97    95   ar
    16    29    31   ar
    17    29    27   ar
    18    73    72    1
    19    31    33   ar
    20    22    34   am
    21    22    21    1
    22   128   129    1
    23   128   125    1
    24    93    92    2
    25    25    27   ar
    26    25    24    1
    27   125   126    1
    28   125   124    1
    29    78    77    1
    30    78    79    1
    31   126   127    2
    32    94    95    1
    33    94    91    1
    34    95    96   ar
    35    20    21    1
    36    27    30   ar
    37    33    32   ar
    38    81    80    1
    39    21    24    1
    40    92    91    1
    41    92    98   am
    42    99   102    1
    43    99    98    1
    44    99   100    1
    45   115   114    2
    46   145   144    2
    47    91    90    1
    48   102   103    1
    49    79    80    2
    50   124   114   am
    51    80    82    1
    52    30    32   ar
    53   101   100    2
    54   114   113    1
    55   144   143    1
    56   103   104   ar
    57   103   105   ar
    58    90    85   am
    59   104   106   ar
    60    86    85    2
    61   113   112    1
    62   113   116    1
    63   143   146    1
    64   143   142    1
    65    85    84    1
    66   116   117    1
    67     8     6    1
    68   105   108   ar
    69   105   107   ar
    70   146   147    1
    71   106   107   ar
    72   149   147    1
    73   108   110   ar
    74     4     3    2
    75   107   109   ar
    76   147   148    1
    77    12    11    2
    78     7     6    1
    79    84    87    1
    80    84    83    1
    81     6     5    1
    82     5     2    1
    83   117   119   ar
    84   117   118   ar
    85    87    88    1
    86     2     3    1
    87     2     1    1
    88    88    89    1
    89   110   111   ar
    90    44    46   ar
    91    44    43   ar
    92    46    48   ar
    93   119   121   ar
    94    83    89    1
    95   118   120   ar
    96    11    10    1
    97    15    14    1
    98    15    16    1
    99   109   111   ar
   100    14    13    1
   101    42    43    1
   102    42    39    1
   103    43    45   ar
   104   170   169    1
   105    48    47   ar
   106    18    17    1
   107    38    39    1
   108   121   122   ar
   109    39    40    1
   110    10    13    1
   111    10     9    1
   112   167   169   ar
   113   167   165   ar
   114    16    17    2
   115   169   168   ar
   116   120   122   ar
   117   136   135    2
   118    17    19    1
   119    45    47   ar
   120   122   123    1
   121   165   164   ar
   122   168   166   ar
   123   135   134    1
   124    40    41    2
   125    40    49   am
   126   164   166   ar
   127   164   163    1
   128    71    69   ar
   129    69    70   ar
   130    69    68    1
   131    68    67    1
   132    66    65    2
   133   163   160    1
   134    67    64    1
   135    49    50    1
   136    65    64    1
   137    64    63    1
   138   160   161    1
   139   160   159    1
   140   134   137    1
   141   134   133    1
   142   137   138    1
   143   158   156   ar
   144    57    55   ar
   145    57    58   ar
   146   161   162    2
   147   140   139   ar
   148   155   156    1
   149   155   154    1
   150    55    54   ar
   151    60    58   ar
   152    60    62   ar
   153   156   157   ar
   154    58    56   ar
   155    50    53    1
   156    50    51    1
   157    62    61   ar
   158   151   154    1
   159   151   152    1
   160   151   150    1
   161    54    56   ar
   162    54    53    1
   163   138   139    1
   164    56    59   ar
   165   139   141   ar
   166    61    59   ar
   167   152   153    2
   168    51    52    2
