@<TRIPOS>MOLECULE
tmp/4bq4B00.pdb
 296 290 0 0 0
SMALL
GASTEIGER

@<TRIPOS>ATOM
      1  N        -18.4030   72.2680  -10.3160 N.3   132  LEU132     -0.1245
      2  CA       -17.3630   71.2380  -10.4950 C.3   132  LEU132      0.1561
      3  C        -16.1470   71.5030   -9.6070 C.2   132  LEU132      0.2260
      4  O        -15.2780   70.6370   -9.4590 O.2   132  LEU132     -0.2867
      5  CB       -16.9250   71.0880  -11.9740 C.3   132  LEU132      0.0270
      6  CG       -17.8920   70.5350  -13.0360 C.3   132  LEU132      0.0019
      7  CD1      -17.1730   70.3060  -14.3690 C.3   132  LEU132      0.0001
      8  CD2      -18.6350   69.2650  -12.5840 C.3   132  LEU132      0.0001
      9  N        -10.7330   74.5190   -9.4710 N.3   139  ARG139     -0.1245
     10  CA       -11.1800   73.2970  -10.1230 C.3   139  ARG139      0.1563
     11  C        -10.4550   72.0960   -9.4950 C.2   139  ARG139      0.2260
     12  O        -11.0710   71.0840   -9.2540 O.2   139  ARG139     -0.2867
     13  CB       -11.0540   73.3320  -11.6600 C.3   139  ARG139      0.0307
     14  CG       -11.6400   72.1050  -12.3720 C.3   139  ARG139      0.0489
     15  CD       -13.1410   71.9780  -12.1010 C.3   139  ARG139      0.2205
     16  NE       -13.8250   73.2580  -12.3140 N.pl3 139  ARG139     -0.0865
     17  CZ       -14.2500   73.6960  -13.5000 C.cat 139  ARG139      0.5346
     18  NH1      -14.0890   72.9430  -14.6010 N.pl3 139  ARG139      0.1354
     19  NH2      -14.8370   74.8950  -13.5860 N.pl3 139  ARG139      0.1354
     20  N        -14.5150   65.9810  -12.9070 N.3   156  TRP156     -0.1241
     21  CA       -15.9710   66.1390  -12.7200 C.3   156  TRP156      0.1605
     22  C        -16.5870   64.9220  -12.0410 C.2   156  TRP156      0.2264
     23  O        -15.9940   63.8290  -12.0450 O.2   156  TRP156     -0.2867
     24  CB       -16.7140   66.3170  -14.0710 C.3   156  TRP156      0.0550
     25  CG       -16.2090   65.4590  -15.1600 C.ar  156  TRP156      0.0003
     26  CD1      -16.4780   64.1190  -15.3550 C.ar  156  TRP156      0.0946
     27  CD2      -15.3270   65.8470  -16.2140 C.ar  156  TRP156      0.0152
     28  NE1      -15.8220   63.6670  -16.4790 N.ar  156  TRP156     -0.2442
     29  CE2      -15.0960   64.6970  -17.0140 C.ar  156  TRP156      0.0810
     30  CE3      -14.7060   67.0620  -16.5730 C.ar  156  TRP156      0.0012
     31  CZ2      -14.2590   64.7180  -18.1500 C.ar  156  TRP156      0.0191
     32  CZ3      -13.8550   67.0810  -17.6990 C.ar  156  TRP156      0.0001
     33  CH2      -13.6470   65.9090  -18.4680 C.ar  156  TRP156      0.0015
     34  N         -9.2420   84.0930  -26.4360 N.3   288  ILE288     -0.1245
     35  CA        -9.1720   84.9170  -25.2070 C.3   288  ILE288      0.1561
     36  C         -7.9810   85.8790  -25.2530 C.2   288  ILE288      0.2260
     37  O         -7.0710   85.7970  -24.4010 O.2   288  ILE288     -0.2867
     38  CB        -9.1670   84.0720  -23.8960 C.3   288  ILE288      0.0252
     39  CG1      -10.2070   82.9630  -23.9560 C.3   288  ILE288      0.0019
     40  CG2       -9.4060   84.9630  -22.6740 C.3   288  ILE288      0.0019
     41  CD1      -11.6220   83.4060  -23.6610 C.3   288  ILE288      0.0001
     42  N         -7.7130   89.0410  -24.4690 N.3   290  ARG290     -0.1245
     43  CA        -8.4980   90.0590  -23.7440 C.3   290  ARG290      0.1563
     44  C         -8.1220   89.8220  -22.2810 C.2   290  ARG290      0.2260
     45  O         -7.6010   88.7690  -21.9470 O.2   290  ARG290     -0.2867
     46  CB       -10.0170   89.8330  -23.9020 C.3   290  ARG290      0.0307
     47  CG       -10.5880   88.5320  -23.3350 C.3   290  ARG290      0.0489
     48  CD       -12.0930   88.4480  -23.6830 C.3   290  ARG290      0.2205
     49  NE       -12.7990   87.3410  -23.0300 N.pl3 290  ARG290     -0.0865
     50  CZ       -14.0910   87.0750  -23.2300 C.cat 290  ARG290      0.5346
     51  NH1      -14.7850   87.7970  -24.1120 N.pl3 290  ARG290      0.1354
     52  NH2      -14.7030   86.0840  -22.5810 N.pl3 290  ARG290      0.1354
     53  N        -11.0180   87.4290  -18.4730 N.3   293  ASN293     -0.1240
     54  CA       -10.9780   86.1390  -17.7660 C.3   293  ASN293      0.1653
     55  C         -9.7220   85.9590  -16.9120 C.2   293  ASN293      0.2266
     56  O         -9.4670   84.8720  -16.4060 O.2   293  ASN293     -0.2867
     57  CB       -11.1650   84.9770  -18.7700 C.3   293  ASN293      0.1155
     58  CG       -12.4560   85.1050  -19.5620 C.2   293  ASN293      0.2627
     59  OD1      -12.4520   85.4620  -20.7520 O.2   293  ASN293     -0.2716
     60  ND2      -13.5680   84.8750  -18.9000 N.am  293  ASN293     -0.0877
     61  N        -19.4460   87.1110  -17.7400 N.3   319  ASP319     -0.1239
     62  CA       -18.1300   86.4260  -17.8930 C.3   319  ASP319      0.1674
     63  C        -17.2340   87.0740  -18.9580 C.2   319  ASP319      0.2266
     64  O        -15.9960   86.9270  -18.9460 O.2   319  ASP319     -0.2867
     65  CB       -18.3420   84.9350  -18.2560 C.3   319  ASP319      0.1410
     66  CG       -19.1150   84.7560  -19.5430 C.2   319  ASP319      0.3668
     67  OD1      -18.5160   84.7600  -20.6570 O.co2 319  ASP319     -0.2456
     68  OD2      -20.3440   84.6180  -19.4450 O.co2 319  ASP319     -0.2456
     69  N        -12.8980   85.6420  -28.9820 N.3   418  TRP418     -0.1241
     70  CA       -12.8110   86.4840  -27.7600 C.3   418  TRP418      0.1605
     71  C        -11.5370   87.3260  -27.7680 C.2   418  TRP418      0.2264
     72  O        -10.8190   87.4070  -26.7950 O.2   418  TRP418     -0.2867
     73  CB       -13.0160   85.6680  -26.4700 C.3   418  TRP418      0.0550
     74  CG       -14.2880   84.8510  -26.4910 C.ar  418  TRP418      0.0003
     75  CD1      -15.5770   85.3340  -26.5630 C.ar  418  TRP418      0.0946
     76  CD2      -14.3970   83.4060  -26.4980 C.ar  418  TRP418      0.0152
     77  NE1      -16.4770   84.2770  -26.5900 N.ar  418  TRP418     -0.2442
     78  CE2      -15.7860   83.0910  -26.5480 C.ar  418  TRP418      0.0810
     79  CE3      -13.4590   82.3580  -26.4900 C.ar  418  TRP418      0.0012
     80  CZ2      -16.2620   81.7810  -26.5450 C.ar  418  TRP418      0.0191
     81  CZ3      -13.9410   81.0270  -26.4660 C.ar  418  TRP418      0.0001
     82  CH2      -15.3290   80.7620  -26.5050 C.ar  418  TRP418      0.0015
     83  N        -22.7960   87.0790  -28.2980 N.3   436  TRP436     -0.1241
     84  CA       -23.5850   86.1120  -27.5420 C.3   436  TRP436      0.1605
     85  C        -25.0420   86.6120  -27.6330 C.2   436  TRP436      0.2264
     86  O        -25.2820   87.7980  -27.4620 O.2   436  TRP436     -0.2867
     87  CB       -23.1930   86.1810  -26.0630 C.3   436  TRP436      0.0550
     88  CG       -21.7920   85.9140  -25.6680 C.ar  436  TRP436      0.0003
     89  CD1      -20.7840   86.8240  -25.5150 C.ar  436  TRP436      0.0946
     90  CD2      -21.2490   84.6470  -25.2730 C.ar  436  TRP436      0.0152
     91  NE1      -19.6380   86.2050  -25.0650 N.ar  436  TRP436     -0.2442
     92  CE2      -19.8910   84.8630  -24.9260 C.ar  436  TRP436      0.0810
     93  CE3      -21.7720   83.3440  -25.2070 C.ar  436  TRP436      0.0012
     94  CZ2      -19.0480   83.8240  -24.5100 C.ar  436  TRP436      0.0191
     95  CZ3      -20.9280   82.2990  -24.7630 C.ar  436  TRP436      0.0001
     96  CH2      -19.5850   82.5410  -24.4420 C.ar  436  TRP436      0.0015
     97  N        -26.2280   73.2910  -17.8340 N.3   450  PHE450     -0.1227
     98  CA       -25.2960   73.7110  -16.7550 C.3   450  PHE450      0.1736
     99  C        -24.9330   75.1990  -16.7760 C.2   450  PHE450      0.2595
    100  O        -24.4410   75.7340  -15.7830 O.2   450  PHE450     -0.2718
    101  CB       -24.0180   72.8470  -16.7350 C.3   450  PHE450      0.0547
    102  CG       -24.2850   71.3570  -16.6410 C.ar  450  PHE450     -0.0202
    103  CD1      -24.9460   70.8120  -15.5360 C.ar  450  PHE450     -0.0042
    104  CD2      -23.8860   70.4910  -17.6680 C.ar  450  PHE450     -0.0042
    105  CE1      -25.1970   69.4440  -15.4700 C.ar  450  PHE450     -0.0003
    106  CE2      -24.1340   69.1220  -17.6030 C.ar  450  PHE450     -0.0003
    107  CZ       -24.7840   68.5960  -16.5030 C.ar  450  PHE450     -0.0000
    108  N        -25.2210   75.8720  -17.8910 N.am  451  TRP451     -0.1976
    109  CA       -24.8820   77.2840  -18.0290 C.3   451  TRP451      0.1640
    110  C        -26.1760   78.0900  -18.2410 C.2   451  TRP451      0.2290
    111  O        -26.1380   79.2140  -18.7150 O.2   451  TRP451     -0.2864
    112  CB       -23.8610   77.4820  -19.1740 C.3   451  TRP451      0.0576
    113  CG       -22.5780   76.7170  -18.9200 C.ar  451  TRP451      0.0006
    114  CD1      -21.4420   77.1840  -18.3020 C.ar  451  TRP451      0.0946
    115  CD2      -22.3150   75.3430  -19.2600 C.ar  451  TRP451      0.0152
    116  NE1      -20.4830   76.1860  -18.2500 N.ar  451  TRP451     -0.2442
    117  CE2      -20.9910   75.0490  -18.8250 C.ar  451  TRP451      0.0810
    118  CE3      -23.0620   74.3380  -19.9050 C.ar  451  TRP451      0.0012
    119  CZ2      -20.4080   73.7890  -18.9870 C.ar  451  TRP451      0.0191
    120  CZ3      -22.4790   73.0750  -20.0740 C.ar  451  TRP451      0.0001
    121  CH2      -21.1620   72.8150  -19.6100 C.ar  451  TRP451      0.0015
    122  N        -21.5230   79.8900  -27.8150 N.3   490  ASN490     -0.1225
    123  CA       -20.4640   78.9240  -27.5480 C.3   490  ASN490      0.1785
    124  C        -20.9860   77.7450  -26.7360 C.2   490  ASN490      0.2597
    125  O        -21.4030   77.9210  -25.5910 O.2   490  ASN490     -0.2718
    126  CB       -19.3010   79.6030  -26.8060 C.3   490  ASN490      0.1169
    127  CG       -18.1650   78.6580  -26.5530 C.2   490  ASN490      0.2627
    128  OD1      -17.5380   78.1790  -27.5040 O.2   490  ASN490     -0.2716
    129  ND2      -17.8710   78.3950  -25.2830 N.am  490  ASN490     -0.0877
    130  N        -20.9300   76.5590  -27.3360 N.am  491  GLN491     -0.1979
    131  CA       -21.1990   75.2880  -26.6670 C.3   491  GLN491      0.1601
    132  C        -22.6040   75.2820  -26.0500 C.2   491  GLN491      0.2287
    133  O        -22.7810   74.9270  -24.8990 O.2   491  GLN491     -0.2864
    134  CB       -20.1360   75.0260  -25.6020 C.3   491  GLN491      0.0394
    135  CG       -18.7220   74.9390  -26.1870 C.3   491  GLN491      0.0908
    136  CD       -17.6820   74.5740  -25.1560 C.2   491  GLN491      0.2608
    137  OE1      -16.5900   74.1000  -25.4920 O.2   491  GLN491     -0.2717
    138  NE2      -18.0090   74.8000  -23.8810 N.am  491  GLN491     -0.0878
    139  N        -26.7800   65.8930  -25.0020 N.3   496  ARG496     -0.1245
    140  CA       -25.6010   65.1840  -24.5020 C.3   496  ARG496      0.1563
    141  C        -25.6260   63.7780  -25.1180 C.2   496  ARG496      0.2260
    142  O        -26.7080   63.2220  -25.3860 O.2   496  ARG496     -0.2867
    143  CB       -25.6660   65.0800  -22.9650 C.3   496  ARG496      0.0307
    144  CG       -25.2830   66.3480  -22.2280 C.3   496  ARG496      0.0489
    145  CD       -23.8470   66.2440  -21.7530 C.3   496  ARG496      0.2205
    146  NE       -23.3680   67.4990  -21.1820 N.pl3 496  ARG496     -0.0865
    147  CZ       -22.1320   67.6750  -20.7270 C.cat 496  ARG496      0.5346
    148  NH1      -21.2580   66.6430  -20.7590 N.pl3 496  ARG496      0.1354
    149  NH2      -21.7700   68.8690  -20.2400 N.pl3 496  ARG496      0.1354
    150  N        -19.2540   71.4440  -28.7160 N.3   605  PRO605     -0.2102
    151  CA       -18.2490   70.6400  -28.0140 C.3   605  PRO605      0.1504
    152  C        -18.4600   69.1690  -28.3240 C.2   605  PRO605      0.2576
    153  O        -19.5100   68.8000  -28.8540 O.2   605  PRO605     -0.2718
    154  CB       -18.5720   70.8710  -26.5320 C.3   605  PRO605      0.0282
    155  CG       -20.0570   71.0960  -26.5230 C.3   605  PRO605      0.0208
    156  CD       -20.4060   71.7610  -27.8570 C.3   605  PRO605      0.0893
    157  N        -17.4690   68.3520  -27.9730 N.am  606  ASP606     -0.1960
    158  CA       -17.5890   66.8770  -28.0250 C.3   606  ASP606      0.1840
    159  C        -18.8510   66.3780  -27.3550 C.2   606  ASP606      0.2622
    160  O        -19.5470   65.5550  -27.9000 O.2   606  ASP606     -0.2715
    161  CB       -16.3230   66.1700  -27.4640 C.3   606  ASP606      0.1450
    162  CG       -16.2080   66.1980  -25.9160 C.2   606  ASP606      0.3671
    163  OD1      -15.9160   67.2670  -25.3580 O.co2 606  ASP606     -0.2456
    164  OD2      -16.3100   65.1310  -25.2400 O.co2 606  ASP606     -0.2456
    165  N        -19.1740   66.9200  -26.1880 N.am  607  TRP607     -0.1974
    166  CA       -20.3820   66.5150  -25.4770 C.3   607  TRP607      0.1640
    167  C        -21.6670   67.1730  -25.9420 C.2   607  TRP607      0.2290
    168  O        -22.6950   67.0400  -25.2560 O.2   607  TRP607     -0.2864
    169  CB       -20.2490   66.7990  -23.9910 C.3   607  TRP607      0.0576
    170  CG       -19.7040   68.1700  -23.6930 C.ar  607  TRP607      0.0006
    171  CD1      -18.3950   68.4910  -23.4910 C.ar  607  TRP607      0.0946
    172  CD2      -20.4470   69.3840  -23.5300 C.ar  607  TRP607      0.0152
    173  NE1      -18.2820   69.8210  -23.2290 N.ar  607  TRP607     -0.2442
    174  CE2      -19.5250   70.3950  -23.2520 C.ar  607  TRP607      0.0810
    175  CE3      -21.8070   69.7140  -23.6180 C.ar  607  TRP607      0.0012
    176  CZ2      -19.9080   71.7460  -23.0600 C.ar  607  TRP607      0.0191
    177  CZ3      -22.1970   71.0490  -23.4360 C.ar  607  TRP607      0.0001
    178  CH2      -21.2560   72.0440  -23.1470 C.ar  607  TRP607      0.0015
    179  N        -11.5400   69.1310  -27.0330 N.3   629  TYR629     -0.1227
    180  CA       -10.4260   68.9710  -26.1070 C.3   629  TYR629      0.1736
    181  C        -10.0540   67.4940  -26.0580 C.2   629  TYR629      0.2595
    182  O        -10.5110   66.7380  -25.1820 O.2   629  TYR629     -0.2718
    183  CB       -10.8020   69.4870  -24.7400 C.3   629  TYR629      0.0548
    184  CG       -10.9340   70.9680  -24.7210 C.ar  629  TYR629     -0.0200
    185  CD1       -9.8020   71.7730  -24.5920 C.ar  629  TYR629     -0.0009
    186  CD2      -12.2050   71.5880  -24.8200 C.ar  629  TYR629     -0.0009
    187  CE1       -9.9030   73.1490  -24.5600 C.ar  629  TYR629      0.0417
    188  CE2      -12.3110   72.9880  -24.7710 C.ar  629  TYR629      0.0417
    189  CZ       -11.1550   73.7530  -24.6290 C.ar  629  TYR629      0.1957
    190  OH       -11.2020   75.1390  -24.6000 O.3   629  TYR629     -0.2866
    191  N         -9.2340   67.0960  -27.0160 N.am  630  LYS630     -0.1980
    192  CA        -8.7780   65.6960  -27.1330 C.3   630  LYS630      0.1596
    193  C         -7.3220   65.7830  -27.5510 C.2   630  LYS630      0.2287
    194  O         -6.8170   66.9090  -27.7120 O.2   630  LYS630     -0.2864
    195  CB        -9.5700   64.9570  -28.2180 C.3   630  LYS630      0.0298
    196  CG       -11.1120   64.9310  -28.0530 C.3   630  LYS630      0.0038
    197  CD       -11.5520   64.1640  -26.7980 C.3   630  LYS630      0.0206
    198  CE       -13.0570   64.3390  -26.5880 C.3   630  LYS630      0.1093
    199  NZ       -13.4360   63.8980  -25.2360 N.3   630  LYS630     -0.1314
    200  N        -11.4650   75.5200  -30.2840 N.3   652  GLU652     -0.1245
    201  CA       -10.7340   75.4160  -29.0310 C.3   652  GLU652      0.1567
    202  C        -10.1240   74.0430  -28.9020 C.2   652  GLU652      0.2260
    203  O        -10.7840   73.0350  -29.1810 O.2   652  GLU652     -0.2867
    204  CB       -11.6270   75.6400  -27.7950 C.3   652  GLU652      0.0388
    205  CG       -12.3570   76.9880  -27.7200 C.3   652  GLU652      0.1160
    206  CD       -13.3880   77.0770  -26.6040 C.2   652  GLU652      0.3649
    207  OE1      -13.3050   76.3490  -25.5760 O.co2 652  GLU652     -0.2457
    208  OE2      -14.3090   77.9170  -26.7280 O.co2 652  GLU652     -0.2457
    209  N         -6.5960   72.4560  -26.1080 N.3   654  HIS654     -0.1241
    210  CA        -5.3450   72.8190  -25.3900 C.3   654  HIS654      0.1621
    211  C         -4.6860   71.6050  -24.7680 C.2   654  HIS654      0.2264
    212  O         -5.3160   70.5470  -24.6590 O.2   654  HIS654     -0.2867
    213  CB        -5.5330   73.9300  -24.3130 C.3   654  HIS654      0.0745
    214  CG        -6.4870   73.6000  -23.1930 C.ar  654  HIS654      0.0817
    215  ND1       -7.3780   74.5280  -22.6900 N.ar  654  HIS654     -0.2268
    216  CD2       -6.6770   72.4690  -22.4650 C.ar  654  HIS654      0.1154
    217  CE1       -8.0880   73.9780  -21.7160 C.ar  654  HIS654      0.1986
    218  NE2       -7.6770   72.7300  -21.5550 N.ar  654  HIS654     -0.2212
    219  N         -7.7710   70.3430  -19.5350 N.3   667  LEU667     -0.1245
    220  CA        -8.5620   69.2170  -20.0120 C.3   667  LEU667      0.1561
    221  C         -7.7300   68.0590  -20.5310 C.2   667  LEU667      0.2260
    222  O         -8.1230   66.9030  -20.4320 O.2   667  LEU667     -0.2867
    223  CB        -9.5880   69.6710  -21.0630 C.3   667  LEU667      0.0270
    224  CG       -10.7410   70.3740  -20.3250 C.3   667  LEU667      0.0019
    225  CD1      -11.4890   71.2420  -21.2660 C.3   667  LEU667      0.0001
    226  CD2      -11.7090   69.4060  -19.6760 C.3   667  LEU667      0.0001
    227  N         -7.0830   77.3640  -26.9550 N.3   699  PHE699     -0.1241
    228  CA        -7.6780   78.0380  -25.7820 C.3   699  PHE699      0.1605
    229  C         -6.6840   77.8450  -24.6480 C.2   699  PHE699      0.2264
    230  O         -6.5920   76.7510  -24.1250 O.2   699  PHE699     -0.2867
    231  CB        -9.0530   77.4160  -25.4440 C.3   699  PHE699      0.0534
    232  CG        -9.8040   78.1610  -24.3890 C.ar  699  PHE699     -0.0203
    233  CD1       -9.5030   77.9780  -23.0480 C.ar  699  PHE699     -0.0042
    234  CD2      -10.8170   79.0610  -24.7360 C.ar  699  PHE699     -0.0042
    235  CE1      -10.1760   78.7110  -22.0640 C.ar  699  PHE699     -0.0003
    236  CE2      -11.5190   79.7800  -23.7650 C.ar  699  PHE699     -0.0003
    237  CZ       -11.1900   79.6100  -22.4220 C.ar  699  PHE699     -0.0000
    238  N        -10.1440   81.1970  -12.4020 N.3   709  ARG709     -0.1245
    239  CA       -10.7590   82.3410  -13.0250 C.3   709  ARG709      0.1563
    240  C        -12.0570   82.6570  -12.2460 C.2   709  ARG709      0.2260
    241  O        -12.7460   81.7280  -11.7760 O.2   709  ARG709     -0.2867
    242  CB       -10.9850   82.1260  -14.5290 C.3   709  ARG709      0.0307
    243  CG       -12.1110   81.1990  -14.9140 C.3   709  ARG709      0.0489
    244  CD       -12.0760   80.9690  -16.4230 C.3   709  ARG709      0.2205
    245  NE       -13.1750   80.0930  -16.8130 N.pl3 709  ARG709     -0.0865
    246  CZ       -13.6110   79.9290  -18.0610 C.cat 709  ARG709      0.5346
    247  NH1      -13.0030   80.5490  -19.0880 N.pl3 709  ARG709      0.1354
    248  NH2      -14.6300   79.1100  -18.2760 N.pl3 709  ARG709      0.1354
    249  N        -15.0420   83.4680  -13.0030 N.3   711  TYR711     -0.1227
    250  CA       -16.3010   82.8940  -13.4840 C.3   711  TYR711      0.1736
    251  C        -16.6410   81.5140  -12.9240 C.2   711  TYR711      0.2595
    252  O        -17.7820   81.3040  -12.4520 O.2   711  TYR711     -0.2718
    253  CB       -16.2710   82.8460  -15.0170 C.3   711  TYR711      0.0548
    254  CG       -17.4560   82.2470  -15.6950 C.ar  711  TYR711     -0.0200
    255  CD1      -18.7430   82.8130  -15.5330 C.ar  711  TYR711     -0.0009
    256  CD2      -17.3020   81.1430  -16.5570 C.ar  711  TYR711     -0.0009
    257  CE1      -19.8290   82.2970  -16.1900 C.ar  711  TYR711      0.0417
    258  CE2      -18.4040   80.6010  -17.2190 C.ar  711  TYR711      0.0417
    259  CZ       -19.6550   81.1910  -17.0370 C.ar  711  TYR711      0.1957
    260  OH       -20.7290   80.6850  -17.6900 O.3   711  TYR711     -0.2866
    261  N        -15.6880   80.5730  -12.9600 N.am  712  ASP712     -0.1974
    262  CA       -16.0130   79.1690  -12.6080 C.3   712  ASP712      0.1709
    263  C        -14.8810   78.3530  -11.9840 C.2   712  ASP712      0.2293
    264  O        -14.9920   77.1340  -11.8850 O.2   712  ASP712     -0.2864
    265  CB       -16.5550   78.4280  -13.8350 C.3   712  ASP712      0.1436
    266  CG       -15.5190   78.3140  -14.9580 C.2   712  ASP712      0.3671
    267  OD1      -14.3600   78.7470  -14.7400 O.co2 712  ASP712     -0.2456
    268  OD2      -15.8540   77.7600  -16.0420 O.co2 712  ASP712     -0.2456
    269  N        -11.8130   77.6080  -13.0480 N.3   714  GLU714     -0.1245
    270  CA       -10.8000   77.0260  -13.8880 C.3   714  GLU714      0.1567
    271  C         -9.4210   77.6400  -13.5680 C.2   714  GLU714      0.2260
    272  O         -9.2520   78.8690  -13.5990 O.2   714  GLU714     -0.2867
    273  CB       -11.1160   77.1930  -15.3770 C.3   714  GLU714      0.0388
    274  CG       -12.2140   76.3090  -15.8950 C.3   714  GLU714      0.1160
    275  CD       -12.3510   76.3850  -17.4140 C.2   714  GLU714      0.3649
    276  OE1      -11.5950   77.1480  -18.0690 O.co2 714  GLU714     -0.2457
    277  OE2      -13.2180   75.6760  -17.9450 O.co2 714  GLU714     -0.2457
    278  N         -6.0430   76.5390  -14.9240 N.3   716  TYR716     -0.1241
    279  CA        -5.3100   75.6510  -15.8080 C.3   716  TYR716      0.1605
    280  C         -4.0190   76.2500  -16.4360 C.2   716  TYR716      0.2264
    281  O         -3.9550   77.4590  -16.7300 O.2   716  TYR716     -0.2867
    282  CB        -6.2660   75.3080  -16.9350 C.3   716  TYR716      0.0534
    283  CG        -7.5730   74.6030  -16.5990 C.ar  716  TYR716     -0.0201
    284  CD1       -7.7290   73.8030  -15.4690 C.ar  716  TYR716     -0.0009
    285  CD2       -8.6140   74.6560  -17.5010 C.ar  716  TYR716     -0.0009
    286  CE1       -8.9350   73.1320  -15.2210 C.ar  716  TYR716      0.0417
    287  CE2       -9.8210   73.9880  -17.2790 C.ar  716  TYR716      0.0417
    288  CZ        -9.9770   73.2150  -16.1580 C.ar  716  TYR716      0.1957
    289  OH       -11.1820   72.5570  -16.0140 O.3   716  TYR716     -0.2866
    290  N         -2.9490   76.5670  -19.5320 N.3   718  VAL718     -0.1245
    291  CA        -3.3430   76.4740  -20.9140 C.3   718  VAL718      0.1561
    292  C         -2.8770   77.6890  -21.7280 C.2   718  VAL718      0.2260
    293  O         -3.3310   77.9190  -22.8420 O.2   718  VAL718     -0.2867
    294  CB        -4.8820   76.3030  -21.0150 C.3   718  VAL718      0.0252
    295  CG1       -5.2580   74.9470  -20.4340 C.3   718  VAL718      0.0019
    296  CG2       -5.5750   77.4300  -20.2250 C.3   718  VAL718      0.0019
@<TRIPOS>BOND
     1   200   201    1
     2   203   202    2
     3   201   202    1
     4   201   204    1
     5    69    70    1
     6   153   152    2
     7   150   151    1
     8   150   156    1
     9   152   151    1
    10   152   157   am
    11    83    84    1
    12   195   196    1
    13   195   192    1
    14   196   197    1
    15   158   157    1
    16   158   161    1
    17   158   159    1
    18   151   154    1
    19   160   159    2
    20   156   155    1
    21   122   123    1
    22   204   205    1
    23    71    70    1
    24    71    72    2
    25    70    73    1
    26   205   206    1
    27   194   193    2
    28    85    84    1
    29    85    86    2
    30   193   192    1
    31   123   126    1
    32   123   124    1
    33    84    87    1
    34   128   127    2
    35   161   162    1
    36   159   165   am
    37   130   124   am
    38   130   131    1
    39   192   191    1
    40   179   180    1
    41   191   181   am
    42   227   228    1
    43   126   127    1
    44   197   198    1
    45   124   125    2
    46   208   206   ar
    47   131   132    1
    48   131   134    1
    49   206   207   ar
    50    77    75   ar
    51    77    78   ar
    52   198   199    1
    53    75    74   ar
    54   127   129   am
    55    78    80   ar
    56    78    76   ar
    57    80    82   ar
    58   154   155    1
    59    82    81   ar
    60    76    74   ar
    61    76    79   ar
    62    74    73    1
    63    79    81   ar
    64    34    35    1
    65   165   166    1
    66   135   134    1
    67   135   136    1
    68   209   210    1
    69   180   181    1
    70   180   183    1
    71    87    88    1
    72   181   182    2
    73   132   133    2
    74   167   166    1
    75   167   168    2
    76   162   163   ar
    77   162   164   ar
    78   228   231    1
    79   228   229    1
    80    88    89   ar
    81    88    90   ar
    82    89    91   ar
    83   137   136    2
    84   166   169    1
    85   231   232    1
    86   210   211    1
    87   210   213    1
    88   142   141    2
    89    90    93   ar
    90    90    92   ar
    91    36    35    1
    92    36    37    2
    93    35    38    1
    94    93    95   ar
    95   136   138   am
    96   141   140    1
    97    91    92   ar
    98   139   140    1
    99    92    94   ar
   100   186   188   ar
   101   186   184   ar
   102   188   189   ar
   103   211   212    2
   104    95    96   ar
   105   183   184    1
   106   234   232   ar
   107   234   236   ar
   108   184   185   ar
   109   229   230    2
   110   189   190    1
   111   189   187   ar
   112   185   187   ar
   113    94    96   ar
   114   140   143    1
   115    42    43    1
   116   232   233   ar
   117   213   214    1
   118    51    50    1
   119   169   170    1
   120    39    38    1
   121    39    41    1
   122    46    43    1
   123    46    47    1
   124    38    40    1
   125   236   237   ar
   126    43    44    1
   127   170   172   ar
   128   170   171   ar
   129    48    47    1
   130    48    49    1
   131   175   172   ar
   132   175   177   ar
   133   172   174   ar
   134   171   173   ar
   135   177   178   ar
   136   174   173   ar
   137   174   176   ar
   138    50    49    2
   139    50    52    1
   140   214   215   ar
   141   214   216   ar
   142   178   176   ar
   143   233   235   ar
   144   143   144    1
   145   293   292    2
   146   215   217   ar
   147   216   218   ar
   148   237   235   ar
   149    44    45    2
   150   144   145    1
   151   145   146    1
   152   292   291    1
   153   217   218   ar
   154   225   224    1
   155   146   147    2
   156   223   224    1
   157   223   220    1
   158   294   291    1
   159   294   295    1
   160   294   296    1
   161   291   290    1
   162   148   147    1
   163    59    58    2
   164   147   149    1
   165    67    66   ar
   166   221   222    2
   167   221   220    1
   168   224   226    1
   169   120   118   ar
   170   120   121   ar
   171   220   219    1
   172   118   115   ar
   173   121   119   ar
   174    58    60   am
   175    58    57    1
   176    66    68   ar
   177    66    65    1
   178   115   113   ar
   179   115   117   ar
   180   112   113    1
   181   112   109    1
   182   247   246    1
   183   119   117   ar
   184    63    64    2
   185    63    62    1
   186   113   114   ar
   187   117   116   ar
   188    57    54    1
   189   111   110    2
   190    53    54    1
   191    33    31   ar
   192    33    32   ar
   193   114   116   ar
   194   248   246    1
   195    65    62    1
   196   110   109    1
   197    31    29   ar
   198   276   275   ar
   199   246   245    2
   200   109   108    1
   201   277   275   ar
   202    62    61    1
   203   108    99   am
   204    97    98    1
   205    54    55    1
   206    32    30   ar
   207   260   259    1
   208   104   106   ar
   209   104   102   ar
   210   106   107   ar
   211   285   287   ar
   212   285   283   ar
   213   275   274    1
   214   287   288   ar
   215   258   259   ar
   216   258   256   ar
   217   259   257   ar
   218    29    28   ar
   219    29    27   ar
   220   282   283    1
   221   282   279    1
   222    55    56    2
   223   245   244    1
   224    99    98    1
   225    99   100    2
   226    98   101    1
   227   101   102    1
   228   281   280    2
   229   102   103   ar
   230   283   284   ar
   231    30    27   ar
   232   256   254   ar
   233   107   105   ar
   234    28    26   ar
   235   280   279    1
   236   244   243    1
   237    27    25   ar
   238   257   255   ar
   239   288   289    1
   240   288   286   ar
   241   268   266   ar
   242   274   273    1
   243   279   278    1
   244   254   255   ar
   245   254   253    1
   246   103   105   ar
   247   284   286   ar
   248   273   270    1
   249    26    25   ar
   250    25    24    1
   251   253   250    1
   252   266   267   ar
   253   266   265    1
   254   243   242    1
   255    18    17    1
   256   242   239    1
   257     7     6    1
   258    24    21    1
   259   270   271    1
   260   270   269    1
   261   265   262    1
   262   272   271    2
   263    19    17    1
   264    17    16    2
   265   250   249    1
   266   250   251    1
   267     6     8    1
   268     6     5    1
   269   239   238    1
   270   239   240    1
   271   261   251   am
   272   261   262    1
   273   251   252    2
   274    20    21    1
   275    21    22    1
   276   262   263    1
   277    14    15    1
   278    14    13    1
   279    16    15    1
   280   240   241    2
   281    23    22    2
   282   263   264    2
   283     5     2    1
   284    13    10    1
   285     2     1    1
   286     2     3    1
   287    10    11    1
   288    10     9    1
   289     3     4    2
   290    11    12    2
