@<TRIPOS>MOLECULE
tmp/4bq5A00.pdb
 203 196 0 0 0
SMALL
GASTEIGER

@<TRIPOS>ATOM
      1  N        -14.8050    7.0640  -31.7470 N.3   287  ILE287     -0.1245
      2  CA       -16.0720    6.3210  -31.7980 C.3   287  ILE287      0.1561
      3  C        -16.0980    5.4070  -33.0250 C.2   287  ILE287      0.2260
      4  O        -16.9560    5.5150  -33.8780 O.2   287  ILE287     -0.2867
      5  CB       -17.3240    7.2530  -31.7470 C.3   287  ILE287      0.0252
      6  CG1      -17.2470    8.2400  -30.5660 C.3   287  ILE287      0.0019
      7  CG2      -18.6060    6.4490  -31.6340 C.3   287  ILE287      0.0019
      8  CD1      -17.4740    7.5800  -29.2170 C.3   287  ILE287      0.0001
      9  N        -16.9270    2.2580  -33.2700 N.3   289  ARG289     -0.1245
     10  CA       -17.6520    1.2490  -32.5220 C.3   289  ARG289      0.1563
     11  C        -19.1340    1.5240  -32.7960 C.2   289  ARG289      0.2260
     12  O        -19.4840    2.5120  -33.4510 O.2   289  ARG289     -0.2867
     13  CB       -17.3390    1.3300  -31.0230 C.3   289  ARG289      0.0307
     14  CG       -17.8110    2.6330  -30.3540 C.3   289  ARG289      0.0489
     15  CD       -17.5770    2.6580  -28.8500 C.3   289  ARG289      0.2205
     16  NE       -18.1560    3.8450  -28.2120 N.pl3 289  ARG289     -0.0865
     17  CZ       -17.9430    4.1680  -26.9360 C.cat 289  ARG289      0.5346
     18  NH1      -17.1680    3.3740  -26.1770 N.pl3 289  ARG289      0.1354
     19  NH2      -18.5000    5.2690  -26.4140 N.pl3 289  ARG289      0.1354
     20  N        -22.8190    4.0230  -29.7270 N.3   292  ASN292     -0.1240
     21  CA       -23.5010    5.2700  -29.7170 C.3   292  ASN292      0.1653
     22  C        -24.4150    5.4660  -30.9240 C.2   292  ASN292      0.2266
     23  O        -24.9160    6.5660  -31.1360 O.2   292  ASN292     -0.2867
     24  CB       -22.4580    6.4070  -29.5390 C.3   292  ASN292      0.1155
     25  CG       -21.6750    6.2740  -28.2290 C.2   292  ASN292      0.2627
     26  OD1      -20.4350    6.1600  -28.2070 O.2   292  ASN292     -0.2716
     27  ND2      -22.4110    6.2290  -27.1290 N.am  292  ASN292     -0.0877
     28  N        -23.3810    4.0830  -21.3410 N.3   318  ASP318     -0.1239
     29  CA       -23.1800    4.7370  -22.6410 C.3   318  ASP318      0.1674
     30  C        -22.1110    4.1020  -23.5460 C.2   318  ASP318      0.2266
     31  O        -22.1690    4.2410  -24.7770 O.2   318  ASP318     -0.2867
     32  CB       -22.8040    6.2000  -22.4380 C.3   318  ASP318      0.1410
     33  CG       -21.4610    6.3620  -21.7710 C.2   318  ASP318      0.3668
     34  OD1      -20.4240    6.3830  -22.4820 O.co2 318  ASP318     -0.2456
     35  OD2      -21.4530    6.4440  -20.5250 O.co2 318  ASP318     -0.2456
     36  N        -12.0760    5.5780  -28.2740 N.3   417  TRP417     -0.1241
     37  CA       -13.2960    4.7720  -28.2620 C.3   417  TRP417      0.1605
     38  C        -13.4140    3.9200  -29.5040 C.2   417  TRP417      0.2264
     39  O        -14.4760    3.8330  -30.1460 O.2   417  TRP417     -0.2867
     40  CB       -14.5510    5.6330  -28.0820 C.3   417  TRP417      0.0550
     41  CG       -14.5740    6.3550  -26.7940 C.ar  417  TRP417      0.0003
     42  CD1      -14.6110    5.8030  -25.5340 C.ar  417  TRP417      0.0946
     43  CD2      -14.5290    7.7910  -26.6060 C.ar  417  TRP417      0.0152
     44  NE1      -14.5840    6.8100  -24.5760 N.ar  417  TRP417     -0.2442
     45  CE2      -14.5610    8.0320  -25.2060 C.ar  417  TRP417      0.0810
     46  CE3      -14.4870    8.8810  -27.4820 C.ar  417  TRP417      0.0012
     47  CZ2      -14.5430    9.3110  -24.6670 C.ar  417  TRP417      0.0191
     48  CZ3      -14.4700   10.1790  -26.9400 C.ar  417  TRP417      0.0001
     49  CH2      -14.4890   10.3780  -25.5380 C.ar  417  TRP417      0.0015
     50  N        -12.6010    3.9880  -18.3980 N.3   435  TRP435     -0.1241
     51  CA       -13.3400    4.8480  -17.4850 C.3   435  TRP435      0.1605
     52  C        -13.2140    4.2830  -16.0770 C.2   435  TRP435      0.2264
     53  O        -13.3330    3.0490  -15.8780 O.2   435  TRP435     -0.2867
     54  CB       -14.8250    4.7970  -17.7810 C.3   435  TRP435      0.0550
     55  CG       -15.2840    5.1050  -19.1690 C.ar  435  TRP435      0.0003
     56  CD1      -15.4860    4.2060  -20.2060 C.ar  435  TRP435      0.0946
     57  CD2      -15.6890    6.3860  -19.6640 C.ar  435  TRP435      0.0152
     58  NE1      -15.9880    4.8660  -21.3110 N.ar  435  TRP435     -0.2442
     59  CE2      -16.1200    6.2010  -21.0050 C.ar  435  TRP435      0.0810
     60  CE3      -15.7280    7.6720  -19.1050 C.ar  435  TRP435      0.0012
     61  CZ2      -16.5700    7.2640  -21.8000 C.ar  435  TRP435      0.0191
     62  CZ3      -16.1970    8.7520  -19.8990 C.ar  435  TRP435      0.0001
     63  CH2      -16.6120    8.5320  -21.2240 C.ar  435  TRP435      0.0015
     64  N        -22.8000   15.3800  -15.3920 N.3   450  TRP450     -0.1241
     65  CA       -22.7000   13.9630  -15.7100 C.3   450  TRP450      0.1605
     66  C        -22.3840   13.1170  -14.4790 C.2   450  TRP450      0.2264
     67  O        -21.7390   12.0820  -14.5920 O.2   450  TRP450     -0.2867
     68  CB       -21.6300   13.7350  -16.7860 C.3   450  TRP450      0.0550
     69  CG       -21.9090   14.4450  -18.0800 C.ar  450  TRP450      0.0003
     70  CD1      -22.5680   13.9400  -19.1800 C.ar  450  TRP450      0.0946
     71  CD2      -21.5460   15.7910  -18.4110 C.ar  450  TRP450      0.0152
     72  NE1      -22.6290   14.8970  -20.1750 N.ar  450  TRP450     -0.2442
     73  CE2      -22.0130   16.0400  -19.7290 C.ar  450  TRP450      0.0810
     74  CE3      -20.8690   16.8100  -17.7250 C.ar  450  TRP450      0.0012
     75  CZ2      -21.8290   17.2740  -20.3710 C.ar  450  TRP450      0.0191
     76  CZ3      -20.6830   18.0390  -18.3610 C.ar  450  TRP450      0.0001
     77  CH2      -21.1670   18.2600  -19.6740 C.ar  450  TRP450      0.0015
     78  N        -12.9670   11.3160  -19.4530 N.3   489  ASN489     -0.1225
     79  CA       -13.3260   12.2830  -20.4880 C.3   489  ASN489      0.1785
     80  C        -14.0630   13.4580  -19.9030 C.2   489  ASN489      0.2597
     81  O        -15.1460   13.3130  -19.3460 O.2   489  ASN489     -0.2718
     82  CB       -14.1780   11.6340  -21.5800 C.3   489  ASN489      0.1169
     83  CG       -14.4360   12.5540  -22.7470 C.2   489  ASN489      0.2627
     84  OD1      -13.5190   13.1250  -23.3430 O.2   489  ASN489     -0.2716
     85  ND2      -15.7140   12.7220  -23.0770 N.am  489  ASN489     -0.0877
     86  N        -13.4510   14.6240  -20.0460 N.am  490  GLN490     -0.1979
     87  CA       -14.0260   15.8950  -19.5970 C.3   490  GLN490      0.1601
     88  C        -14.6250   15.8280  -18.2270 C.2   490  GLN490      0.2287
     89  O        -15.8470   15.9960  -18.0490 O.2   490  GLN490     -0.2864
     90  CB       -15.0790   16.3960  -20.5900 C.3   490  GLN490      0.0394
     91  CG       -14.5730   16.3890  -22.0160 C.3   490  GLN490      0.0908
     92  CD       -15.6460   16.6850  -23.0260 C.2   490  GLN490      0.2608
     93  OE1      -15.3720   17.3480  -24.0170 O.2   490  GLN490     -0.2717
     94  NE2      -16.8690   16.1670  -22.8070 N.am  490  GLN490     -0.0878
     95  N        -13.9200   22.1810  -29.3430 N.3   628  TYR628     -0.1241
     96  CA       -14.9370   22.3810  -30.3410 C.3   628  TYR628      0.1605
     97  C        -15.0180   23.8380  -30.7000 C.2   628  TYR628      0.2264
     98  O        -15.8430   24.5830  -30.1630 O.2   628  TYR628     -0.2867
     99  CB       -16.2820   21.8670  -29.8210 C.3   628  TYR628      0.0534
    100  CG       -16.3250   20.3900  -29.7770 C.ar  628  TYR628     -0.0201
    101  CD1      -16.5330   19.6700  -30.9510 C.ar  628  TYR628     -0.0009
    102  CD2      -16.1030   19.6970  -28.5860 C.ar  628  TYR628     -0.0009
    103  CE1      -16.5790   18.3020  -30.9360 C.ar  628  TYR628      0.0417
    104  CE2      -16.1430   18.2990  -28.5420 C.ar  628  TYR628      0.0417
    105  CZ       -16.3720   17.6020  -29.7330 C.ar  628  TYR628      0.1957
    106  OH       -16.4220   16.2260  -29.7920 O.3   628  TYR628     -0.2866
    107  N        -10.8650   15.6560  -29.5400 N.3   651  GLU651     -0.1245
    108  CA       -12.1520   15.8460  -30.2110 C.3   651  GLU651      0.1567
    109  C        -12.3290   17.2030  -30.8840 C.2   651  GLU651      0.2260
    110  O        -11.9550   18.2590  -30.3270 O.2   651  GLU651     -0.2867
    111  CB       -13.2780   15.7160  -29.1980 C.3   651  GLU651      0.0388
    112  CG       -13.6850   14.2920  -28.8530 C.3   651  GLU651      0.1160
    113  CD       -14.5610   14.2370  -27.6350 C.2   651  GLU651      0.3649
    114  OE1      -15.6480   14.8890  -27.6370 O.co2 651  GLU651     -0.2457
    115  OE2      -14.1360   13.5470  -26.6780 O.co2 651  GLU651     -0.2457
    116  N        -15.1390   18.8440  -34.3570 N.3   653  HIS653     -0.1241
    117  CA       -15.9860   18.5810  -35.5350 C.3   653  HIS653      0.1621
    118  C        -16.6310   19.8390  -36.1340 C.2   653  HIS653      0.2264
    119  O        -16.6420   20.9150  -35.4970 O.2   653  HIS653     -0.2867
    120  CB       -17.0430   17.4810  -35.2780 C.3   653  HIS653      0.0745
    121  CG       -18.1330   17.8530  -34.3050 C.ar  653  HIS653      0.0817
    122  ND1      -18.6260   16.9640  -33.3720 N.ar  653  HIS653     -0.2268
    123  CD2      -18.8340   19.0040  -34.1310 C.ar  653  HIS653      0.1154
    124  CE1      -19.5740   17.5480  -32.6580 C.ar  653  HIS653      0.1986
    125  NE2      -19.7340   18.7800  -33.1100 N.ar  653  HIS653     -0.2212
    126  N        -21.7440   21.0360  -32.8840 N.3   666  LEU666     -0.1245
    127  CA       -21.3130   22.1260  -32.0450 C.3   666  LEU666      0.1561
    128  C        -20.7570   23.2810  -32.8720 C.2   666  LEU666      0.2260
    129  O        -20.8980   24.4200  -32.4780 O.2   666  LEU666     -0.2867
    130  CB       -20.2800   21.6210  -31.0430 C.3   666  LEU666      0.0270
    131  CG       -21.0200   20.9560  -29.8970 C.3   666  LEU666      0.0019
    132  CD1      -20.1720   19.8510  -29.3670 C.3   666  LEU666      0.0001
    133  CD2      -21.2800   22.0060  -28.8100 C.3   666  LEU666      0.0001
    134  N        -14.2740   13.9590  -33.8910 N.3   698  PHE698     -0.1241
    135  CA       -15.4830   13.3370  -33.3240 C.3   698  PHE698      0.1605
    136  C        -16.6840   13.5640  -34.2440 C.2   698  PHE698      0.2264
    137  O        -17.2420   14.6790  -34.2580 O.2   698  PHE698     -0.2867
    138  CB       -15.7990   13.9200  -31.9450 C.3   698  PHE698      0.0534
    139  CG       -16.8370   13.1220  -31.1640 C.ar  698  PHE698     -0.0203
    140  CD1      -18.2020   13.2970  -31.3880 C.ar  698  PHE698     -0.0042
    141  CD2      -16.4320   12.2000  -30.1730 C.ar  698  PHE698     -0.0042
    142  CE1      -19.1460   12.5320  -30.6620 C.ar  698  PHE698     -0.0003
    143  CE2      -17.3630   11.4620  -29.4500 C.ar  698  PHE698     -0.0003
    144  CZ       -18.7240   11.6250  -29.6880 C.ar  698  PHE698     -0.0000
    145  N        -28.8630   10.1860  -30.3780 N.3   708  ARG708     -0.1245
    146  CA       -28.2830    8.9830  -29.7400 C.3   708  ARG708      0.1563
    147  C        -28.9830    8.7020  -28.4120 C.2   708  ARG708      0.2260
    148  O        -29.3380    9.6460  -27.6840 O.2   708  ARG708     -0.2867
    149  CB       -26.7640    9.1190  -29.5290 C.3   708  ARG708      0.0307
    150  CG       -26.3240   10.2040  -28.5270 C.3   708  ARG708      0.0489
    151  CD       -24.8110   10.3510  -28.5000 C.3   708  ARG708      0.2205
    152  NE       -24.3350   11.2930  -27.4780 N.pl3 708  ARG708     -0.0865
    153  CZ       -23.0550   11.4240  -27.1170 C.cat 708  ARG708      0.5346
    154  NH1      -22.1120   10.6790  -27.6990 N.pl3 708  ARG708      0.1354
    155  NH2      -22.7170   12.2980  -26.1710 N.pl3 708  ARG708      0.1354
    156  N        -28.1310    7.8680  -25.4370 N.3   710  TYR710     -0.1227
    157  CA       -27.6150    8.4800  -24.2120 C.3   710  TYR710      0.1736
    158  C        -28.2060    9.8510  -23.8270 C.2   710  TYR710      0.2595
    159  O        -28.7270   10.0140  -22.6970 O.2   710  TYR710     -0.2718
    160  CB       -26.1030    8.5850  -24.3210 C.3   710  TYR710      0.0548
    161  CG       -25.3670    9.0760  -23.1010 C.ar  710  TYR710     -0.0200
    162  CD1      -25.4730    8.4230  -21.8610 C.ar  710  TYR710     -0.0009
    163  CD2      -24.4850   10.1570  -23.2100 C.ar  710  TYR710     -0.0009
    164  CE1      -24.7490    8.8640  -20.7560 C.ar  710  TYR710      0.0417
    165  CE2      -23.7600   10.6110  -22.1210 C.ar  710  TYR710      0.0417
    166  CZ       -23.8820    9.9710  -20.9030 C.ar  710  TYR710      0.1957
    167  OH       -23.1250   10.4580  -19.8520 O.3   710  TYR710     -0.2866
    168  N        -28.1140   10.8120  -24.7510 N.am  711  ASP711     -0.1974
    169  CA       -28.4300   12.1890  -24.4420 C.3   711  ASP711      0.1709
    170  C        -29.0880   12.9850  -25.5590 C.2   711  ASP711      0.2293
    171  O        -29.1390   14.2230  -25.4510 O.2   711  ASP711     -0.2864
    172  CB       -27.1590   12.9390  -23.9790 C.3   711  ASP711      0.1436
    173  CG       -26.0750   13.0290  -25.0680 C.2   711  ASP711      0.3671
    174  OD1      -26.3200   12.6210  -26.2190 O.co2 711  ASP711     -0.2456
    175  OD2      -24.9560   13.4980  -24.7610 O.co2 711  ASP711     -0.2456
    176  N        -28.0750   13.6950  -28.7310 N.3   713  GLU713     -0.1245
    177  CA       -27.3000   14.3170  -29.8080 C.3   713  GLU713      0.1567
    178  C        -27.7360   13.7360  -31.1670 C.2   713  GLU713      0.2260
    179  O        -27.7180   12.5260  -31.3630 O.2   713  GLU713     -0.2867
    180  CB       -25.7990   14.1530  -29.6160 C.3   713  GLU713      0.0388
    181  CG       -25.2200   14.8950  -28.4170 C.3   713  GLU713      0.1160
    182  CD       -23.6870   14.8500  -28.3640 C.2   713  GLU713      0.3649
    183  OE1      -23.0450   14.0370  -29.0910 O.co2 713  GLU713     -0.2457
    184  OE2      -23.1140   15.6520  -27.5800 O.co2 713  GLU713     -0.2457
    185  N        -26.4570   14.8580  -34.4290 N.3   715  TYR715     -0.1241
    186  CA       -25.5220   15.6750  -35.1980 C.3   715  TYR715      0.1605
    187  C        -24.9630   15.1030  -36.5300 C.2   715  TYR715      0.2264
    188  O        -24.6520   13.9390  -36.6460 O.2   715  TYR715     -0.2867
    189  CB       -24.3130   16.0780  -34.3230 C.3   715  TYR715      0.0534
    190  CG       -24.5690   16.8210  -33.0210 C.ar  715  TYR715     -0.0201
    191  CD1      -25.7140   17.5840  -32.8170 C.ar  715  TYR715     -0.0009
    192  CD2      -23.6200   16.7810  -32.0020 C.ar  715  TYR715     -0.0009
    193  CE1      -25.9180   18.2540  -31.6160 C.ar  715  TYR715      0.0417
    194  CE2      -23.8050   17.4590  -30.8040 C.ar  715  TYR715      0.0417
    195  CZ       -24.9530   18.1930  -30.6090 C.ar  715  TYR715      0.1957
    196  OH       -25.1140   18.8700  -29.4300 O.3   715  TYR715     -0.2866
    197  N        -22.0310   14.9660  -37.6680 N.3   717  VAL717     -0.1245
    198  CA       -20.6100   15.0060  -37.3790 C.3   717  VAL717      0.1561
    199  C        -19.8140   13.8100  -37.8780 C.2   717  VAL717      0.2260
    200  O        -18.6940   13.5490  -37.4210 O.2   717  VAL717     -0.2867
    201  CB       -20.3790   15.2680  -35.8800 C.3   717  VAL717      0.0252
    202  CG1      -20.8710   16.6640  -35.5630 C.3   717  VAL717      0.0019
    203  CG2      -21.1520   14.2790  -35.0330 C.3   717  VAL717      0.0019
@<TRIPOS>BOND
     1   199   200    2
     2   199   198    1
     3   197   198    1
     4   198   201    1
     5   188   187    2
     6   187   186    1
     7   118   117    1
     8   118   119    2
     9   201   202    1
    10   201   203    1
    11   117   120    1
    12   117   116    1
    13   120   121    1
    14   186   185    1
    15   186   189    1
    16   189   190    1
    17   121   123   ar
    18   121   122   ar
    19   137   136    2
    20   136   135    1
    21   123   125   ar
    22   134   135    1
    23     4     3    2
    24    12    11    2
    25   122   124   ar
    26   135   138    1
    27     9    10    1
    28   125   124   ar
    29     3     2    1
    30   190   191   ar
    31   190   192   ar
    32   126   127    1
    33   128   129    2
    34   128   127    1
    35   191   193   ar
    36    11    10    1
    37    10    13    1
    38   127   130    1
    39   192   194   ar
    40   138   139    1
    41     2     1    1
    42     2     5    1
    43     5     7    1
    44     5     6    1
    45   193   195   ar
    46   140   139   ar
    47   140   142   ar
    48   179   178    2
    49   178   177    1
    50   139   141   ar
    51    23    22    2
    52   130   131    1
    53    13    14    1
    54   101   103   ar
    55   101   100   ar
    56   103   105   ar
    57    22    21    1
    58   109   110    2
    59   109   108    1
    60   194   195   ar
    61    97    96    1
    62    97    98    2
    63   142   144   ar
    64   195   196    1
    65     6     8    1
    66   145   146    1
    67    14    15    1
    68    96    99    1
    69    96    95    1
    70   108   107    1
    71   108   111    1
    72   141   143   ar
    73    39    38    2
    74   131   132    1
    75   131   133    1
    76    99   100    1
    77   177   180    1
    78   177   176    1
    79   106   105    1
    80   100   102   ar
    81   146   149    1
    82   146   147    1
    83   105   104   ar
    84    20    21    1
    85    21    24    1
    86   144   143   ar
    87   180   181    1
    88    24    25    1
    89   149   150    1
    90    38    37    1
    91   111   112    1
    92   183   182   ar
    93   112   113    1
    94    15    16    1
    95   102   104   ar
    96   150   151    1
    97   151   152    1
    98   181   182    1
    99   147   148    2
   100   182   184   ar
   101    36    37    1
   102    37    40    1
   103    25    26    2
   104    25    27   am
   105    16    17    2
   106    40    41    1
   107   154   153    1
   108   114   113   ar
   109   113   115   ar
   110    46    48   ar
   111    46    43   ar
   112   152   153    2
   113   153   155    1
   114    48    49   ar
   115    17    19    1
   116    17    18    1
   117    41    43   ar
   118    41    42   ar
   119    43    45   ar
   120   174   173   ar
   121   170   171    2
   122   170   169    1
   123    49    47   ar
   124    42    44   ar
   125   156   157    1
   126    45    47   ar
   127    45    44   ar
   128   173   175   ar
   129   173   172    1
   130    31    30    2
   131   168   169    1
   132   168   158   am
   133   169   172    1
   134   160   157    1
   135   160   161    1
   136   157   158    1
   137    93    92    2
   138   158   159    2
   139    30    29    1
   140    84    83    2
   141   163   161   ar
   142   163   165   ar
   143   161   162   ar
   144    85    83   am
   145    92    94   am
   146    92    91    1
   147    83    82    1
   148    29    32    1
   149    29    28    1
   150    34    33   ar
   151    32    33    1
   152   165   166   ar
   153    91    90    1
   154   162   164   ar
   155    61    63   ar
   156    61    59   ar
   157    33    35   ar
   158    82    79    1
   159    58    59   ar
   160    58    56   ar
   161    63    62   ar
   162    59    57   ar
   163   166   164   ar
   164   166   167    1
   165    90    87    1
   166    79    80    1
   167    79    78    1
   168    75    73   ar
   169    75    77   ar
   170    56    55   ar
   171    72    73   ar
   172    72    70   ar
   173    86    80   am
   174    86    87    1
   175    80    81    2
   176    62    60   ar
   177    73    71   ar
   178    77    76   ar
   179    57    55   ar
   180    57    60   ar
   181    87    88    1
   182    70    69   ar
   183    55    54    1
   184    71    69   ar
   185    71    74   ar
   186    50    51    1
   187    76    74   ar
   188    88    89    2
   189    69    68    1
   190    54    51    1
   191    51    52    1
   192    68    65    1
   193    52    53    2
   194    65    64    1
   195    65    66    1
   196    67    66    2
