@<TRIPOS>MOLECULE
tmp/4bq5A01.pdb
 173 168 0 0 0
SMALL
GASTEIGER

@<TRIPOS>ATOM
      1  N        -30.5490   19.1540  -21.9230 N.3   131  LEU131     -0.1245
      2  CA       -30.3680   20.2130  -22.9250 C.3   131  LEU131      0.1561
      3  C        -31.3150   20.0270  -24.1140 C.2   131  LEU131      0.2260
      4  O        -31.6440   21.0090  -24.7970 O.2   131  LEU131     -0.2867
      5  CB       -28.8960   20.3440  -23.3870 C.3   131  LEU131      0.0270
      6  CG       -27.8120   20.7370  -22.3540 C.3   131  LEU131      0.0019
      7  CD1      -26.4770   20.9880  -23.0360 C.3   131  LEU131      0.0001
      8  CD2      -28.2330   21.9480  -21.5080 C.3   131  LEU131      0.0001
      9  N        -31.7350   16.9950  -29.5950 N.3   138  ARG138     -0.1245
     10  CA       -31.0840   18.2190  -29.1770 C.3   138  ARG138      0.1563
     11  C        -31.7010   19.4550  -29.8580 C.2   138  ARG138      0.2260
     12  O        -31.7660   20.5330  -29.2530 O.2   138  ARG138     -0.2867
     13  CB       -29.5640   18.1680  -29.3740 C.3   138  ARG138      0.0307
     14  CG       -28.7980   19.3120  -28.6930 C.3   138  ARG138      0.0489
     15  CD       -29.0200   19.3580  -27.1810 C.3   138  ARG138      0.2205
     16  NE       -28.7340   18.0500  -26.6140 N.pl3 138  ARG138     -0.0865
     17  CZ       -27.5720   17.6770  -26.1060 C.cat 138  ARG138      0.5346
     18  NH1      -26.5570   18.5250  -26.0500 N.pl3 138  ARG138      0.1354
     19  NH2      -27.4230   16.4330  -25.6540 N.pl3 138  ARG138      0.1354
     20  N        -28.1880   25.2740  -25.7760 N.3   155  TRP155     -0.1241
     21  CA       -28.3930   25.1190  -24.3110 C.3   155  TRP155      0.1605
     22  C        -29.0800   26.3550  -23.7250 C.2   155  TRP155      0.2264
     23  O        -29.2130   27.3840  -24.4160 O.2   155  TRP155     -0.2867
     24  CB       -27.0570   24.8850  -23.5900 C.3   155  TRP155      0.0550
     25  CG       -25.9130   25.7240  -24.1510 C.ar  155  TRP155      0.0003
     26  CD1      -25.6220   27.0320  -23.8480 C.ar  155  TRP155      0.0946
     27  CD2      -24.8940   25.2930  -25.0660 C.ar  155  TRP155      0.0152
     28  NE1      -24.5100   27.4410  -24.5340 N.ar  155  TRP155     -0.2442
     29  CE2      -24.0470   26.4020  -25.2970 C.ar  155  TRP155      0.0810
     30  CE3      -24.6330   24.0870  -25.7320 C.ar  155  TRP155      0.0012
     31  CZ2      -22.9570   26.3460  -26.1610 C.ar  155  TRP155      0.0191
     32  CZ3      -23.5460   24.0270  -26.5880 C.ar  155  TRP155      0.0001
     33  CH2      -22.7230   25.1560  -26.7980 C.ar  155  TRP155      0.0015
     34  N        -22.8000   15.3800  -15.3920 N.3   450  TRP450     -0.1241
     35  CA       -22.7000   13.9630  -15.7100 C.3   450  TRP450      0.1605
     36  C        -22.3840   13.1170  -14.4790 C.2   450  TRP450      0.2264
     37  O        -21.7390   12.0820  -14.5920 O.2   450  TRP450     -0.2867
     38  CB       -21.6300   13.7350  -16.7860 C.3   450  TRP450      0.0550
     39  CG       -21.9090   14.4450  -18.0800 C.ar  450  TRP450      0.0003
     40  CD1      -22.5680   13.9400  -19.1800 C.ar  450  TRP450      0.0946
     41  CD2      -21.5460   15.7910  -18.4110 C.ar  450  TRP450      0.0152
     42  NE1      -22.6290   14.8970  -20.1750 N.ar  450  TRP450     -0.2442
     43  CE2      -22.0130   16.0400  -19.7290 C.ar  450  TRP450      0.0810
     44  CE3      -20.8690   16.8100  -17.7250 C.ar  450  TRP450      0.0012
     45  CZ2      -21.8290   17.2740  -20.3710 C.ar  450  TRP450      0.0191
     46  CZ3      -20.6830   18.0390  -18.3610 C.ar  450  TRP450      0.0001
     47  CH2      -21.1670   18.2600  -19.6740 C.ar  450  TRP450      0.0015
     48  N        -12.9670   11.3160  -19.4530 N.3   489  ASN489     -0.1225
     49  CA       -13.3260   12.2830  -20.4880 C.3   489  ASN489      0.1785
     50  C        -14.0630   13.4580  -19.9030 C.2   489  ASN489      0.2597
     51  O        -15.1460   13.3130  -19.3460 O.2   489  ASN489     -0.2718
     52  CB       -14.1780   11.6340  -21.5800 C.3   489  ASN489      0.1169
     53  CG       -14.4360   12.5540  -22.7470 C.2   489  ASN489      0.2627
     54  OD1      -13.5190   13.1250  -23.3430 O.2   489  ASN489     -0.2716
     55  ND2      -15.7140   12.7220  -23.0770 N.am  489  ASN489     -0.0877
     56  N        -13.4510   14.6240  -20.0460 N.am  490  GLN490     -0.1979
     57  CA       -14.0260   15.8950  -19.5970 C.3   490  GLN490      0.1601
     58  C        -14.6250   15.8280  -18.2270 C.2   490  GLN490      0.2287
     59  O        -15.8470   15.9960  -18.0490 O.2   490  GLN490     -0.2864
     60  CB       -15.0790   16.3960  -20.5900 C.3   490  GLN490      0.0394
     61  CG       -14.5730   16.3890  -22.0160 C.3   490  GLN490      0.0908
     62  CD       -15.6460   16.6850  -23.0260 C.2   490  GLN490      0.2608
     63  OE1      -15.3720   17.3480  -24.0170 O.2   490  GLN490     -0.2717
     64  NE2      -16.8690   16.1670  -22.8070 N.am  490  GLN490     -0.0878
     65  N        -15.5650   25.1130  -13.6780 N.3   495  ARG495     -0.1245
     66  CA       -15.7820   25.9090  -14.9010 C.3   495  ARG495      0.1563
     67  C        -15.0780   27.2930  -14.8200 C.2   495  ARG495      0.2260
     68  O        -14.7340   27.7460  -13.7180 O.2   495  ARG495     -0.2867
     69  CB       -17.2830   26.0650  -15.1950 C.3   495  ARG495      0.0307
     70  CG       -17.9810   24.7770  -15.5920 C.3   495  ARG495      0.0489
     71  CD       -19.1350   25.0240  -16.5510 C.3   495  ARG495      0.2205
     72  NE       -19.6130   23.7630  -17.0870 N.pl3 495  ARG495     -0.0865
     73  CZ       -20.1250   23.5740  -18.2990 C.cat 495  ARG495      0.5346
     74  NH1      -20.2850   24.5710  -19.1810 N.pl3 495  ARG495      0.1354
     75  NH2      -20.4720   22.3510  -18.6250 N.pl3 495  ARG495      0.1354
     76  N        -12.0730   19.5520  -21.6920 N.3   604  PRO604     -0.2102
     77  CA       -12.9290   20.4390  -22.4970 C.3   604  PRO604      0.1504
     78  C        -12.5530   21.8990  -22.2560 C.2   604  PRO604      0.2576
     79  O        -11.9410   22.1990  -21.2330 O.2   604  PRO604     -0.2718
     80  CB       -14.3150   20.2030  -21.9110 C.3   604  PRO604      0.0282
     81  CG       -14.0540   19.8570  -20.4780 C.3   604  PRO604      0.0208
     82  CD       -12.7340   19.1210  -20.4460 C.3   604  PRO604      0.0893
     83  N        -12.9530   22.7820  -23.1780 N.am  605  ASP605     -0.1960
     84  CA       -12.7770   24.2230  -23.0120 C.3   605  ASP605      0.1840
     85  C        -13.3980   24.7540  -21.7190 C.2   605  ASP605      0.2622
     86  O        -12.8920   25.7220  -21.1140 O.2   605  ASP605     -0.2715
     87  CB       -13.2820   25.0010  -24.2560 C.3   605  ASP605      0.1450
     88  CG       -14.8270   25.0750  -24.3740 C.2   605  ASP605      0.3671
     89  OD1      -15.4840   24.0140  -24.4170 O.co2 605  ASP605     -0.2456
     90  OD2      -15.3780   26.1950  -24.4850 O.co2 605  ASP605     -0.2456
     91  N        -14.4790   24.1050  -21.2820 N.am  606  TRP606     -0.1974
     92  CA       -15.1940   24.4840  -20.0570 C.3   606  TRP606      0.1640
     93  C        -14.7590   23.7170  -18.8070 C.2   606  TRP606      0.2290
     94  O        -15.5060   23.6820  -17.8230 O.2   606  TRP606     -0.2864
     95  CB       -16.7040   24.2830  -20.2650 C.3   606  TRP606      0.0576
     96  CG       -17.0290   22.9510  -20.8790 C.ar  606  TRP606      0.0006
     97  CD1      -17.2090   22.6870  -22.2110 C.ar  606  TRP606      0.0946
     98  CD2      -17.1880   21.7020  -20.1960 C.ar  606  TRP606      0.0152
     99  NE1      -17.4860   21.3620  -22.4000 N.ar  606  TRP606     -0.2442
    100  CE2      -17.4740   20.7240  -21.1840 C.ar  606  TRP606      0.0810
    101  CE3      -17.1170   21.3090  -18.8470 C.ar  606  TRP606      0.0012
    102  CZ2      -17.6940   19.3770  -20.8690 C.ar  606  TRP606      0.0191
    103  CZ3      -17.3380   19.9450  -18.5250 C.ar  606  TRP606      0.0001
    104  CH2      -17.6190   19.0040  -19.5450 C.ar  606  TRP606      0.0015
    105  N        -13.9200   22.1810  -29.3430 N.3   628  TYR628     -0.1241
    106  CA       -14.9370   22.3810  -30.3410 C.3   628  TYR628      0.1605
    107  C        -15.0180   23.8380  -30.7000 C.2   628  TYR628      0.2264
    108  O        -15.8430   24.5830  -30.1630 O.2   628  TYR628     -0.2867
    109  CB       -16.2820   21.8670  -29.8210 C.3   628  TYR628      0.0534
    110  CG       -16.3250   20.3900  -29.7770 C.ar  628  TYR628     -0.0201
    111  CD1      -16.5330   19.6700  -30.9510 C.ar  628  TYR628     -0.0009
    112  CD2      -16.1030   19.6970  -28.5860 C.ar  628  TYR628     -0.0009
    113  CE1      -16.5790   18.3020  -30.9360 C.ar  628  TYR628      0.0417
    114  CE2      -16.1430   18.2990  -28.5420 C.ar  628  TYR628      0.0417
    115  CZ       -16.3720   17.6020  -29.7330 C.ar  628  TYR628      0.1957
    116  OH       -16.4220   16.2260  -29.7920 O.3   628  TYR628     -0.2866
    117  N        -10.8650   15.6560  -29.5400 N.3   651  GLU651     -0.1245
    118  CA       -12.1520   15.8460  -30.2110 C.3   651  GLU651      0.1567
    119  C        -12.3290   17.2030  -30.8840 C.2   651  GLU651      0.2260
    120  O        -11.9550   18.2590  -30.3270 O.2   651  GLU651     -0.2867
    121  CB       -13.2780   15.7160  -29.1980 C.3   651  GLU651      0.0388
    122  CG       -13.6850   14.2920  -28.8530 C.3   651  GLU651      0.1160
    123  CD       -14.5610   14.2370  -27.6350 C.2   651  GLU651      0.3649
    124  OE1      -15.6480   14.8890  -27.6370 O.co2 651  GLU651     -0.2457
    125  OE2      -14.1360   13.5470  -26.6780 O.co2 651  GLU651     -0.2457
    126  N        -21.7440   21.0360  -32.8840 N.3   666  LEU666     -0.1245
    127  CA       -21.3130   22.1260  -32.0450 C.3   666  LEU666      0.1561
    128  C        -20.7570   23.2810  -32.8720 C.2   666  LEU666      0.2260
    129  O        -20.8980   24.4200  -32.4780 O.2   666  LEU666     -0.2867
    130  CB       -20.2800   21.6210  -31.0430 C.3   666  LEU666      0.0270
    131  CG       -21.0200   20.9560  -29.8970 C.3   666  LEU666      0.0019
    132  CD1      -20.1720   19.8510  -29.3670 C.3   666  LEU666      0.0001
    133  CD2      -21.2800   22.0060  -28.8100 C.3   666  LEU666      0.0001
    134  N        -28.8630   10.1860  -30.3780 N.3   708  ARG708     -0.1245
    135  CA       -28.2830    8.9830  -29.7400 C.3   708  ARG708      0.1563
    136  C        -28.9830    8.7020  -28.4120 C.2   708  ARG708      0.2260
    137  O        -29.3380    9.6460  -27.6840 O.2   708  ARG708     -0.2867
    138  CB       -26.7640    9.1190  -29.5290 C.3   708  ARG708      0.0307
    139  CG       -26.3240   10.2040  -28.5270 C.3   708  ARG708      0.0489
    140  CD       -24.8110   10.3510  -28.5000 C.3   708  ARG708      0.2205
    141  NE       -24.3350   11.2930  -27.4780 N.pl3 708  ARG708     -0.0865
    142  CZ       -23.0550   11.4240  -27.1170 C.cat 708  ARG708      0.5346
    143  NH1      -22.1120   10.6790  -27.6990 N.pl3 708  ARG708      0.1354
    144  NH2      -22.7170   12.2980  -26.1710 N.pl3 708  ARG708      0.1354
    145  N        -28.1140   10.8120  -24.7510 N.3   711  ASP711     -0.1239
    146  CA       -28.4300   12.1890  -24.4420 C.3   711  ASP711      0.1674
    147  C        -29.0880   12.9850  -25.5590 C.2   711  ASP711      0.2266
    148  O        -29.1390   14.2230  -25.4510 O.2   711  ASP711     -0.2867
    149  CB       -27.1590   12.9390  -23.9790 C.3   711  ASP711      0.1410
    150  CG       -26.0750   13.0290  -25.0680 C.2   711  ASP711      0.3668
    151  OD1      -26.3200   12.6210  -26.2190 O.co2 711  ASP711     -0.2456
    152  OD2      -24.9560   13.4980  -24.7610 O.co2 711  ASP711     -0.2456
    153  N        -28.0750   13.6950  -28.7310 N.3   713  GLU713     -0.1245
    154  CA       -27.3000   14.3170  -29.8080 C.3   713  GLU713      0.1567
    155  C        -27.7360   13.7360  -31.1670 C.2   713  GLU713      0.2260
    156  O        -27.7180   12.5260  -31.3630 O.2   713  GLU713     -0.2867
    157  CB       -25.7990   14.1530  -29.6160 C.3   713  GLU713      0.0388
    158  CG       -25.2200   14.8950  -28.4170 C.3   713  GLU713      0.1160
    159  CD       -23.6870   14.8500  -28.3640 C.2   713  GLU713      0.3649
    160  OE1      -23.0450   14.0370  -29.0910 O.co2 713  GLU713     -0.2457
    161  OE2      -23.1140   15.6520  -27.5800 O.co2 713  GLU713     -0.2457
    162  N        -26.4570   14.8580  -34.4290 N.3   715  TYR715     -0.1241
    163  CA       -25.5220   15.6750  -35.1980 C.3   715  TYR715      0.1605
    164  C        -24.9630   15.1030  -36.5300 C.2   715  TYR715      0.2264
    165  O        -24.6520   13.9390  -36.6460 O.2   715  TYR715     -0.2867
    166  CB       -24.3130   16.0780  -34.3230 C.3   715  TYR715      0.0534
    167  CG       -24.5690   16.8210  -33.0210 C.ar  715  TYR715     -0.0201
    168  CD1      -25.7140   17.5840  -32.8170 C.ar  715  TYR715     -0.0009
    169  CD2      -23.6200   16.7810  -32.0020 C.ar  715  TYR715     -0.0009
    170  CE1      -25.9180   18.2540  -31.6160 C.ar  715  TYR715      0.0417
    171  CE2      -23.8050   17.4590  -30.8040 C.ar  715  TYR715      0.0417
    172  CZ       -24.9530   18.1930  -30.6090 C.ar  715  TYR715      0.1957
    173  OH       -25.1140   18.8700  -29.4300 O.3   715  TYR715     -0.2866
@<TRIPOS>BOND
     1   165   164    2
     2   164   163    1
     3   163   162    1
     4   163   166    1
     5   166   167    1
     6   167   168   ar
     7   167   169   ar
     8   126   127    1
     9   128   129    2
    10   128   127    1
    11   168   170   ar
    12   127   130    1
    13   169   171   ar
    14   170   172   ar
    15   156   155    2
    16   155   154    1
    17   130   131    1
    18   111   113   ar
    19   111   110   ar
    20   113   115   ar
    21   119   120    2
    22   119   118    1
    23   171   172   ar
    24   107   106    1
    25   107   108    2
    26   172   173    1
    27   134   135    1
    28   106   109    1
    29   106   105    1
    30   118   117    1
    31   118   121    1
    32   131   132    1
    33   131   133    1
    34    11    12    2
    35    11    10    1
    36   109   110    1
    37   154   157    1
    38   154   153    1
    39   116   115    1
    40   110   112   ar
    41   135   138    1
    42   135   136    1
    43   115   114   ar
    44   157   158    1
    45     9    10    1
    46   138   139    1
    47    13    10    1
    48    13    14    1
    49   121   122    1
    50   160   159   ar
    51   122   123    1
    52    14    15    1
    53   112   114   ar
    54   139   140    1
    55   140   141    1
    56   158   159    1
    57   136   137    2
    58   159   161   ar
    59   143   142    1
    60   124   123   ar
    61   123   125   ar
    62   141   142    2
    63    15    16    1
    64   142   144    1
    65    33    32   ar
    66    33    31   ar
    67    16    17    2
    68    32    30   ar
    69   151   150   ar
    70    31    29   ar
    71    17    18    1
    72    17    19    1
    73    20    21    1
    74    30    27   ar
    75   147   148    2
    76   147   146    1
    77    29    27   ar
    78    29    28   ar
    79   150   152   ar
    80   150   149    1
    81    27    25   ar
    82     4     3    2
    83   145   146    1
    84    28    26   ar
    85    90    88   ar
    86   146   149    1
    87    89    88   ar
    88    23    22    2
    89    88    87    1
    90    21    22    1
    91    21    24    1
    92    87    84    1
    93    25    26   ar
    94    25    24    1
    95     3     2    1
    96    63    62    2
    97     5     2    1
    98     5     6    1
    99    54    53    2
   100    83    84    1
   101    83    78   am
   102    55    53   am
   103     7     6    1
   104    62    64   am
   105    62    61    1
   106    84    85    1
   107     2     1    1
   108    53    52    1
   109    77    78    1
   110    77    80    1
   111    77    76    1
   112    99    97   ar
   113    99   100   ar
   114     6     8    1
   115    78    79    2
   116    97    96   ar
   117    61    60    1
   118    80    81    1
   119    85    91   am
   120    85    86    2
   121    76    82    1
   122    52    49    1
   123    91    92    1
   124   100   102   ar
   125   100    98   ar
   126    96    95    1
   127    96    98   ar
   128   102   104   ar
   129    60    57    1
   130    49    50    1
   131    49    48    1
   132    81    82    1
   133    45    43   ar
   134    45    47   ar
   135    95    92    1
   136    98   101   ar
   137    42    43   ar
   138    42    40   ar
   139    92    93    1
   140    56    50   am
   141    56    57    1
   142    50    51    2
   143    43    41   ar
   144    47    46   ar
   145    57    58    1
   146   104   103   ar
   147    74    73    1
   148    40    39   ar
   149   101   103   ar
   150    93    94    2
   151    75    73    1
   152    41    39   ar
   153    41    44   ar
   154    46    44   ar
   155    73    72    2
   156    58    59    2
   157    39    38    1
   158    72    71    1
   159    38    35    1
   160    71    70    1
   161    35    34    1
   162    35    36    1
   163    70    69    1
   164    69    66    1
   165    66    67    1
   166    66    65    1
   167    67    68    2
   168    37    36    2
