@<TRIPOS>MOLECULE
tmp/4bq5B01.pdb
 110 106 0 0 0
SMALL
GASTEIGER

@<TRIPOS>ATOM
      1  N        -12.3800   56.9080  -13.5660 N.3    89  ASP89      -0.1239
      2  CA       -13.7720   56.8920  -13.1560 C.3    89  ASP89       0.1674
      3  C        -13.9950   55.8270  -12.0930 C.2    89  ASP89       0.2266
      4  O        -13.6500   54.6480  -12.2860 O.2    89  ASP89      -0.2867
      5  CB       -14.7090   56.6740  -14.3420 C.3    89  ASP89       0.1410
      6  CG       -14.5090   57.6940  -15.4310 C.2    89  ASP89       0.3668
      7  OD1      -13.6220   57.4930  -16.2870 O.co2  89  ASP89      -0.2456
      8  OD2      -15.2360   58.7060  -15.4280 O.co2  89  ASP89      -0.2456
      9  N        -17.0750   54.2610   -9.7890 N.3    91  THR91      -0.1218
     10  CA       -18.5270   54.1270   -9.6780 C.3    91  THR91       0.1862
     11  C        -18.9740   53.3690   -8.4340 C.2    91  THR91       0.2287
     12  O        -18.4360   52.2770   -8.1270 O.2    91  THR91      -0.2866
     13  CB       -19.0740   53.3500  -10.8780 C.3    91  THR91       0.1770
     14  OG1      -18.4620   53.8510  -12.0700 O.3    91  THR91      -0.2211
     15  CG2      -20.6180   53.4680  -10.9600 C.3    91  THR91       0.0375
     16  N        -20.8170   58.4350   -9.8740 N.3    97  VAL97      -0.1245
     17  CA       -19.4440   58.3790  -10.3900 C.3    97  VAL97       0.1561
     18  C        -18.6910   59.7100  -10.2390 C.2    97  VAL97       0.2260
     19  O        -19.2910   60.7850  -10.3470 O.2    97  VAL97      -0.2867
     20  CB       -19.4090   57.8190  -11.8450 C.3    97  VAL97       0.0252
     21  CG1      -20.3190   58.6080  -12.7730 C.3    97  VAL97       0.0019
     22  CG2      -17.9890   57.7310  -12.3900 C.3    97  VAL97       0.0019
     23  N        -14.9650   61.6720  -11.6730 N.3    99  THR99      -0.1218
     24  CA       -13.8970   61.6140  -12.6590 C.3    99  THR99       0.1862
     25  C        -12.6890   62.4410  -12.2500 C.2    99  THR99       0.2287
     26  O        -12.8230   63.6440  -12.0210 O.2    99  THR99      -0.2866
     27  CB       -14.3680   62.0920  -14.0440 C.3    99  THR99       0.1770
     28  OG1      -15.4560   61.2760  -14.4990 O.3    99  THR99      -0.2211
     29  CG2      -13.2220   61.9950  -15.0640 C.3    99  THR99       0.0375
     30  N        -14.6810   66.2740  -12.6690 N.3   155  TRP155     -0.1227
     31  CA       -16.1540   66.4570  -12.5460 C.3   155  TRP155      0.1737
     32  C        -16.7360   65.1830  -11.9310 C.2   155  TRP155      0.2596
     33  O        -16.0390   64.1510  -11.8550 O.2   155  TRP155     -0.2718
     34  CB       -16.8070   66.7390  -13.9140 C.3   155  TRP155      0.0564
     35  CG       -16.2980   65.8010  -14.9980 C.ar  155  TRP155      0.0003
     36  CD1      -16.5610   64.4640  -15.1120 C.ar  155  TRP155      0.0946
     37  CD2      -15.4360   66.1310  -16.0950 C.ar  155  TRP155      0.0152
     38  NE1      -15.9120   63.9380  -16.2030 N.ar  155  TRP155     -0.2442
     39  CE2      -15.2160   64.9350  -16.8290 C.ar  155  TRP155      0.0810
     40  CE3      -14.8230   67.3230  -16.5360 C.ar  155  TRP155      0.0012
     41  CZ2      -14.4090   64.8880  -17.9770 C.ar  155  TRP155      0.0191
     42  CZ3      -14.0080   67.2740  -17.6870 C.ar  155  TRP155      0.0001
     43  CH2      -13.8190   66.0610  -18.3910 C.ar  155  TRP155      0.0015
     44  N        -18.0030   65.2540  -11.5040 N.am  156  GLY156     -0.1957
     45  CA       -18.7000   64.1050  -10.9310 C.3   156  GLY156      0.1869
     46  C        -19.0510   64.2900   -9.4600 C.2   156  GLY156      0.2309
     47  O        -19.1290   65.4150   -8.9450 O.2   156  GLY156     -0.2863
     48  N        -16.9320   49.7320   -9.3740 N.3   167  LYS167     -0.1245
     49  CA       -16.1140   49.8460  -10.5820 C.3   167  LYS167      0.1561
     50  C        -14.9970   50.8400  -10.3830 C.2   167  LYS167      0.2260
     51  O        -15.1870   51.9200   -9.8220 O.2   167  LYS167     -0.2867
     52  CB       -16.9810   50.2860  -11.7730 C.3   167  LYS167      0.0271
     53  CG       -16.4280   49.9700  -13.1540 C.3   167  LYS167      0.0035
     54  CD       -17.4850   50.2510  -14.2170 C.3   167  LYS167      0.0206
     55  CE       -17.6120   49.0880  -15.1910 C.3   167  LYS167      0.1093
     56  NZ       -18.8020   49.1860  -16.0860 N.3   167  LYS167     -0.1314
     57  N        -12.0350   52.4490  -12.9750 N.3   169  SER169     -0.1217
     58  CA       -11.7080   52.5020  -14.3940 C.3   169  SER169      0.1889
     59  C        -10.6120   53.5010  -14.7590 C.2   169  SER169      0.2288
     60  O        -10.6470   54.6800  -14.3750 O.2   169  SER169     -0.2866
     61  CB       -12.9770   52.7490  -15.2070 C.3   169  SER169      0.2089
     62  OG       -12.6660   53.2670  -16.4840 O.3   169  SER169     -0.2183
     63  N        -27.0880   66.0970  -24.8260 N.3   495  ARG495     -0.1231
     64  CA       -25.8810   65.3470  -24.5480 C.3   495  ARG495      0.1679
     65  C        -25.8830   63.9930  -25.2810 C.2   495  ARG495      0.2434
     66  O        -26.9450   63.4270  -25.5130 O.2   495  ARG495     -0.2733
     67  CB       -25.7040   65.2340  -23.0350 C.3   495  ARG495      0.0321
     68  CG       -25.3810   66.5760  -22.3690 C.3   495  ARG495      0.0489
     69  CD       -24.1700   66.4030  -21.4670 C.3   495  ARG495      0.2205
     70  NE       -23.6330   67.6780  -21.0310 N.pl3 495  ARG495     -0.0865
     71  CZ       -22.3930   67.8740  -20.5970 C.cat 495  ARG495      0.5346
     72  NH1      -21.5120   66.8720  -20.5490 N.pl3 495  ARG495      0.1354
     73  NH2      -22.0380   69.0820  -20.2100 N.pl3 495  ARG495      0.1354
     74  N        -24.7090   63.4950  -25.6990 N.am  496  PRO496     -0.2718
     75  CA       -24.6320   62.1930  -26.4040 C.3   496  PRO496      0.1535
     76  C        -24.9430   60.9640  -25.5310 C.2   496  PRO496      0.2598
     77  O        -25.2540   59.8940  -26.0680 O.2   496  PRO496     -0.2715
     78  CB       -23.1550   62.1200  -26.8180 C.3   496  PRO496      0.0310
     79  CG       -22.4440   62.9020  -25.7540 C.3   496  PRO496      0.0237
     80  CD       -23.3670   64.0780  -25.5050 C.3   496  PRO496      0.0939
     81  N        -24.8510   61.1380  -24.2080 N.am  497  ASP497     -0.1972
     82  CA       -24.9690   60.0710  -23.1820 C.3   497  ASP497      0.1709
     83  C        -26.0530   59.0110  -23.4350 C.2   497  ASP497      0.2293
     84  O        -25.7540   57.8170  -23.4520 O.2   497  ASP497     -0.2864
     85  CB       -25.1700   60.6810  -21.7710 C.3   497  ASP497      0.1436
     86  CG       -24.1320   61.7580  -21.4180 C.2   497  ASP497      0.3671
     87  OD1      -22.9770   61.6720  -21.9010 O.co2 497  ASP497     -0.2456
     88  OD2      -24.4750   62.6890  -20.6420 O.co2 497  ASP497     -0.2456
     89  N        -17.8770   68.4250  -27.8790 N.3   605  ASP605     -0.1225
     90  CA       -18.0800   66.9760  -28.0010 C.3   605  ASP605      0.1805
     91  C        -19.3630   66.4860  -27.3300 C.2   605  ASP605      0.2597
     92  O        -19.9690   65.4970  -27.7580 O.2   605  ASP605     -0.2718
     93  CB       -16.8660   66.1860  -27.4910 C.3   605  ASP605      0.1424
     94  CG       -16.6080   66.3630  -25.9900 C.2   605  ASP605      0.3668
     95  OD1      -16.3730   67.5040  -25.5240 O.co2 605  ASP605     -0.2456
     96  OD2      -16.5780   65.3420  -25.2680 O.co2 605  ASP605     -0.2456
     97  N        -19.7740   67.2000  -26.2910 N.am  606  TRP606     -0.1976
     98  CA       -20.9950   66.8860  -25.5700 C.3   606  TRP606      0.1640
     99  C        -22.2250   67.6560  -26.0570 C.2   606  TRP606      0.2290
    100  O        -23.3110   67.5400  -25.4680 O.2   606  TRP606     -0.2864
    101  CB       -20.8020   67.1600  -24.0950 C.3   606  TRP606      0.0576
    102  CG       -20.1060   68.4540  -23.7890 C.ar  606  TRP606      0.0006
    103  CD1      -18.7700   68.6430  -23.6830 C.ar  606  TRP606      0.0946
    104  CD2      -20.7140   69.7270  -23.5330 C.ar  606  TRP606      0.0152
    105  NE1      -18.4980   69.9350  -23.3590 N.ar  606  TRP606     -0.2442
    106  CE2      -19.6680   70.6340  -23.2650 C.ar  606  TRP606      0.0810
    107  CE3      -22.0340   70.1860  -23.4970 C.ar  606  TRP606      0.0012
    108  CZ2      -19.8920   71.9940  -22.9660 C.ar  606  TRP606      0.0191
    109  CZ3      -22.2640   71.5490  -23.2100 C.ar  606  TRP606      0.0001
    110  CH2      -21.1880   72.4310  -22.9450 C.ar  606  TRP606      0.0015
@<TRIPOS>BOND
     1    90    89    1
     2    90    93    1
     3    90    91    1
     4    92    91    2
     5    93    94    1
     6    91    97   am
     7    78    75    1
     8    78    79    1
     9    75    74    1
    10    75    76    1
    11    97    98    1
    12    77    76    2
    13    99    98    1
    14    99   100    2
    15    94    95   ar
    16    94    96   ar
    17    79    80    1
    18    74    80    1
    19    74    65   am
    20    98   101    1
    21    76    81   am
    22    66    65    2
    23    65    64    1
    24    63    64    1
    25    64    67    1
    26    81    82    1
    27   101   102    1
    28   102   103   ar
    29   102   104   ar
    30   103   105   ar
    31   104   107   ar
    32   104   106   ar
    33   107   109   ar
    34    84    83    2
    35    83    82    1
    36   105   106   ar
    37   106   108   ar
    38   109   110   ar
    39    82    85    1
    40    67    68    1
    41   108   110   ar
    42    68    69    1
    43    87    86   ar
    44    85    86    1
    45    69    70    1
    46    86    88   ar
    47    70    71    2
    48    71    72    1
    49    71    73    1
    50    43    41   ar
    51    43    42   ar
    52    41    39   ar
    53    42    40   ar
    54    39    38   ar
    55    39    37   ar
    56    40    37   ar
    57    62    61    1
    58     7     6   ar
    59    38    36   ar
    60    37    35   ar
    61    56    55    1
    62     6     8   ar
    63     6     5    1
    64    61    58    1
    65    55    54    1
    66    36    35   ar
    67    29    27    1
    68    35    34    1
    69    59    58    1
    70    59    60    2
    71    28    27    1
    72    58    57    1
    73     5     2    1
    74    54    53    1
    75    27    24    1
    76    34    31    1
    77     1     2    1
    78     2     3    1
    79    53    52    1
    80    21    20    1
    81    30    31    1
    82    24    25    1
    83    24    23    1
    84    31    32    1
    85    22    20    1
    86     4     3    2
    87    25    26    2
    88    14    13    1
    89    32    33    2
    90    32    44   am
    91    20    17    1
    92    52    49    1
    93    44    45    1
    94    15    13    1
    95    45    46    1
    96    13    10    1
    97    49    50    1
    98    49    48    1
    99    17    18    1
   100    17    16    1
   101    50    51    2
   102    19    18    2
   103     9    10    1
   104    10    11    1
   105    46    47    2
   106    11    12    2
