@<TRIPOS>MOLECULE
tmp/4bqcA00.pdb
 79 73 0 0 0
SMALL
GASTEIGER

@<TRIPOS>ATOM
      1  N         35.8010  -31.3950    9.5600 N.3     1  THR1       -0.1203
      2  CA        37.2410  -31.1780    9.5480 C.3     1  THR1        0.1994
      3  C         37.8160  -31.7080    8.2330 C.2     1  THR1        0.2618
      4  O         38.2830  -32.8470    8.1700 O.2     1  THR1       -0.2717
      5  CB        37.8950  -31.7670   10.8290 C.3     1  THR1        0.1784
      6  OG1       37.3840  -33.0890   11.0780 O.3     1  THR1       -0.2211
      7  CG2       37.6910  -30.8830   12.0650 C.3     1  THR1        0.0376
      8  N         37.7090  -30.9060    7.1820 N.am    2  GLY2       -0.1956
      9  CA        38.2260  -31.2530    5.8620 C.3     2  GLY2        0.1869
     10  C         39.3680  -30.3420    5.4720 C.2     2  GLY2        0.2309
     11  O         39.4320  -29.8790    4.3330 O.2     2  GLY2       -0.2863
     12  N         42.7380  -27.6370    4.9400 N.3     4  PRO4       -0.2102
     13  CA        42.7700  -26.4190    5.7730 C.3     4  PRO4        0.1504
     14  C         41.7200  -25.3710    5.3610 C.2     4  PRO4        0.2576
     15  O         41.0060  -25.5920    4.3760 O.2     4  PRO4       -0.2718
     16  CB        44.1920  -25.9150    5.5240 C.3     4  PRO4        0.0282
     17  CG        44.4650  -26.2820    4.0630 C.3     4  PRO4        0.0208
     18  CD        43.4980  -27.3980    3.6930 C.3     4  PRO4        0.0893
     19  N         41.6130  -24.2330    6.0760 N.am    5  MET5       -0.1966
     20  CA        40.5860  -23.2760    5.6700 C.3     5  MET5        0.1736
     21  C         41.0150  -22.1530    4.7240 C.2     5  MET5        0.2616
     22  O         42.1990  -21.8140    4.6600 O.2     5  MET5       -0.2715
     23  CB        39.6530  -22.8410    6.8050 C.3     5  MET5        0.0427
     24  CG        40.3450  -22.3500    8.0510 C.3     5  MET5        0.0599
     25  SD        39.2680  -22.4210    9.5080 S.3     5  MET5       -0.1393
     26  CE        37.9840  -21.2190    9.0640 C.3     5  MET5        0.0692
     27  N         40.0630  -21.6540    3.9100 N.am    6  MET6       -0.1977
     28  CA        40.3520  -20.6400    2.9070 C.3     6  MET6        0.1605
     29  C         40.7600  -19.3350    3.5050 C.2     6  MET6        0.2287
     30  O         40.0920  -18.8680    4.4390 O.2     6  MET6       -0.2864
     31  CB        39.2340  -20.4970    1.8690 C.3     6  MET6        0.0413
     32  CG        39.6780  -20.8960    0.4850 C.3     6  MET6        0.0598
     33  SD        40.6370  -22.4550    0.4570 S.3     6  MET6       -0.1393
     34  CE        41.5410  -22.2770   -1.1060 C.3     6  MET6        0.0692
     35  N         34.0910  -18.1130    2.9380 N.3    29  SER29      -0.1217
     36  CA        33.7170  -19.2500    3.7440 C.3    29  SER29       0.1889
     37  C         32.9240  -18.7600    4.9650 C.2    29  SER29       0.2288
     38  O         33.4430  -18.7610    6.0810 O.2    29  SER29      -0.2866
     39  CB        34.9200  -20.1420    4.0750 C.3    29  SER29       0.2089
     40  OG        35.9470  -19.5240    4.8300 O.3    29  SER29      -0.2183
     41  N         29.8820  -18.8580   14.7910 N.3    32  ASP32      -0.1239
     42  CA        30.6100  -20.0280   15.2890 C.3    32  ASP32       0.1674
     43  C         31.8520  -19.6050   16.1090 C.2    32  ASP32       0.2266
     44  O         32.0740  -18.4110   16.3450 O.2    32  ASP32      -0.2867
     45  CB        30.9580  -20.9910   14.1310 C.3    32  ASP32       0.1410
     46  CG        31.8150  -20.4040   13.0170 C.2    32  ASP32       0.3668
     47  OD1       31.4580  -19.3150   12.4920 O.co2  32  ASP32      -0.2456
     48  OD2       32.7940  -21.0650   12.6180 O.co2  32  ASP32      -0.2456
     49  N         34.9590  -19.3920   15.3870 N.3    34  ARG34      -0.1245
     50  CA        36.0360  -18.7880   14.5750 C.3    34  ARG34       0.1563
     51  C         36.4320  -17.3780   14.9630 C.2    34  ARG34       0.2260
     52  O         35.6180  -16.6630   15.5430 O.2    34  ARG34      -0.2867
     53  CB        35.7210  -18.8560   13.0690 C.3    34  ARG34       0.0307
     54  CG        34.7830  -17.7710   12.5560 C.3    34  ARG34       0.0489
     55  CD        34.6650  -17.8240   11.0500 C.3    34  ARG34       0.2205
     56  NE        33.8880  -18.9820   10.5990 N.pl3  34  ARG34      -0.0865
     57  CZ        34.0830  -19.6140    9.4440 C.cat  34  ARG34       0.5346
     58  NH1       35.0390  -19.2080    8.6080 N.pl3  34  ARG34       0.1354
     59  NH2       33.3300  -20.6630    9.1180 N.pl3  34  ARG34       0.1354
     60  N         39.8140  -21.3290   13.2390 N.3    79  LYS79      -0.1245
     61  CA        38.5800  -21.9320   13.7710 C.3    79  LYS79       0.1561
     62  C         38.9320  -23.3090   14.3570 C.2    79  LYS79       0.2260
     63  O         39.2240  -24.2420   13.5960 O.2    79  LYS79      -0.2867
     64  CB        37.4560  -22.0310   12.7050 C.3    79  LYS79       0.0271
     65  CG        36.1600  -22.7380   13.1680 C.3    79  LYS79       0.0035
     66  CD        35.3040  -23.1850   11.9860 C.3    79  LYS79       0.0206
     67  CE        34.1870  -24.1150   12.4010 C.3    79  LYS79       0.1093
     68  NZ        33.7860  -25.0580   11.3190 N.3    79  LYS79      -0.1314
     69  N         41.7660  -25.8620   13.2300 N.3    82  ARG82      -0.1245
     70  CA        41.9640  -25.5260   11.8040 C.3    82  ARG82       0.1563
     71  C         42.4250  -24.0930   11.6420 C.2    82  ARG82       0.2260
     72  O         42.1090  -23.2440   12.4850 O.2    82  ARG82      -0.2867
     73  CB        40.6630  -25.7510   10.9880 C.3    82  ARG82       0.0307
     74  CG        39.9790  -27.1270   11.2300 C.3    82  ARG82       0.0489
     75  CD        38.7150  -27.3880   10.4120 C.3    82  ARG82       0.2205
     76  NE        39.0240  -27.4700    8.9850 N.pl3  82  ARG82      -0.0865
     77  CZ        38.4700  -26.7140    8.0400 C.cat  82  ARG82       0.5346
     78  NH1       37.5110  -25.8430    8.3480 N.pl3  82  ARG82       0.1354
     79  NH2       38.8540  -26.8400    6.7750 N.pl3  82  ARG82       0.1354
@<TRIPOS>BOND
     1    34    33    1
     2    33    32    1
     3    32    31    1
     4    31    28    1
     5    28    29    1
     6    28    27    1
     7    35    36    1
     8    29    30    2
     9    18    17    1
    10    18    12    1
    11    36    39    1
    12    36    37    1
    13    27    21   am
    14    17    16    1
    15    39    40    1
    16    11    10    2
    17    15    14    2
    18    22    21    2
    19    21    20    1
    20    12    13    1
    21    37    38    2
    22    14    13    1
    23    14    19   am
    24    10     9    1
    25    16    13    1
    26    20    19    1
    27    20    23    1
    28     9     8    1
    29    79    77    1
    30    23    24    1
    31     8     3   am
    32    77    78    1
    33    77    76    2
    34    24    25    1
    35     4     3    2
    36     3     2    1
    37    58    57    1
    38    76    75    1
    39    26    25    1
    40    59    57    1
    41    57    56    2
    42     2     1    1
    43     2     5    1
    44    75    74    1
    45    56    55    1
    46     5     6    1
    47     5     7    1
    48    73    74    1
    49    73    70    1
    50    55    54    1
    51    68    67    1
    52    71    70    1
    53    71    72    2
    54    70    69    1
    55    66    67    1
    56    66    65    1
    57    47    46   ar
    58    54    53    1
    59    48    46   ar
    60    64    65    1
    61    64    61    1
    62    46    45    1
    63    53    50    1
    64    60    61    1
    65    63    62    2
    66    61    62    1
    67    45    42    1
    68    50    51    1
    69    50    49    1
    70    41    42    1
    71    51    52    2
    72    42    43    1
    73    43    44    2
