@<TRIPOS>MOLECULE
tmp/4bqeA02.pdb
 92 88 0 0 0
SMALL
GASTEIGER

@<TRIPOS>ATOM
      1  N         16.3350  -22.1240   43.3360 N.3   540  THR540     -0.1203
      2  CA        15.4620  -20.9360   43.3450 C.3   540  THR540      0.1994
      3  C         14.3950  -20.9790   44.4480 C.2   540  THR540      0.2618
      4  O         13.7800  -19.9440   44.7670 O.2   540  THR540     -0.2717
      5  CB        14.7260  -20.7240   42.0150 C.3   540  THR540      0.1784
      6  OG1       13.7100  -21.7350   41.8360 O.3   540  THR540     -0.2211
      7  CG2       15.6760  -20.7080   40.7660 C.3   540  THR540      0.0376
      8  N         14.1230  -22.1620   44.9720 N.am  541  GLY541     -0.1942
      9  CA        13.0450  -22.3200   45.9530 C.3   541  GLY541      0.2014
     10  C         11.6620  -22.4820   45.3140 C.2   541  GLY541      0.2639
     11  O         10.6920  -22.7710   46.0230 O.2   541  GLY541     -0.2714
     12  N         11.5740  -22.3540   43.9880 N.am  542  VAL542     -0.1963
     13  CA        10.2910  -22.4760   43.2830 C.3   542  VAL542      0.1727
     14  C         10.0530  -23.9260   42.8340 C.2   542  VAL542      0.2616
     15  O         10.9190  -24.5470   42.2130 O.2   542  VAL542     -0.2715
     16  CB        10.2390  -21.5480   42.0820 C.3   542  VAL542      0.0290
     17  CG1        8.8930  -21.6710   41.3650 C.3   542  VAL542      0.0023
     18  CG2       10.5260  -20.1120   42.5030 C.3   542  VAL542      0.0023
     19  N          8.8950  -24.4770   43.2080 N.am  543  SER543     -0.1950
     20  CA         8.4740  -25.7900   42.7570 C.3   543  SER543      0.1924
     21  C          7.8410  -25.6550   41.3860 C.2   543  SER543      0.2314
     22  O          6.9520  -24.8110   41.1930 O.2   543  SER543     -0.2863
     23  CB         7.4380  -26.3680   43.7170 C.3   543  SER543      0.2116
     24  OG         7.1500  -27.7070   43.3160 O.3   543  SER543     -0.2180
     25  N         12.8390  -11.5150   37.5710 N.3   614  ASN614     -0.1240
     26  CA        12.6550  -11.9500   38.9520 C.3   614  ASN614      0.1653
     27  C         11.4070  -11.3420   39.5630 C.2   614  ASN614      0.2266
     28  O         10.6570  -12.0340   40.2340 O.2   614  ASN614     -0.2867
     29  CB        13.8940  -11.6110   39.7570 C.3   614  ASN614      0.1155
     30  CG        15.0050  -12.5870   39.4910 C.2   614  ASN614      0.2627
     31  OD1       14.9780  -13.6760   40.0720 O.2   614  ASN614     -0.2716
     32  ND2       15.9640  -12.2400   38.5900 N.am  614  ASN614     -0.0877
     33  N          8.3340  -13.0130   38.1190 N.3   617  GLY617     -0.1210
     34  CA         8.2310  -14.3310   38.7600 C.3   617  GLY617      0.1956
     35  C          7.7090  -14.2890   40.1730 C.2   617  GLY617      0.2611
     36  O          6.8440  -15.0760   40.5580 O.2   617  GLY617     -0.2717
     37  N          8.1780  -13.3310   40.9540 N.am  618  ASP618     -0.1973
     38  CA         7.6900  -13.1990   42.3070 C.3   618  ASP618      0.1709
     39  C          6.1520  -13.0780   42.3740 C.2   618  ASP618      0.2293
     40  O          5.5260  -13.6970   43.2480 O.2   618  ASP618     -0.2864
     41  CB         8.3220  -11.9920   42.9920 C.3   618  ASP618      0.1436
     42  CG         9.7900  -12.2490   43.4400 C.2   618  ASP618      0.3671
     43  OD1       10.2250  -13.4140   43.4440 O.co2 618  ASP618     -0.2456
     44  OD2       10.4370  -11.2430   43.8200 O.co2 618  ASP618     -0.2456
     45  N          4.3630  -16.4580   40.1800 N.3   621  ASN621     -0.1225
     46  CA         4.5320  -17.7680   40.7860 C.3   621  ASN621      0.1785
     47  C          3.7600  -17.9340   42.0730 C.2   621  ASN621      0.2597
     48  O          3.4810  -19.0520   42.4770 O.2   621  ASN621     -0.2718
     49  CB         6.0230  -18.0450   41.0600 C.3   621  ASN621      0.1169
     50  CG         6.8730  -18.0470   39.8080 C.2   621  ASN621      0.2627
     51  OD1        6.3710  -18.1730   38.6770 O.2   621  ASN621     -0.2716
     52  ND2        8.1890  -17.9000   39.9990 N.am  621  ASN621     -0.0877
     53  N          3.4090  -16.8310   42.7140 N.am  622  SER622     -0.1952
     54  CA         2.6730  -16.8420   43.9720 C.3   622  SER622      0.1924
     55  C          1.1760  -16.4900   43.7930 C.2   622  SER622      0.2314
     56  O          0.4520  -16.2960   44.7710 O.2   622  SER622     -0.2863
     57  CB         3.3350  -15.8800   44.9520 C.3   622  SER622      0.2116
     58  OG         3.1460  -14.5130   44.5840 O.3   622  SER622     -0.2180
     59  N          4.3730  -20.4360   35.3250 N.3   631  LYS631     -0.1231
     60  CA         5.4230  -19.9610   36.2480 C.3   631  LYS631      0.1693
     61  C          6.6050  -19.4320   35.4200 C.2   631  LYS631      0.2592
     62  O          6.8180  -19.8480   34.2900 O.2   631  LYS631     -0.2718
     63  CB         5.8830  -21.0580   37.1980 C.3   631  LYS631      0.0285
     64  CG         4.8590  -21.4310   38.2500 C.3   631  LYS631      0.0035
     65  CD         5.4690  -22.2050   39.4120 C.3   631  LYS631      0.0206
     66  CE         4.3860  -22.5600   40.4050 C.3   631  LYS631      0.1093
     67  NZ         4.8560  -23.2910   41.6060 N.3   631  LYS631     -0.1314
     68  N          7.3570  -18.5230   36.0290 N.am  632  VAL632     -0.1966
     69  CA         8.5180  -17.9250   35.3900 C.3   632  VAL632      0.1727
     70  C          9.6220  -17.8570   36.4230 C.2   632  VAL632      0.2616
     71  O          9.4390  -17.3130   37.5180 O.2   632  VAL632     -0.2715
     72  CB         8.2400  -16.5800   34.6670 C.3   632  VAL632      0.0290
     73  CG1        7.6530  -15.5440   35.5440 C.3   632  VAL632      0.0023
     74  CG2        9.5200  -16.0690   33.9980 C.3   632  VAL632      0.0023
     75  N         10.7630  -18.4390   36.0970 N.am  633  VAL633     -0.1963
     76  CA        11.8980  -18.5560   37.0230 C.3   633  VAL633      0.1727
     77  C         13.1620  -17.9940   36.3730 C.2   633  VAL633      0.2616
     78  O         13.4420  -18.3360   35.2000 O.2   633  VAL633     -0.2715
     79  CB        12.1050  -20.0550   37.3910 C.3   633  VAL633      0.0290
     80  CG1       13.2360  -20.2530   38.4020 C.3   633  VAL633      0.0023
     81  CG2       10.8030  -20.6580   37.9200 C.3   633  VAL633      0.0023
     82  N         13.9070  -17.1830   37.1140 N.am  634  PHE634     -0.1974
     83  CA        15.2580  -16.7910   36.7020 C.3   634  PHE634      0.1639
     84  C         16.2540  -17.8040   37.2990 C.2   634  PHE634      0.2290
     85  O         16.3210  -17.9740   38.5150 O.2   634  PHE634     -0.2864
     86  CB        15.6010  -15.3640   37.1060 C.3   634  PHE634      0.0560
     87  CG        16.8480  -14.8800   36.4350 C.ar  634  PHE634     -0.0200
     88  CD1       18.0770  -15.1280   36.9960 C.ar  634  PHE634     -0.0042
     89  CD2       16.7860  -14.2680   35.2130 C.ar  634  PHE634     -0.0042
     90  CE1       19.2410  -14.7650   36.3300 C.ar  634  PHE634     -0.0003
     91  CE2       17.9300  -13.8760   34.5600 C.ar  634  PHE634     -0.0003
     92  CZ        19.1630  -14.1630   35.0900 C.ar  634  PHE634     -0.0000
@<TRIPOS>BOND
     1    74    72    1
     2    62    61    2
     3    91    92   ar
     4    91    89   ar
     5    72    69    1
     6    72    73    1
     7    92    90   ar
     8    78    77    2
     9    89    87   ar
    10    59    60    1
    11    69    68    1
    12    69    70    1
    13    61    68   am
    14    61    60    1
    15    75    70   am
    16    75    76    1
    17    60    63    1
    18    90    88   ar
    19    77    76    1
    20    77    82   am
    21    70    71    2
    22    87    88   ar
    23    87    86    1
    24    83    86    1
    25    83    82    1
    26    83    84    1
    27    76    79    1
    28    63    64    1
    29    84    85    2
    30    79    81    1
    31    79    80    1
    32    25    26    1
    33    33    34    1
    34    64    65    1
    35    32    30   am
    36    51    50    2
    37    34    35    1
    38    26    27    1
    39    26    29    1
    40    65    66    1
    41    30    29    1
    42    30    31    2
    43    27    28    2
    44    50    52   am
    45    50    49    1
    46    35    36    2
    47    35    37   am
    48    45    46    1
    49    66    67    1
    50     7     5    1
    51    46    49    1
    52    46    47    1
    53    37    38    1
    54    22    21    2
    55    17    16    1
    56    21    20    1
    57     6     5    1
    58     5     2    1
    59    47    48    2
    60    47    53   am
    61    16    18    1
    62    16    13    1
    63    15    14    2
    64    38    39    1
    65    38    41    1
    66    39    40    2
    67    53    54    1
    68    20    19    1
    69    20    23    1
    70    14    19   am
    71    14    13    1
    72    41    42    1
    73    13    12    1
    74    24    23    1
    75     1     2    1
    76     2     3    1
    77    42    43   ar
    78    42    44   ar
    79    55    54    1
    80    55    56    2
    81    54    57    1
    82    12    10   am
    83     3     4    2
    84     3     8   am
    85    58    57    1
    86     8     9    1
    87    10     9    1
    88    10    11    2
