@<TRIPOS>MOLECULE
tmp/4bqeA01.pdb
 84 79 0 0 0
SMALL
GASTEIGER

@<TRIPOS>ATOM
      1  N         39.7410  -37.4270   18.1400 N.3   139  LEU139     -0.1245
      2  CA        40.1830  -37.6640   16.7600 C.3   139  LEU139      0.1561
      3  C         41.6890  -38.0080   16.6650 C.2   139  LEU139      0.2260
      4  O         42.2500  -38.1220   15.5600 O.2   139  LEU139     -0.2867
      5  CB        39.8830  -36.4260   15.9230 C.3   139  LEU139      0.0270
      6  CG        38.4070  -36.2210   15.6140 C.3   139  LEU139      0.0019
      7  CD1       38.2180  -34.8240   15.0060 C.3   139  LEU139      0.0001
      8  CD2       37.8520  -37.3280   14.7340 C.3   139  LEU139      0.0001
      9  N         29.4450  -34.3470   21.1560 N.3   474  PRO474     -0.2116
     10  CA        28.2880  -35.1680   21.5670 C.3   474  PRO474      0.1372
     11  C         28.6210  -36.0630   22.7580 C.2   474  PRO474      0.2244
     12  O         27.7480  -36.8480   23.2030 O.2   474  PRO474     -0.2868
     13  CB        27.9970  -35.9960   20.3040 C.3   474  PRO474      0.0268
     14  CG        29.3490  -36.1530   19.6740 C.3   474  PRO474      0.0207
     15  CD        30.0630  -34.8490   19.9330 C.3   474  PRO474      0.0892
     16  N         30.8920  -41.2270   18.2000 N.3   500  THR500     -0.1203
     17  CA        31.9990  -40.6590   17.4260 C.3   500  THR500      0.1994
     18  C         31.6730  -40.4820   15.9330 C.2   500  THR500      0.2618
     19  O         32.5720  -40.1870   15.1500 O.2   500  THR500     -0.2717
     20  CB        33.2690  -41.5130   17.5880 C.3   500  THR500      0.1784
     21  OG1       32.9720  -42.8610   17.1830 O.3   500  THR500     -0.2211
     22  CG2       33.7260  -41.4990   19.0420 C.3   500  THR500      0.0376
     23  N         30.4450  -40.7310   15.5270 N.am  501  ASP501     -0.1959
     24  CA        30.0110  -40.6200   14.1250 C.3   501  ASP501      0.1840
     25  C         28.5580  -40.1650   14.1590 C.2   501  ASP501      0.2622
     26  O         27.6290  -40.9260   13.9310 O.2   501  ASP501     -0.2715
     27  CB        30.1650  -41.9650   13.4090 C.3   501  ASP501      0.1450
     28  CG        29.8200  -41.8980   11.9170 C.2   501  ASP501      0.3671
     29  OD1       29.5690  -40.8030   11.3850 O.co2 501  ASP501     -0.2456
     30  OD2       29.8150  -42.9660   11.2680 O.co2 501  ASP501     -0.2456
     31  N         28.3920  -38.8850   14.4300 N.am  502  LEU502     -0.1963
     32  CA        27.1090  -38.3680   14.8620 C.3   502  LEU502      0.1728
     33  C         26.0870  -38.3800   13.7370 C.2   502  LEU502      0.2616
     34  O         24.8980  -38.4030   13.9910 O.2   502  LEU502     -0.2715
     35  CB        27.2580  -36.9590   15.4880 C.3   502  LEU502      0.0311
     36  CG        26.1630  -36.5040   16.4540 C.3   502  LEU502      0.0022
     37  CD1       26.0370  -37.4850   17.6170 C.3   502  LEU502      0.0001
     38  CD2       26.4180  -35.0990   16.9580 C.3   502  LEU502      0.0001
     39  N         26.5480  -38.4160   12.4830 N.am  503  ASP503     -0.1971
     40  CA        25.5970  -38.5000   11.3740 C.3   503  ASP503      0.1709
     41  C         24.7800  -39.7860   11.3940 C.2   503  ASP503      0.2293
     42  O         23.7630  -39.8700   10.7290 O.2   503  ASP503     -0.2864
     43  CB        26.2860  -38.3340   10.0150 C.3   503  ASP503      0.1436
     44  CG        26.8630  -36.9430    9.8090 C.2   503  ASP503      0.3671
     45  OD1       26.2080  -35.9200   10.1020 O.co2 503  ASP503     -0.2456
     46  OD2       28.0220  -36.8770    9.3450 O.co2 503  ASP503     -0.2456
     47  N         23.4030  -34.4720   13.4790 N.3   800  GLY800     -0.1210
     48  CA        24.7610  -34.9620   13.2450 C.3   800  GLY800      0.1956
     49  C         25.7840  -33.9730   12.7220 C.2   800  GLY800      0.2611
     50  O         26.9440  -34.0460   13.1110 O.2   800  GLY800     -0.2717
     51  N         25.3640  -33.0980   11.8080 N.am  801  LYS801     -0.1979
     52  CA        26.2200  -32.0790   11.2350 C.3   801  LYS801      0.1596
     53  C         26.8660  -31.2140   12.3230 C.2   801  LYS801      0.2287
     54  O         27.9360  -30.6250   12.0850 O.2   801  LYS801     -0.2864
     55  CB        25.4480  -31.1890   10.2580 C.3   801  LYS801      0.0298
     56  CG        26.1980  -29.9560    9.7290 C.3   801  LYS801      0.0038
     57  CD        25.4490  -29.1590    8.6660 C.3   801  LYS801      0.0206
     58  CE        26.2040  -27.9410    8.1570 C.3   801  LYS801      0.1093
     59  NZ        25.5280  -27.3120    6.9870 N.3   801  LYS801     -0.1314
     60  N         28.2270  -31.9150   15.1910 N.3   803  SER803     -0.1217
     61  CA        29.3490  -32.4330   15.9340 C.3   803  SER803      0.1889
     62  C         30.6230  -31.6100   15.7440 C.2   803  SER803      0.2288
     63  O         31.0560  -31.3770   14.6220 O.2   803  SER803     -0.2866
     64  CB        29.6920  -33.8550   15.4930 C.3   803  SER803      0.2089
     65  OG        30.6900  -34.3760   16.3500 O.3   803  SER803     -0.2183
     66  N         33.3800  -32.8820   16.1440 N.3   805  ASP805     -0.1225
     67  CA        34.2820  -33.8040   15.4450 C.3   805  ASP805      0.1805
     68  C         34.3180  -33.4560   13.9520 C.2   805  ASP805      0.2597
     69  O         35.3830  -33.5300   13.3130 O.2   805  ASP805     -0.2718
     70  CB        33.8910  -35.2530   15.6030 C.3   805  ASP805      0.1424
     71  CG        34.0010  -35.7670   17.0210 C.2   805  ASP805      0.3668
     72  OD1       34.5890  -35.0930   17.9000 O.co2 805  ASP805     -0.2456
     73  OD2       33.4610  -36.8900   17.2340 O.co2 805  ASP805     -0.2456
     74  N         33.1720  -33.0900   13.3740 N.am  806  ARG806     -0.1979
     75  CA        33.1220  -32.6970   11.9730 C.3   806  ARG806      0.1597
     76  C         33.8970  -31.3800   11.8290 C.2   806  ARG806      0.2287
     77  O         34.7620  -31.2390   10.9630 O.2   806  ARG806     -0.2864
     78  CB        31.6760  -32.4940   11.5510 C.3   806  ARG806      0.0334
     79  CG        31.4310  -32.2780   10.0730 C.3   806  ARG806      0.0492
     80  CD        31.1590  -30.8440    9.6650 C.3   806  ARG806      0.2205
     81  NE        30.3040  -30.1460   10.6150 N.pl3 806  ARG806     -0.0865
     82  CZ        30.5370  -28.9270   11.0990 C.cat 806  ARG806      0.5346
     83  NH1       31.5300  -28.2030   10.6140 N.pl3 806  ARG806      0.1354
     84  NH2       29.7160  -28.4070   12.0130 N.pl3 806  ARG806      0.1354
@<TRIPOS>BOND
     1    59    58    1
     2    58    57    1
     3    57    56    1
     4    46    44   ar
     5    80    79    1
     6    80    81    1
     7    56    55    1
     8    44    43    1
     9    44    45   ar
    10    43    40    1
    11    79    78    1
    12    55    52    1
    13    83    82    1
    14    81    82    2
    15    42    41    2
    16    77    76    2
    17    82    84    1
    18    52    51    1
    19    52    53    1
    20    30    28   ar
    21    40    41    1
    22    40    39    1
    23    29    28   ar
    24    78    75    1
    25    51    49   am
    26    76    75    1
    27    28    27    1
    28    75    74    1
    29    54    53    2
    30    39    33   am
    31    49    50    2
    32    49    48    1
    33    48    47    1
    34    69    68    2
    35    74    68   am
    36    27    24    1
    37    33    34    2
    38    33    32    1
    39    26    25    2
    40    68    67    1
    41    24    25    1
    42    24    23    1
    43    25    31   am
    44    31    32    1
    45    63    62    2
    46     8     6    1
    47    32    35    1
    48     7     6    1
    49    19    18    2
    50    60    61    1
    51    67    70    1
    52    67    66    1
    53    35    36    1
    54    64    61    1
    55    64    65    1
    56    23    18   am
    57     4     3    2
    58    70    71    1
    59     6     5    1
    60    62    61    1
    61     5     2    1
    62    18    17    1
    63    36    38    1
    64    36    37    1
    65     3     2    1
    66     2     1    1
    67    71    73   ar
    68    71    72   ar
    69    21    20    1
    70    17    20    1
    71    17    16    1
    72    20    22    1
    73    14    15    1
    74    14    13    1
    75    15     9    1
    76    13    10    1
    77     9    10    1
    78    10    11    1
    79    11    12    2
