@<TRIPOS>MOLECULE
tmp/4bqfA01.pdb
 123 118 0 0 0
SMALL
GASTEIGER

@<TRIPOS>ATOM
      1  N         72.9380   -3.9140   14.3900 N.3   201  GLY201     -0.1210
      2  CA        71.6660   -3.5500   13.7620 C.3   201  GLY201      0.1956
      3  C         70.5160   -4.4900   14.0520 C.2   201  GLY201      0.2613
      4  O         69.4080   -4.2890   13.5530 O.2   201  GLY201     -0.2717
      5  N         70.7700   -5.5200   14.8580 N.am  202  SER202     -0.1938
      6  CA        69.6900   -6.3450   15.4300 C.3   202  SER202      0.2055
      7  C         68.9940   -5.5390   16.5270 C.2   202  SER202      0.2642
      8  O         69.5080   -4.5130   16.9800 O.2   202  SER202     -0.2714
      9  CB        70.2440   -7.6500   16.0020 C.3   202  SER202      0.2130
     10  OG        71.0990   -7.3940   17.1050 O.3   202  SER202     -0.2179
     11  N         67.8350   -5.9920   16.9770 N.am  203  ARG203     -0.1977
     12  CA        67.0780   -5.2250   17.9540 C.3   203  ARG203      0.1597
     13  C         66.6550   -6.0870   19.1480 C.2   203  ARG203      0.2287
     14  O         66.5580   -7.3120   19.0500 O.2   203  ARG203     -0.2864
     15  CB        65.8800   -4.5520   17.2640 C.3   203  ARG203      0.0334
     16  CG        66.2850   -3.6030   16.1290 C.3   203  ARG203      0.0492
     17  CD        65.0900   -3.1270   15.2910 C.3   203  ARG203      0.2205
     18  NE        64.4570   -1.9280   15.8410 N.pl3 203  ARG203     -0.0865
     19  CZ        64.7970   -0.6680   15.5530 C.cat 203  ARG203      0.5346
     20  NH1       65.7640   -0.4050   14.6810 N.pl3 203  ARG203      0.1354
     21  NH2       64.1560    0.3390   16.1500 N.pl3 203  ARG203      0.1354
     22  N         62.8390  -13.1070   14.9590 N.3   339  MET339     -0.1230
     23  CA        63.9000  -12.1880   14.4930 C.3   339  MET339      0.1702
     24  C         64.8350  -11.8040   15.6240 C.2   339  MET339      0.2592
     25  O         66.0330  -11.8010   15.4400 O.2   339  MET339     -0.2718
     26  CB        63.3100  -10.9140   13.8820 C.3   339  MET339      0.0401
     27  CG        62.4780  -11.1210   12.6280 C.3   339  MET339      0.0596
     28  SD        61.9150   -9.5500   11.9340 S.3   339  MET339     -0.1393
     29  CE        60.6670   -9.0900   13.1670 C.3   339  MET339      0.0692
     30  N         64.2910  -11.5160   16.8160 N.am  340  ASP340     -0.1974
     31  CA        65.1400  -11.0420   17.9310 C.3   340  ASP340      0.1709
     32  C         65.7570  -12.2080   18.7000 C.2   340  ASP340      0.2293
     33  O         66.9650  -12.2940   18.8180 O.2   340  ASP340     -0.2864
     34  CB        64.3810  -10.1150   18.8940 C.3   340  ASP340      0.1436
     35  CG        63.8700   -8.8400   18.2210 C.2   340  ASP340      0.3671
     36  OD1       64.2030   -8.5710   17.0430 O.co2 340  ASP340     -0.2456
     37  OD2       63.0790   -8.1120   18.8660 O.co2 340  ASP340     -0.2456
     38  N         67.1490  -14.6870   15.6090 N.3   343  GLY343     -0.1210
     39  CA        68.0610  -14.1360   14.5850 C.3   343  GLY343      0.1956
     40  C         67.6390  -14.2180   13.1160 C.2   343  GLY343      0.2612
     41  O         68.4380  -13.9510   12.2310 O.2   343  GLY343     -0.2717
     42  N         66.3790  -14.5790   12.8540 N.am  344  LEU344     -0.1965
     43  CA        65.8760  -14.6640   11.4870 C.3   344  LEU344      0.1728
     44  C         65.7070  -13.2730   10.9200 C.2   344  LEU344      0.2617
     45  O         65.4380  -12.3020   11.6780 O.2   344  LEU344     -0.2715
     46  CB        64.5190  -15.3850   11.4000 C.3   344  LEU344      0.0311
     47  CG        64.5770  -16.9160   11.2710 C.3   344  LEU344      0.0022
     48  CD1       65.4670  -17.4850   12.3640 C.3   344  LEU344      0.0001
     49  CD2       63.1940  -17.5550   11.3090 C.3   344  LEU344      0.0001
     50  N         65.8610  -13.1870    9.5970 N.am  345  GLY345     -0.1940
     51  CA        65.4220  -12.0210    8.8470 C.3   345  GLY345      0.2014
     52  C         63.9050  -11.8820    8.6650 C.2   345  GLY345      0.2639
     53  O         63.1540  -12.8420    8.7850 O.2   345  GLY345     -0.2714
     54  N         63.4720  -10.6610    8.3680 N.am  346  TRP346     -0.1959
     55  CA        62.0540  -10.3010    8.1880 C.3   346  TRP346      0.1771
     56  C         61.3250  -11.2090    7.2250 C.2   346  TRP346      0.2619
     57  O         60.3540  -11.8190    7.6030 O.2   346  TRP346     -0.2715
     58  CB        61.9140   -8.8390    7.7330 C.3   346  TRP346      0.0590
     59  CG        60.4820   -8.4970    7.5830 C.ar  346  TRP346      0.0006
     60  CD1       59.6650   -8.7850    6.5180 C.ar  346  TRP346      0.0946
     61  CD2       59.6100   -7.8900    8.5830 C.ar  346  TRP346      0.0152
     62  NE1       58.3990   -8.3570    6.7440 N.ar  346  TRP346     -0.2442
     63  CE2       58.2890   -7.8390    7.9830 C.ar  346  TRP346      0.0810
     64  CE3       59.7970   -7.3780    9.8480 C.ar  346  TRP346      0.0012
     65  CZ2       57.2120   -7.2830    8.6290 C.ar  346  TRP346      0.0191
     66  CZ3       58.6960   -6.8550   10.5190 C.ar  346  TRP346      0.0001
     67  CH2       57.4350   -6.7970    9.9180 C.ar  346  TRP346      0.0015
     68  N         61.8340  -11.3380    5.9820 N.am  347  ASP347     -0.1971
     69  CA        61.1810  -12.1560    4.9700 C.3   347  ASP347      0.1709
     70  C         61.0420  -13.6200    5.3870 C.2   347  ASP347      0.2293
     71  O         59.9370  -14.1680    5.3120 O.2   347  ASP347     -0.2864
     72  CB        61.8660  -12.0120    3.6240 C.3   347  ASP347      0.1436
     73  CG        61.8310  -10.5770    3.1240 C.2   347  ASP347      0.3671
     74  OD1       60.9110   -9.8920    3.5870 O.co2 347  ASP347     -0.2456
     75  OD2       62.7150  -10.1270    2.3130 O.co2 347  ASP347     -0.2456
     76  N         58.0440   -2.8000   20.9620 N.3   383  ARG383     -0.1245
     77  CA        58.7080   -3.5980   19.9330 C.3   383  ARG383      0.1563
     78  C         57.6570   -4.1280   18.9710 C.2   383  ARG383      0.2260
     79  O         57.8760   -4.2290   17.7660 O.2   383  ARG383     -0.2867
     80  CB        59.4580   -4.7520   20.5680 C.3   383  ARG383      0.0307
     81  CG        60.2060   -5.6250   19.5980 C.3   383  ARG383      0.0489
     82  CD        61.2980   -4.8580   18.8990 C.3   383  ARG383      0.2205
     83  NE        62.0370   -5.7220   17.9770 N.pl3 383  ARG383     -0.0865
     84  CZ        62.0730   -5.5800   16.6560 C.cat 383  ARG383      0.5346
     85  NH1       61.4220   -4.5900   16.0470 N.pl3 383  ARG383      0.1354
     86  NH2       62.7690   -6.4300   15.9330 N.pl3 383  ARG383      0.1354
     87  N         56.6450   -1.4780   16.4190 N.3   386  GLU386     -0.1231
     88  CA        57.6100   -1.3720   15.3230 C.3   386  GLU386      0.1699
     89  C         57.2890   -2.3920   14.2740 C.2   386  GLU386      0.2592
     90  O         57.2020   -2.0550   13.0950 O.2   386  GLU386     -0.2718
     91  CB        59.0500   -1.6310   15.7950 C.3   386  GLU386      0.0402
     92  CG        59.6170   -0.5380   16.6850 C.3   386  GLU386      0.1161
     93  CD        61.0660   -0.7700   17.1000 C.2   386  GLU386      0.3649
     94  OE1       61.5900   -1.8780   16.8740 O.co2 386  GLU386     -0.2457
     95  OE2       61.6950    0.1730   17.6550 O.co2 386  GLU386     -0.2457
     96  N         57.0920   -3.6360   14.7220 N.am  387  ILE387     -0.1980
     97  CA        56.8000   -4.7390   13.8310 C.3   387  ILE387      0.1595
     98  C         55.4230   -4.5110   13.1640 C.2   387  ILE387      0.2287
     99  O         55.3180   -4.5350   11.9430 O.2   387  ILE387     -0.2864
    100  CB        56.8760   -6.0990   14.5840 C.3   387  ILE387      0.0276
    101  CG1       58.3240   -6.3700   15.0380 C.3   387  ILE387      0.0022
    102  CG2       56.3250   -7.2450   13.7330 C.3   387  ILE387      0.0022
    103  CD1       58.4350   -7.3200   16.1970 C.3   387  ILE387      0.0001
    104  N         55.8130   -1.9810   10.3090 N.3   390  GLU390     -0.1245
    105  CA        56.4450   -2.5510    9.1530 C.3   390  GLU390      0.1567
    106  C         55.4900   -3.5020    8.4160 C.2   390  GLU390      0.2260
    107  O         55.5100   -3.5660    7.1940 O.2   390  GLU390     -0.2867
    108  CB        57.7350   -3.2650    9.5510 C.3   390  GLU390      0.0388
    109  CG        58.4970   -3.8580    8.3800 C.3   390  GLU390      0.1160
    110  CD        59.2520   -2.8370    7.5250 C.2   390  GLU390      0.3649
    111  OE1       59.1500   -1.6080    7.7570 O.co2 390  GLU390     -0.2457
    112  OE2       59.9910   -3.2740    6.6120 O.co2 390  GLU390     -0.2457
    113  N         54.4920   -2.6110    4.4030 N.3   394  ARG394     -0.1245
    114  CA        54.6470   -3.5520    3.2850 C.3   394  ARG394      0.1563
    115  C         53.3030   -3.8700    2.6090 C.2   394  ARG394      0.2260
    116  O         53.1930   -3.9140    1.3680 O.2   394  ARG394     -0.2867
    117  CB        55.3320   -4.8220    3.7370 C.3   394  ARG394      0.0307
    118  CG        56.7970   -4.5650    4.0180 C.3   394  ARG394      0.0489
    119  CD        57.5130   -5.7270    4.6950 C.3   394  ARG394      0.2205
    120  NE        58.9460   -5.4400    4.9390 N.pl3 394  ARG394     -0.0865
    121  CZ        59.9610   -6.0810    4.3640 C.cat 394  ARG394      0.5346
    122  NH1       59.7400   -7.0660    3.5020 N.pl3 394  ARG394      0.1354
    123  NH2       61.2170   -5.7630    4.6680 N.pl3 394  ARG394      0.1354
@<TRIPOS>BOND
     1   116   115    2
     2    75    73   ar
     3   115   114    1
     4    73    74   ar
     5    73    72    1
     6   114   117    1
     7   114   113    1
     8   122   121    1
     9    72    69    1
    10   117   118    1
    11   118   119    1
    12   121   123    1
    13   121   120    2
    14   119   120    1
    15    69    70    1
    16    69    68    1
    17    71    70    2
    18    68    56   am
    19    60    62   ar
    20    60    59   ar
    21   112   110   ar
    22    62    63   ar
    23   107   106    2
    24    56    57    2
    25    56    55    1
    26   110   111   ar
    27   110   109    1
    28    59    58    1
    29    59    61   ar
    30    58    55    1
    31    63    61   ar
    32    63    65   ar
    33    55    54    1
    34    54    52   am
    35   109   108    1
    36   106   105    1
    37    61    64   ar
    38    65    67   ar
    39    52    53    2
    40    52    51    1
    41    51    50    1
    42   105   108    1
    43   105   104    1
    44    50    44   am
    45    64    66   ar
    46    67    66   ar
    47    44    43    1
    48    44    45    2
    49    47    49    1
    50    47    46    1
    51    47    48    1
    52    46    43    1
    53    43    42    1
    54    28    27    1
    55    28    29    1
    56    99    98    2
    57    41    40    2
    58    27    26    1
    59    42    40   am
    60    90    89    2
    61    40    39    1
    62    98    97    1
    63     4     3    2
    64   102   100    1
    65     2     3    1
    66     2     1    1
    67    97   100    1
    68    97    96    1
    69    26    23    1
    70     3     5   am
    71    89    96   am
    72    89    88    1
    73    23    22    1
    74    23    24    1
    75   100   101    1
    76    39    38    1
    77    20    19    1
    78     5     6    1
    79   101   103    1
    80    17    18    1
    81    17    16    1
    82    88    91    1
    83    88    87    1
    84     6     9    1
    85     6     7    1
    86    25    24    2
    87    19    18    2
    88    19    21    1
    89    24    30   am
    90    91    92    1
    91    86    84    1
    92     9    10    1
    93    85    84    1
    94    16    15    1
    95     7    11   am
    96     7     8    2
    97    84    83    2
    98    92    93    1
    99    30    31    1
   100    94    93   ar
   101    11    12    1
   102    36    35   ar
   103    93    95   ar
   104    15    12    1
   105    79    78    2
   106    31    32    1
   107    31    34    1
   108    12    13    1
   109    83    82    1
   110    35    37   ar
   111    35    34    1
   112    32    33    2
   113    82    81    1
   114    78    77    1
   115    14    13    2
   116    81    80    1
   117    77    80    1
   118    77    76    1
