@<TRIPOS>MOLECULE
tmp/4bqfB00.pdb
 160 152 0 0 0
SMALL
GASTEIGER

@<TRIPOS>ATOM
      1  N         62.8090  -22.6380   64.1690 N.3    79  LEU79      -0.1245
      2  CA        63.8520  -22.9100   63.1350 C.3    79  LEU79       0.1561
      3  C         63.8450  -24.4080   62.8390 C.2    79  LEU79       0.2260
      4  O         64.6400  -25.1700   63.3730 O.2    79  LEU79      -0.2867
      5  CB        65.2710  -22.5010   63.5910 C.3    79  LEU79       0.0270
      6  CG        65.7860  -21.0770   63.4310 C.3    79  LEU79       0.0019
      7  CD1       67.2210  -21.0760   63.9190 C.3    79  LEU79       0.0001
      8  CD2       65.6870  -20.5860   62.0040 C.3    79  LEU79       0.0001
      9  N         64.1160  -17.1670   63.2000 N.3   122  ASN122     -0.1225
     10  CA        65.3720  -16.4440   63.0200 C.3   122  ASN122      0.1785
     11  C         66.4860  -16.8760   63.9280 C.2   122  ASN122      0.2598
     12  O         67.5810  -17.2220   63.4660 O.2   122  ASN122     -0.2718
     13  CB        65.1170  -14.9520   63.2220 C.3   122  ASN122      0.1169
     14  CG        66.3900  -14.1290   63.2150 C.2   122  ASN122      0.2627
     15  OD1       67.2010  -14.2300   62.2890 O.2   122  ASN122     -0.2716
     16  ND2       66.5790  -13.3230   64.2650 N.am  122  ASN122     -0.0877
     17  N         66.2200  -16.8130   65.2310 N.am  123  GLY123     -0.1942
     18  CA        67.2790  -16.9840   66.2310 C.3   123  GLY123      0.2014
     19  C         67.1240  -18.1690   67.1370 C.2   123  GLY123      0.2639
     20  O         66.4090  -19.1350   66.8360 O.2   123  GLY123     -0.2714
     21  N         67.8260  -18.0840   68.2620 N.am  124  GLY124     -0.1954
     22  CA        67.8130  -19.1410   69.2630 C.3   124  GLY124      0.1869
     23  C         66.4550  -19.3010   69.8810 C.2   124  GLY124      0.2309
     24  O         66.1260  -20.3620   70.3390 O.2   124  GLY124     -0.2863
     25  N         64.9770  -21.8760   67.4780 N.3   127  ARG127     -0.1245
     26  CA        65.5810  -23.1810   67.5210 C.3   127  ARG127      0.1563
     27  C         65.3060  -23.8770   68.8630 C.2   127  ARG127      0.2260
     28  O         65.2410  -25.0960   68.9510 O.2   127  ARG127     -0.2867
     29  CB        67.0780  -23.1100   67.3030 C.3   127  ARG127      0.0307
     30  CG        67.6560  -24.4970   67.2490 C.3   127  ARG127      0.0489
     31  CD        67.0090  -25.3270   66.1420 C.3   127  ARG127      0.2205
     32  NE        66.7420  -26.6730   66.5760 N.pl3 127  ARG127     -0.0865
     33  CZ        66.2420  -27.6550   65.8290 C.cat 127  ARG127      0.5346
     34  NH1       65.9170  -27.4920   64.5510 N.pl3 127  ARG127      0.1354
     35  NH2       66.0790  -28.8290   66.3840 N.pl3 127  ARG127      0.1354
     36  N         71.3600  -32.7840   66.5630 N.3   480  TRP480     -0.1241
     37  CA        72.6340  -32.1430   66.8290 C.3   480  TRP480      0.1605
     38  C         73.8320  -33.0140   67.1800 C.2   480  TRP480      0.2264
     39  O         74.8720  -32.5030   67.5200 O.2   480  TRP480     -0.2867
     40  CB        72.4550  -31.0080   67.8720 C.3   480  TRP480      0.0550
     41  CG        71.5690  -29.8810   67.3930 C.ar  480  TRP480      0.0003
     42  CD1       70.3260  -29.4980   67.8860 C.ar  480  TRP480      0.0946
     43  CD2       71.8020  -29.0130   66.2490 C.ar  480  TRP480      0.0152
     44  NE1       69.7860  -28.4680   67.1360 N.ar  480  TRP480     -0.2442
     45  CE2       70.6290  -28.1480   66.1320 C.ar  480  TRP480      0.0810
     46  CE3       72.8170  -28.8840   65.3210 C.ar  480  TRP480      0.0012
     47  CZ2       70.5470  -27.1790   65.1590 C.ar  480  TRP480      0.0191
     48  CZ3       72.7110  -27.9070   64.3580 C.ar  480  TRP480      0.0001
     49  CH2       71.6200  -27.0670   64.3020 C.ar  480  TRP480      0.0015
     50  N         79.6090  -18.1180   65.0060 N.3   557  VAL557     -0.1231
     51  CA        78.3820  -17.9250   64.2710 C.3   557  VAL557      0.1692
     52  C         77.2530  -17.6280   65.2290 C.2   557  VAL557      0.2592
     53  O         76.9460  -18.4030   66.1120 O.2   557  VAL557     -0.2718
     54  CB        78.0870  -19.0900   63.3410 C.3   557  VAL557      0.0266
     55  CG1       79.1050  -19.1090   62.1940 C.3   557  VAL557      0.0020
     56  CG2       78.0450  -20.4040   64.1070 C.3   557  VAL557      0.0020
     57  N         76.6610  -16.4600   65.0380 N.am  558  LYS558     -0.1966
     58  CA        75.4660  -16.0390   65.7550 C.3   558  LYS558      0.1728
     59  C         75.0370  -14.6650   65.2380 C.2   558  LYS558      0.2616
     60  O         75.7440  -14.0600   64.4140 O.2   558  LYS558     -0.2715
     61  CB        75.7260  -15.9720   67.2540 C.3   558  LYS558      0.0311
     62  CG        76.9610  -15.2130   67.6390 C.3   558  LYS558      0.0038
     63  CD        77.3380  -15.5410   69.0740 C.3   558  LYS558      0.0206
     64  CE        77.8310  -16.9780   69.2460 C.3   558  LYS558      0.1093
     65  NZ        77.1900  -17.6730   70.3760 N.3   558  LYS558     -0.1314
     66  N         73.8940  -14.1820   65.7400 N.am  559  ARG559     -0.1977
     67  CA        73.3540  -12.8740   65.3520 C.3   559  ARG559      0.1597
     68  C         74.4360  -11.8090   65.5050 C.2   559  ARG559      0.2287
     69  O         75.0940  -11.7770   66.5340 O.2   559  ARG559     -0.2864
     70  CB        72.1060  -12.5210   66.1980 C.3   559  ARG559      0.0334
     71  CG        71.6780  -11.0380   66.1950 C.3   559  ARG559      0.0492
     72  CD        70.2040  -10.7880   66.6160 C.3   559  ARG559      0.2205
     73  NE        69.7980  -11.4250   67.8920 N.pl3 559  ARG559     -0.0865
     74  CZ        69.1870  -12.6120   68.0340 C.cat 559  ARG559      0.5346
     75  NH1       68.8800  -13.3640   66.9820 N.pl3 559  ARG559      0.1354
     76  NH2       68.8950  -13.0640   69.2540 N.pl3 559  ARG559      0.1354
     77  N         77.5370   -9.0980   71.1270 N.3   564  LYS564     -0.1245
     78  CA        78.1110  -10.4200   70.8580 C.3   564  LYS564      0.1561
     79  C         79.6100  -10.2960   70.5060 C.2   564  LYS564      0.2260
     80  O         80.3520  -11.2730   70.5000 O.2   564  LYS564     -0.2867
     81  CB        77.3410  -11.1600   69.7470 C.3   564  LYS564      0.0271
     82  CG        75.8180  -11.3150   69.9940 C.3   564  LYS564      0.0035
     83  CD        75.3710  -12.7100   70.4200 C.3   564  LYS564      0.0206
     84  CE        73.8500  -12.8570   70.3690 C.3   564  LYS564      0.1093
     85  NZ        73.2850  -14.1270   70.9650 N.3   564  LYS564     -0.1314
     86  N         73.7160  -17.6780   57.3840 N.3   641  TYR641     -0.1227
     87  CA        73.7130  -18.5630   58.5220 C.3   641  TYR641      0.1736
     88  C         72.2940  -18.9710   58.8810 C.2   641  TYR641      0.2595
     89  O         71.4340  -18.1330   59.0160 O.2   641  TYR641     -0.2718
     90  CB        74.4050  -17.9230   59.7070 C.3   641  TYR641      0.0548
     91  CG        74.4570  -18.8150   60.9450 C.ar  641  TYR641     -0.0200
     92  CD1       75.1590  -20.0030   60.9340 C.ar  641  TYR641     -0.0009
     93  CD2       73.7610  -18.4650   62.1110 C.ar  641  TYR641     -0.0009
     94  CE1       75.1830  -20.8210   62.0430 C.ar  641  TYR641      0.0417
     95  CE2       73.7730  -19.2720   63.2290 C.ar  641  TYR641      0.0417
     96  CZ        74.5040  -20.4440   63.1920 C.ar  641  TYR641      0.1957
     97  OH        74.5790  -21.2460   64.2990 O.3   641  TYR641     -0.2866
     98  N         72.0720  -20.2840   58.9370 N.am  642  ASN642     -0.1960
     99  CA        70.7780  -20.8930   59.2270 C.3   642  ASN642      0.1819
    100  C         71.0190  -22.3150   59.7350 C.2   642  ASN642      0.2621
    101  O         72.1710  -22.7140   59.9920 O.2   642  ASN642     -0.2715
    102  CB        69.9040  -20.8850   57.9640 C.3   642  ASN642      0.1195
    103  CG        70.5200  -21.6630   56.8160 C.2   642  ASN642      0.2630
    104  OD1       71.3840  -22.5230   57.0050 O.2   642  ASN642     -0.2716
    105  ND2       70.0870  -21.3680   55.6410 N.am  642  ASN642     -0.0877
    106  N         69.9650  -23.1180   59.8570 N.am  643  VAL643     -0.1977
    107  CA        70.1400  -24.4110   60.5070 C.3   643  VAL643      0.1596
    108  C         71.0310  -25.3280   59.6830 C.2   643  VAL643      0.2287
    109  O         71.9440  -25.9500   60.2340 O.2   643  VAL643     -0.2864
    110  CB        68.8130  -25.0700   60.8300 C.3   643  VAL643      0.0276
    111  CG1       69.0340  -26.4910   61.3830 C.3   643  VAL643      0.0022
    112  CG2       68.0260  -24.1600   61.7550 C.3   643  VAL643      0.0022
    113  N         74.7200  -24.2570   60.2060 N.3   646  ALA646     -0.1245
    114  CA        75.1310  -24.7800   61.4790 C.3   646  ALA646      0.1562
    115  C         75.3930  -26.2730   61.3750 C.2   646  ALA646      0.2260
    116  O         76.4040  -26.7670   61.8640 O.2   646  ALA646     -0.2867
    117  CB        74.0650  -24.4990   62.5280 C.3   646  ALA646      0.0290
    118  N         73.9730  -12.1840   78.0690 N.3   665  GLU665     -0.1245
    119  CA        73.3190  -13.3860   77.5270 C.3   665  GLU665      0.1567
    120  C         72.6180  -14.1240   78.6360 C.2   665  GLU665      0.2260
    121  O         73.2410  -14.4170   79.6700 O.2   665  GLU665     -0.2867
    122  CB        74.3320  -14.3450   76.9160 C.3   665  GLU665      0.0388
    123  CG        74.9570  -13.8690   75.6270 C.3   665  GLU665      0.1160
    124  CD        74.2650  -14.4290   74.3940 C.2   665  GLU665      0.3649
    125  OE1       73.0920  -14.8560   74.4810 O.co2 665  GLU665     -0.2457
    126  OE2       74.8930  -14.4400   73.3210 O.co2 665  GLU665     -0.2457
    127  N         72.2770  -19.1980   75.4010 N.3   668  GLY668     -0.1210
    128  CA        73.2010  -19.6570   74.3750 C.3   668  GLY668      0.1956
    129  C         73.1250  -21.1730   74.2070 C.2   668  GLY668      0.2613
    130  O         73.9210  -21.9540   74.7790 O.2   668  GLY668     -0.2717
    131  N         72.2480  -21.5880   73.3280 N.am  669  THR669     -0.1938
    132  CA        72.1780  -22.9610   72.9690 C.3   669  THR669      0.2028
    133  C         73.1670  -23.4110   71.8880 C.2   669  THR669      0.2643
    134  O         73.4540  -24.6010   71.8050 O.2   669  THR669     -0.2714
    135  CB        70.7680  -23.2750   72.5710 C.3   669  THR669      0.1808
    136  OG1       70.4580  -22.4980   71.4350 O.3   669  THR669     -0.2208
    137  CG2       69.8020  -22.8830   73.7460 C.3   669  THR669      0.0379
    138  N         73.7490  -22.5180   71.0930 N.am  670  SER670     -0.1935
    139  CA        74.7840  -22.9910   70.1150 C.3   670  SER670      0.2055
    140  C         76.0360  -23.4870   70.8360 C.2   670  SER670      0.2643
    141  O         76.7910  -24.3230   70.3190 O.2   670  SER670     -0.2714
    142  CB        75.1770  -21.9050   69.1050 C.3   670  SER670      0.2130
    143  OG        75.4520  -20.6310   69.6990 O.3   670  SER670     -0.2179
    144  N         76.2650  -22.8990   72.0100 N.am  671  ASN671     -0.1971
    145  CA        77.3570  -23.2270   72.8940 C.3   671  ASN671      0.1688
    146  C         77.3130  -24.7090   73.0950 C.2   671  ASN671      0.2292
    147  O         78.2990  -25.4020   72.9340 O.2   671  ASN671     -0.2864
    148  CB        77.1630  -22.5200   74.2570 C.3   671  ASN671      0.1181
    149  CG        76.9360  -21.0040   74.1370 C.2   671  ASN671      0.2629
    150  OD1       76.3450  -20.4970   73.1580 O.2   671  ASN671     -0.2716
    151  ND2       77.3920  -20.2700   75.1390 N.am  671  ASN671     -0.0877
    152  N         75.6810  -27.0740   71.4500 N.3   673  LYS673     -0.1245
    153  CA        75.8950  -27.8720   70.2180 C.3   673  LYS673      0.1561
    154  C         77.3800  -28.1320   69.9870 C.2   673  LYS673      0.2260
    155  O         77.7730  -29.2430   69.6830 O.2   673  LYS673     -0.2867
    156  CB        75.2720  -27.1990   68.9950 C.3   673  LYS673      0.0271
    157  CG        73.8070  -26.8550   69.1920 C.3   673  LYS673      0.0035
    158  CD        73.2820  -25.9520   68.0990 C.3   673  LYS673      0.0206
    159  CE        71.8370  -25.6580   68.3440 C.3   673  LYS673      0.1093
    160  NZ        71.3650  -24.5360   67.5130 N.3   673  LYS673     -0.1314
@<TRIPOS>BOND
     1   105   103   am
     2   103   104    2
     3   103   102    1
     4    86    87    1
     5   102    99    1
     6    87    88    1
     7    87    90    1
     8    88    98   am
     9    88    89    2
    10    98    99    1
    11    99   100    1
    12   108   109    2
    13   108   107    1
    14    90    91    1
    15   100   106   am
    16   100   101    2
    17   106   107    1
    18   113   114    1
    19   107   110    1
    20   110   111    1
    21   110   112    1
    22    92    91   ar
    23    92    94   ar
    24    91    93   ar
    25   115   114    1
    26   115   116    2
    27   114   117    1
    28     8     6    1
    29    94    96   ar
    30    93    95   ar
    31    55    54    1
    32    15    14    2
    33     3     2    1
    34     3     4    2
    35    10     9    1
    36    10    13    1
    37    10    11    1
    38     2     5    1
    39     2     1    1
    40    96    95   ar
    41    96    97    1
    42    14    13    1
    43    14    16   am
    44    54    56    1
    45    54    51    1
    46     6     5    1
    47     6     7    1
    48    12    11    2
    49    11    17   am
    50    51    50    1
    51    51    52    1
    52    49    48   ar
    53    49    47   ar
    54    48    46   ar
    55    60    59    2
    56    34    33    1
    57    57    52   am
    58    57    58    1
    59    47    45   ar
    60    52    53    2
    61    17    18    1
    62    59    66   am
    63    59    58    1
    64    46    43   ar
    65    67    68    1
    66    67    66    1
    67    67    70    1
    68    68    69    2
    69    58    61    1
    70    33    35    1
    71    33    32    2
    72    45    43   ar
    73    45    44   ar
    74    31    32    1
    75    31    30    1
    76    71    70    1
    77    71    72    1
    78    18    19    1
    79    43    41   ar
    80    36    37    1
    81    72    73    1
    82    37    38    1
    83    37    40    1
    84    20    19    2
    85    75    74    1
    86    44    42   ar
    87    19    21   am
    88    38    39    2
    89    30    29    1
    90    61    62    1
    91    29    26    1
    92    41    40    1
    93    41    42   ar
    94    25    26    1
    95   160   159    1
    96    26    27    1
    97    62    63    1
    98    73    74    2
    99    74    76    1
   100   158   159    1
   101   158   157    1
   102    21    22    1
   103    27    28    2
   104   156   157    1
   105   156   153    1
   106    63    64    1
   107   142   143    1
   108   142   139    1
   109    64    65    1
   110    22    23    1
   111   155   154    2
   112    81    82    1
   113    81    78    1
   114    23    24    2
   115   154   153    1
   116    82    83    1
   117   139   140    1
   118   139   138    1
   119   153   152    1
   120   141   140    2
   121    84    83    1
   122    84    85    1
   123    80    79    2
   124    79    78    1
   125   140   144   am
   126    78    77    1
   127   138   133   am
   128   136   135    1
   129   134   133    2
   130   133   132    1
   131   144   145    1
   132   135   132    1
   133   135   137    1
   134   145   146    1
   135   145   148    1
   136   147   146    2
   137   132   131    1
   138   150   149    2
   139   126   124   ar
   140   131   129   am
   141   149   148    1
   142   149   151   am
   143   129   128    1
   144   129   130    2
   145   128   127    1
   146   124   125   ar
   147   124   123    1
   148   123   122    1
   149   122   119    1
   150   119   118    1
   151   119   120    1
   152   120   121    2
