@<TRIPOS>MOLECULE
tmp/4bqfB01.pdb
 128 123 0 0 0
SMALL
GASTEIGER

@<TRIPOS>ATOM
      1  N         21.8030   -6.3320   78.5710 N.3   200  ASP200     -0.1225
      2  CA        22.0560   -7.2320   79.7040 C.3   200  ASP200      0.1805
      3  C         23.4910   -7.1010   80.2620 C.2   200  ASP200      0.2598
      4  O         23.8460   -7.8100   81.2010 O.2   200  ASP200     -0.2718
      5  CB        21.7630   -8.6810   79.3120 C.3   200  ASP200      0.1424
      6  CG        22.8500   -9.2940   78.4510 C.2   200  ASP200      0.3668
      7  OD1       23.8230   -8.6020   78.0890 O.co2 200  ASP200     -0.2456
      8  OD2       22.7470  -10.4950   78.1360 O.co2 200  ASP200     -0.2456
      9  N         24.3100   -6.2300   79.6610 N.am  201  GLY201     -0.1942
     10  CA        25.6390   -5.9340   80.1680 C.3   201  GLY201      0.2014
     11  C         26.6980   -6.8690   79.6640 C.2   201  GLY201      0.2640
     12  O         27.8560   -6.7800   80.0660 O.2   201  GLY201     -0.2714
     13  N         26.3100   -7.8000   78.8040 N.am  202  SER202     -0.1935
     14  CA        27.2880   -8.5790   78.0480 C.3   202  SER202      0.2055
     15  C         27.9340   -7.6770   76.9880 C.2   202  SER202      0.2642
     16  O         27.3850   -6.6470   76.6020 O.2   202  SER202     -0.2714
     17  CB        26.6450   -9.8150   77.3960 C.3   202  SER202      0.2130
     18  OG        25.7190   -9.4240   76.3980 O.3   202  SER202     -0.2179
     19  N         29.1130   -8.0740   76.5390 N.am  203  ARG203     -0.1977
     20  CA        29.8520   -7.2460   75.6350 C.3   203  ARG203      0.1597
     21  C         30.3190   -8.0510   74.4370 C.2   203  ARG203      0.2287
     22  O         30.4240   -9.2610   74.4870 O.2   203  ARG203     -0.2864
     23  CB        30.9910   -6.5650   76.3720 C.3   203  ARG203      0.0334
     24  CG        30.5430   -5.6900   77.5300 C.3   203  ARG203      0.0492
     25  CD        31.7220   -5.1640   78.3670 C.3   203  ARG203      0.2205
     26  NE        32.2620   -3.9110   77.8430 N.pl3 203  ARG203     -0.0865
     27  CZ        31.8500   -2.6930   78.2000 C.cat 203  ARG203      0.5346
     28  NH1       30.9010   -2.5300   79.1230 N.pl3 203  ARG203      0.1354
     29  NH2       32.4040   -1.6260   77.6290 N.pl3 203  ARG203      0.1354
     30  N         34.4030  -15.0610   78.3110 N.3   342  MET342     -0.1230
     31  CA        33.3040  -14.2250   78.7920 C.3   342  MET342      0.1702
     32  C         32.3220  -13.8760   77.6830 C.2   342  MET342      0.2592
     33  O         31.1260  -13.8960   77.9010 O.2   342  MET342     -0.2718
     34  CB        33.8310  -12.9370   79.4410 C.3   342  MET342      0.0401
     35  CG        34.6910  -13.1300   80.6800 C.3   342  MET342      0.0596
     36  SD        35.2180  -11.5350   81.3490 S.3   342  MET342     -0.1393
     37  CE        36.3270  -10.9650   80.0680 C.3   342  MET342      0.0692
     38  N         32.8250  -13.5180   76.5090 N.am  343  ASP343     -0.1974
     39  CA        31.9470  -12.9770   75.4670 C.3   343  ASP343      0.1709
     40  C         31.3460  -14.1050   74.6390 C.2   343  ASP343      0.2293
     41  O         30.1330  -14.2350   74.5410 O.2   343  ASP343     -0.2864
     42  CB        32.6710  -11.9770   74.5480 C.3   343  ASP343      0.1436
     43  CG        33.1340  -10.7150   75.2650 C.2   343  ASP343      0.3671
     44  OD1       32.7980  -10.4940   76.4370 O.co2 343  ASP343     -0.2456
     45  OD2       33.8740   -9.9270   74.6440 O.co2 343  ASP343     -0.2456
     46  N         30.9650  -16.7960   80.3830 N.3   347  LEU347     -0.1231
     47  CA        31.4860  -16.9040   81.7380 C.3   347  LEU347      0.1693
     48  C         31.5990  -15.5160   82.3430 C.2   347  LEU347      0.2593
     49  O         31.8230  -14.5100   81.6270 O.2   347  LEU347     -0.2718
     50  CB        32.8750  -17.5540   81.7940 C.3   347  LEU347      0.0284
     51  CG        33.0080  -19.0720   81.8900 C.3   347  LEU347      0.0019
     52  CD1       32.5180  -19.6990   80.6070 C.3   347  LEU347      0.0001
     53  CD2       34.4550  -19.4810   82.1280 C.3   347  LEU347      0.0001
     54  N         31.4050  -15.4720   83.6650 N.am  348  GLY348     -0.1942
     55  CA        31.7150  -14.2970   84.4520 C.3   348  GLY348      0.2014
     56  C         33.2140  -14.0960   84.6310 C.2   348  GLY348      0.2638
     57  O         34.0220  -15.0130   84.4760 O.2   348  GLY348     -0.2714
     58  N         33.5670  -12.8520   84.9510 N.am  349  TRP349     -0.1973
     59  CA        34.9570  -12.4210   85.0980 C.3   349  TRP349      0.1640
     60  C         35.7340  -13.3290   85.9990 C.2   349  TRP349      0.2290
     61  O         36.7820  -13.8430   85.5830 O.2   349  TRP349     -0.2864
     62  CB        35.0370  -10.9600   85.5800 C.3   349  TRP349      0.0576
     63  CG        36.4530  -10.5460   85.7430 C.ar  349  TRP349      0.0006
     64  CD1       37.2740  -10.7910   86.8190 C.ar  349  TRP349      0.0946
     65  CD2       37.3200   -9.8730   84.7550 C.ar  349  TRP349      0.0152
     66  NE1       38.5250  -10.3210   86.5900 N.ar  349  TRP349     -0.2442
     67  CE2       38.6170   -9.7540   85.3730 C.ar  349  TRP349      0.0810
     68  CE3       37.1320   -9.3470   83.5030 C.ar  349  TRP349      0.0012
     69  CZ2       39.6780   -9.1220   84.7420 C.ar  349  TRP349      0.0191
     70  CZ3       38.2160   -8.7570   82.8500 C.ar  349  TRP349      0.0001
     71  CH2       39.4550   -8.6310   83.4680 C.ar  349  TRP349      0.0015
     72  N         38.7090   -4.3030   72.6360 N.3   386  ARG386     -0.1245
     73  CA        38.0530   -5.1430   73.6290 C.3   386  ARG386      0.1563
     74  C         39.1350   -5.6370   74.5500 C.2   386  ARG386      0.2260
     75  O         38.9260   -5.7950   75.7370 O.2   386  ARG386     -0.2867
     76  CB        37.3300   -6.3180   72.9540 C.3   386  ARG386      0.0307
     77  CG        36.6320   -7.2670   73.9050 C.3   386  ARG386      0.0489
     78  CD        35.5050   -6.5890   74.6280 C.3   386  ARG386      0.2205
     79  NE        34.8300   -7.5040   75.5480 N.pl3 386  ARG386     -0.0865
     80  CZ        34.8360   -7.4010   76.8730 C.cat 386  ARG386      0.5346
     81  NH1       35.4360   -6.3970   77.4750 N.pl3 386  ARG386      0.1354
     82  NH2       34.1920   -8.2900   77.6030 N.pl3 386  ARG386      0.1354
     83  N         39.9970   -3.0150   77.1760 N.3   389  GLU389     -0.1231
     84  CA        39.0290   -3.0050   78.2730 C.3   389  GLU389      0.1699
     85  C         39.4100   -4.0560   79.2770 C.2   389  GLU389      0.2592
     86  O         39.4530   -3.7900   80.4460 O.2   389  GLU389     -0.2718
     87  CB        37.6090   -3.3150   77.7870 C.3   389  GLU389      0.0402
     88  CG        36.9920   -2.2360   76.9330 C.3   389  GLU389      0.1161
     89  CD        35.5200   -2.4810   76.5600 C.2   389  GLU389      0.3649
     90  OE1       35.0430   -3.6550   76.6270 O.co2 389  GLU389     -0.2457
     91  OE2       34.8260   -1.4930   76.1870 O.co2 389  GLU389     -0.2457
     92  N         39.6640   -5.2660   78.8000 N.am  390  ILE390     -0.1980
     93  CA        39.9970   -6.3700   79.6470 C.3   390  ILE390      0.1595
     94  C         41.3360   -6.0890   80.3160 C.2   390  ILE390      0.2287
     95  O         41.4460   -6.1930   81.5320 O.2   390  ILE390     -0.2864
     96  CB        40.0270   -7.6920   78.8220 C.3   390  ILE390      0.0276
     97  CG1       38.6320   -8.0550   78.3420 C.3   390  ILE390      0.0022
     98  CG2       40.6310   -8.8500   79.6000 C.3   390  ILE390      0.0022
     99  CD1       38.6680   -8.9870   77.1320 C.3   390  ILE390      0.0001
    100  N         40.8100   -3.7180   83.2070 N.3   393  GLU393     -0.1245
    101  CA        40.1790   -4.3460   84.3400 C.3   393  GLU393      0.1567
    102  C         41.1840   -5.2240   85.0620 C.2   393  GLU393      0.2260
    103  O         41.1440   -5.3320   86.2860 O.2   393  GLU393     -0.2867
    104  CB        38.9370   -5.1220   83.9090 C.3   393  GLU393      0.0388
    105  CG        38.1890   -5.7740   85.0560 C.3   393  GLU393      0.1160
    106  CD        37.3300   -4.8360   85.8890 C.2   393  GLU393      0.3649
    107  OE1       37.3790   -3.6050   85.7020 O.co2 393  GLU393     -0.2457
    108  OE2       36.5870   -5.3510   86.7620 O.co2 393  GLU393     -0.2457
    109  N         43.2110   -2.6810   87.1250 N.3   396  LYS396     -0.1231
    110  CA        42.3860   -2.1420   88.1740 C.3   396  LYS396      0.1693
    111  C         42.2210   -3.1050   89.3570 C.2   396  LYS396      0.2591
    112  O         42.1900   -2.6680   90.5070 O.2   396  LYS396     -0.2718
    113  CB        41.0210   -1.7870   87.5940 C.3   396  LYS396      0.0285
    114  CG        39.9890   -1.3140   88.6160 C.3   396  LYS396      0.0035
    115  CD        38.6230   -1.1300   87.9870 C.3   396  LYS396      0.0206
    116  CE        37.6120   -0.6770   89.0310 C.3   396  LYS396      0.1093
    117  NZ        36.2740   -0.6610   88.3870 N.3   396  LYS396     -0.1314
    118  N         42.0920   -4.4070   89.0960 N.am  397  ARG397     -0.1980
    119  CA        41.9760   -5.4010   90.1860 C.3   397  ARG397      0.1597
    120  C         43.3140   -5.6900   90.8910 C.2   397  ARG397      0.2287
    121  O         43.3850   -5.7160   92.1290 O.2   397  ARG397     -0.2864
    122  CB        41.3360   -6.6920   89.6950 C.3   397  ARG397      0.0334
    123  CG        39.8570   -6.4900   89.4260 C.3   397  ARG397      0.0492
    124  CD        39.2020   -7.6700   88.7380 C.3   397  ARG397      0.2205
    125  NE        37.7490   -7.4440   88.5160 N.pl3 397  ARG397     -0.0865
    126  CZ        36.7580   -8.1380   89.1040 C.cat 397  ARG397      0.5346
    127  NH1       37.0250   -9.1420   89.9340 N.pl3 397  ARG397      0.1354
    128  NH2       35.4990   -7.8650   88.8230 N.pl3 397  ARG397      0.1354
@<TRIPOS>BOND
     1    72    73    1
     2    76    73    1
     3    76    77    1
     4    73    74    1
     5    77    78    1
     6    21    22    2
     7    21    20    1
     8    41    40    2
     9    42    43    1
    10    42    39    1
    11    74    75    2
    12    78    79    1
    13    40    39    1
    14    45    43   ar
    15    43    44   ar
    16    39    38    1
    17    79    80    2
    18    20    23    1
    19    20    19    1
    20    91    89   ar
    21    23    24    1
    22    18    17    1
    23    38    32   am
    24    19    15   am
    25    89    90   ar
    26    89    88    1
    27    16    15    2
    28    80    81    1
    29    80    82    1
    30    88    87    1
    31    15    14    1
    32    99    97    1
    33    83    84    1
    34    17    14    1
    35    24    25    1
    36    29    27    1
    37    32    33    2
    38    32    31    1
    39    87    84    1
    40    26    27    2
    41    26    25    1
    42    14    13    1
    43     7     6   ar
    44     8     6   ar
    45    27    28    1
    46    84    85    1
    47    30    31    1
    48    97    96    1
    49     6     5    1
    50     1     2    1
    51    31    34    1
    52    92    85   am
    53    92    93    1
    54    13    11   am
    55    96    98    1
    56    96    93    1
    57    85    86    2
    58     5     2    1
    59    34    35    1
    60    93    94    1
    61     9    10    1
    62     9     3   am
    63    11    12    2
    64    11    10    1
    65     2     3    1
    66    37    36    1
    67     3     4    2
    68    94    95    2
    69    46    47    1
    70    52    51    1
    71    35    36    1
    72    49    48    2
    73    47    50    1
    74    47    48    1
    75    50    51    1
    76    51    53    1
    77    48    54   am
    78    70    71   ar
    79    70    68   ar
    80   100   101    1
    81    71    69   ar
    82    68    65   ar
    83    54    55    1
    84   104   101    1
    85   104   105    1
    86   101   102    1
    87    55    56    1
    88    57    56    2
    89    56    58   am
    90    69    67   ar
    91    65    67   ar
    92    65    63   ar
    93    58    59    1
    94   105   106    1
    95   102   103    2
    96    59    62    1
    97    59    60    1
    98    67    66   ar
    99    62    63    1
   100    61    60    2
   101   107   106   ar
   102    63    64   ar
   103   106   108   ar
   104    66    64   ar
   105   109   110    1
   106   113   110    1
   107   113   114    1
   108   115   114    1
   109   115   116    1
   110   110   111    1
   111   117   116    1
   112   125   124    1
   113   125   126    2
   114   124   123    1
   115   128   126    1
   116   118   111   am
   117   118   119    1
   118   126   127    1
   119   111   112    2
   120   123   122    1
   121   122   119    1
   122   119   120    1
   123   120   121    2
