@<TRIPOS>MOLECULE
tmp/4bqfB02.pdb
 109 101 0 0 0
SMALL
GASTEIGER

@<TRIPOS>ATOM
      1  N         58.5100  -17.8140   66.4810 N.3    77  GLU77      -0.1245
      2  CA        59.5040  -18.4190   65.5950 C.3    77  GLU77       0.1567
      3  C         59.7550  -19.8680   65.9150 C.2    77  GLU77       0.2260
      4  O         59.5710  -20.2750   67.0440 O.2    77  GLU77      -0.2867
      5  CB        60.8240  -17.6400   65.5300 C.3    77  GLU77       0.0388
      6  CG        61.3000  -16.9220   66.7700 C.3    77  GLU77       0.1160
      7  CD        62.6270  -16.1630   66.5440 C.2    77  GLU77       0.3649
      8  OE1       63.5150  -16.6550   65.7820 O.co2  77  GLU77      -0.2457
      9  OE2       62.7740  -15.0430   67.1000 O.co2  77  GLU77      -0.2457
     10  N         64.1160  -17.1670   63.2000 N.3   122  ASN122     -0.1225
     11  CA        65.3720  -16.4440   63.0200 C.3   122  ASN122      0.1785
     12  C         66.4860  -16.8760   63.9280 C.2   122  ASN122      0.2597
     13  O         67.5810  -17.2220   63.4660 O.2   122  ASN122     -0.2718
     14  CB        65.1170  -14.9520   63.2220 C.3   122  ASN122      0.1169
     15  CG        66.3900  -14.1290   63.2150 C.2   122  ASN122      0.2627
     16  OD1       67.2010  -14.2300   62.2890 O.2   122  ASN122     -0.2716
     17  ND2       66.5790  -13.3230   64.2650 N.am  122  ASN122     -0.0877
     18  N         66.2200  -16.8130   65.2310 N.am  123  GLY123     -0.1957
     19  CA        67.2790  -16.9840   66.2310 C.3   123  GLY123      0.1869
     20  C         67.1240  -18.1690   67.1370 C.2   123  GLY123      0.2309
     21  O         66.4090  -19.1350   66.8360 O.2   123  GLY123     -0.2863
     22  N         65.6410  -18.2570   69.8950 N.3   125  LEU125     -0.1245
     23  CA        64.2950  -18.4050   70.4160 C.3   125  LEU125      0.1561
     24  C         63.5690  -19.4920   69.6320 C.2   125  LEU125      0.2260
     25  O         62.8620  -20.3300   70.2040 O.2   125  LEU125     -0.2867
     26  CB        63.5190  -17.1130   70.3000 C.3   125  LEU125      0.0270
     27  CG        62.0920  -17.2490   70.8320 C.3   125  LEU125      0.0019
     28  CD1       62.1180  -17.6980   72.2870 C.3   125  LEU125      0.0001
     29  CD2       61.3940  -15.9050   70.6600 C.3   125  LEU125      0.0001
     30  N         59.1460  -10.4220   62.1970 N.3   271  TYR271     -0.1241
     31  CA        59.5730   -9.1560   62.7470 C.3   271  TYR271      0.1605
     32  C         59.6760   -8.1040   61.6460 C.2   271  TYR271      0.2264
     33  O         60.7510   -7.6240   61.3220 O.2   271  TYR271     -0.2867
     34  CB        60.9150   -9.3280   63.3960 C.3   271  TYR271      0.0534
     35  CG        60.9600  -10.3940   64.4280 C.ar  271  TYR271     -0.0201
     36  CD1       60.1080  -10.3480   65.5460 C.ar  271  TYR271     -0.0009
     37  CD2       61.9040  -11.4310   64.3470 C.ar  271  TYR271     -0.0009
     38  CE1       60.1680  -11.3190   66.5200 C.ar  271  TYR271      0.0417
     39  CE2       61.9760  -12.4020   65.3200 C.ar  271  TYR271      0.0417
     40  CZ        61.1140  -12.3360   66.4070 C.ar  271  TYR271      0.1957
     41  OH        61.2060  -13.2950   67.3770 O.3   271  TYR271     -0.2866
     42  N         59.5330   -1.7900   62.2630 N.3   274  ASP274     -0.1239
     43  CA        58.5020   -1.0850   63.0510 C.3   274  ASP274      0.1674
     44  C         58.8450    0.3680   63.5280 C.2   274  ASP274      0.2266
     45  O         58.3330    0.8160   64.5590 O.2   274  ASP274     -0.2867
     46  CB        58.0750   -1.9550   64.2470 C.3   274  ASP274      0.1410
     47  CG        59.1870   -2.1470   65.2830 C.2   274  ASP274      0.3668
     48  OD1       60.3720   -1.9730   64.9300 O.co2 274  ASP274     -0.2456
     49  OD2       58.8640   -2.5190   66.4540 O.co2 274  ASP274     -0.2456
     50  N         53.0910   -5.6870   63.4530 N.3   283  ARG283     -0.1245
     51  CA        53.5970   -6.5390   64.4870 C.3   283  ARG283      0.1563
     52  C         52.5060   -6.9820   65.4270 C.2   283  ARG283      0.2260
     53  O         52.3900   -8.1610   65.7270 O.2   283  ARG283     -0.2867
     54  CB        54.6500   -5.8090   65.2810 C.3   283  ARG283      0.0307
     55  CG        55.9330   -5.7200   64.5000 C.3   283  ARG283      0.0489
     56  CD        57.0440   -6.4420   65.2010 C.3   283  ARG283      0.2205
     57  NE        58.2820   -6.0860   64.5390 N.pl3 283  ARG283     -0.0865
     58  CZ        59.4670   -5.9300   65.1240 C.cat 283  ARG283      0.5346
     59  NH1       59.5830   -6.0840   66.4250 N.pl3 283  ARG283      0.1354
     60  NH2       60.5410   -5.6230   64.3840 N.pl3 283  ARG283      0.1354
     61  N         58.5850  -15.6350   75.5070 N.3   327  ASP327     -0.1239
     62  CA        58.7880  -14.1760   75.4710 C.3   327  ASP327      0.1674
     63  C         57.4470  -13.4120   75.5290 C.2   327  ASP327      0.2266
     64  O         56.3930  -14.0340   75.7630 O.2   327  ASP327     -0.2867
     65  CB        59.6080  -13.7600   74.2560 C.3   327  ASP327      0.1410
     66  CG        60.9570  -13.2500   74.6160 C.2   327  ASP327      0.3668
     67  OD1       61.2530  -13.0640   75.8260 O.co2 327  ASP327     -0.2456
     68  OD2       61.7630  -13.0440   73.6720 O.co2 327  ASP327     -0.2456
     69  N         55.8670  -11.8290   73.0680 N.3   329  HIS329     -0.1241
     70  CA        55.0720  -11.8020   71.8410 C.3   329  HIS329      0.1621
     71  C         53.6480  -12.2970   71.9890 C.2   329  HIS329      0.2264
     72  O         52.7500  -11.6550   71.4590 O.2   329  HIS329     -0.2867
     73  CB        55.7780  -12.4800   70.6960 C.3   329  HIS329      0.0745
     74  CG        57.1960  -11.9960   70.4970 C.ar  329  HIS329      0.0817
     75  ND1       58.2250  -12.8280   70.4360 N.ar  329  HIS329     -0.2268
     76  CD2       57.7160  -10.7180   70.4180 C.ar  329  HIS329      0.1154
     77  CE1       59.3550  -12.1260   70.2810 C.ar  329  HIS329      0.1986
     78  NE2       59.0270  -10.8300   70.2730 N.ar  329  HIS329     -0.2212
     79  N         58.6410   -5.7980   75.7260 N.3   373  GLU373     -0.1245
     80  CA        57.7470   -5.0710   74.8660 C.3   373  GLU373      0.1567
     81  C         56.7640   -4.1760   75.6120 C.2   373  GLU373      0.2260
     82  O         56.1170   -4.5850   76.5360 O.2   373  GLU373     -0.2867
     83  CB        56.9790   -6.0340   73.9790 C.3   373  GLU373      0.0388
     84  CG        57.8130   -6.6450   72.8700 C.3   373  GLU373      0.1160
     85  CD        56.9670   -7.4320   71.8800 C.2   373  GLU373      0.3649
     86  OE1       56.0410   -8.1630   72.3480 O.co2 373  GLU373     -0.2457
     87  OE2       57.2680   -7.3550   70.6340 O.co2 373  GLU373     -0.2457
     88  N         73.8940  -14.1820   65.7400 N.3   559  ARG559     -0.1245
     89  CA        73.3540  -12.8740   65.3520 C.3   559  ARG559      0.1563
     90  C         74.4360  -11.8090   65.5050 C.2   559  ARG559      0.2260
     91  O         75.0940  -11.7770   66.5340 O.2   559  ARG559     -0.2867
     92  CB        72.1060  -12.5210   66.1980 C.3   559  ARG559      0.0307
     93  CG        71.6780  -11.0380   66.1950 C.3   559  ARG559      0.0489
     94  CD        70.2040  -10.7880   66.6160 C.3   559  ARG559      0.2205
     95  NE        69.7980  -11.4250   67.8920 N.pl3 559  ARG559     -0.0865
     96  CZ        69.1870  -12.6120   68.0340 C.cat 559  ARG559      0.5346
     97  NH1       68.8800  -13.3640   66.9820 N.pl3 559  ARG559      0.1354
     98  NH2       68.8950  -13.0640   69.2540 N.pl3 559  ARG559      0.1354
     99  N         70.2620   -7.2030   61.5490 N.3   603  PHE603     -0.1241
    100  CA        69.0480   -6.4750   61.2720 C.3   603  PHE603      0.1605
    101  C         69.3430   -5.3660   60.2870 C.2   603  PHE603      0.2264
    102  O         70.3190   -4.6330   60.4400 O.2   603  PHE603     -0.2867
    103  CB        68.4350   -5.9060   62.5390 C.3   603  PHE603      0.0534
    104  CG        67.4460   -6.8130   63.1210 C.ar  603  PHE603     -0.0203
    105  CD1       66.1280   -6.7590   62.7000 C.ar  603  PHE603     -0.0042
    106  CD2       67.8490   -7.8050   64.0110 C.ar  603  PHE603     -0.0042
    107  CE1       65.2130   -7.6490   63.2010 C.ar  603  PHE603     -0.0003
    108  CE2       66.9390   -8.7000   64.5310 C.ar  603  PHE603     -0.0003
    109  CZ        65.6190   -8.6250   64.1130 C.ar  603  PHE603     -0.0000
@<TRIPOS>BOND
     1   101   102    2
     2   101   100    1
     3   100    99    1
     4   100   103    1
     5    33    32    2
     6    32    31    1
     7    30    31    1
     8    42    43    1
     9    16    15    2
    10   103   104    1
    11   105   104   ar
    12   105   107   ar
    13    31    34    1
    14    11    10    1
    15    11    14    1
    16    11    12    1
    17    43    44    1
    18    43    46    1
    19   104   106   ar
    20   107   109   ar
    21    15    14    1
    22    15    17   am
    23    34    35    1
    24    50    51    1
    25    13    12    2
    26    44    45    2
    27    12    18   am
    28   106   108   ar
    29   109   108   ar
    30    46    47    1
    31    37    35   ar
    32    37    39   ar
    33    60    58    1
    34    35    36   ar
    35    51    54    1
    36    51    52    1
    37    55    56    1
    38    55    54    1
    39    57    58    2
    40    57    56    1
    41    48    47   ar
    42    58    59    1
    43    18    19    1
    44    47    49   ar
    45    39    40   ar
    46    89    90    1
    47    89    88    1
    48    89    92    1
    49    52    53    2
    50    90    91    2
    51     5     2    1
    52     5     6    1
    53    36    38   ar
    54     2     3    1
    55     2     1    1
    56     8     7   ar
    57     3     4    2
    58    93    92    1
    59    93    94    1
    60    19    20    1
    61    40    38   ar
    62    40    41    1
    63     7     6    1
    64     7     9   ar
    65    94    95    1
    66    21    20    2
    67    97    96    1
    68    95    96    2
    69    96    98    1
    70    24    25    2
    71    24    23    1
    72    22    23    1
    73    78    77   ar
    74    78    76   ar
    75    77    75   ar
    76    26    23    1
    77    26    27    1
    78    76    74   ar
    79    75    74   ar
    80    74    73    1
    81    87    85   ar
    82    29    27    1
    83    73    70    1
    84    27    28    1
    85    72    71    2
    86    70    71    1
    87    70    69    1
    88    85    86   ar
    89    85    84    1
    90    84    83    1
    91    68    66   ar
    92    83    80    1
    93    65    66    1
    94    65    62    1
    95    66    67   ar
    96    80    81    1
    97    80    79    1
    98    62    61    1
    99    62    63    1
   100    63    64    2
   101    81    82    2
