@<TRIPOS>MOLECULE
tmp/4bqgA00.pdb
 140 131 0 0 0
SMALL
GASTEIGER

@<TRIPOS>ATOM
      1  N         16.4060   18.3580   25.9730 N.3     7  PHE7       -0.1241
      2  CA        16.0230   17.0850   25.3870 C.3     7  PHE7        0.1605
      3  C         17.2580   16.1860   25.3860 C.2     7  PHE7        0.2264
      4  O         18.3830   16.6670   25.2760 O.2     7  PHE7       -0.2867
      5  CB        15.6020   17.2500   23.9220 C.3     7  PHE7        0.0534
      6  CG        14.1870   17.7180   23.7430 C.ar    7  PHE7       -0.0203
      7  CD1       13.1110   16.8820   24.0700 C.ar    7  PHE7       -0.0042
      8  CD2       13.9250   18.9760   23.2400 C.ar    7  PHE7       -0.0042
      9  CE1       11.7990   17.3170   23.8990 C.ar    7  PHE7       -0.0003
     10  CE2       12.6070   19.4150   23.0600 C.ar    7  PHE7       -0.0003
     11  CZ        11.5560   18.5850   23.3770 C.ar    7  PHE7       -0.0000
     12  N         -0.9110   11.7390   16.2130 N.3    33  LEU33      -0.1245
     13  CA        -1.4320   12.2790   17.4660 C.3    33  LEU33       0.1561
     14  C         -2.7470   11.5900   17.8590 C.2    33  LEU33       0.2260
     15  O         -2.9890   11.3310   19.0600 O.2    33  LEU33      -0.2867
     16  CB        -1.6000   13.8020   17.4030 C.3    33  LEU33       0.0270
     17  CG        -0.2930   14.5530   17.0920 C.3    33  LEU33       0.0019
     18  CD1       -0.5780   16.0460   17.0260 C.3    33  LEU33       0.0001
     19  CD2        0.9220   14.2530   17.9870 C.3    33  LEU33       0.0001
     20  N         -1.7440    8.2570   19.2930 N.3    36  ASN36      -0.1225
     21  CA        -1.2900    8.4650   20.6720 C.3    36  ASN36       0.1785
     22  C         -2.4830    8.6200   21.6380 C.2    36  ASN36       0.2597
     23  O         -2.4670    8.0560   22.7360 O.2    36  ASN36      -0.2718
     24  CB        -0.3230    9.6590   20.7800 C.3    36  ASN36       0.1169
     25  CG         1.1220    9.2790   20.4740 C.2    36  ASN36       0.2627
     26  OD1        1.4020    8.1350   20.1810 O.2    36  ASN36      -0.2716
     27  ND2        2.0320   10.2410   20.5440 N.am   36  ASN36      -0.0877
     28  N         -3.5050    9.3790   21.2360 N.am   37  SER37      -0.1952
     29  CA        -4.6910    9.5520   22.0780 C.3    37  SER37       0.1924
     30  C         -5.4460    8.2450   22.2910 C.2    37  SER37       0.2314
     31  O         -5.8270    7.9070   23.4170 O.2    37  SER37      -0.2863
     32  CB        -5.6550   10.5930   21.4660 C.3    37  SER37       0.2116
     33  OG        -5.0580   11.8880   21.5440 O.3    37  SER37      -0.2180
     34  N         -3.6280    6.0760   24.7720 N.3    40  ALA40      -0.1245
     35  CA        -3.8420    6.6120   26.1440 C.3    40  ALA40       0.1562
     36  C         -5.2520    6.3030   26.6610 C.2    40  ALA40       0.2260
     37  O         -5.4580    6.0700   27.8770 O.2    40  ALA40      -0.2867
     38  CB        -3.5680    8.1020   26.1700 C.3    40  ALA40       0.0290
     39  N         -5.8580   18.9630   19.9660 N.3    76  ILE76      -0.1245
     40  CA        -6.3370   17.5830   20.0500 C.3    76  ILE76       0.1561
     41  C         -6.4960   17.2580   21.5260 C.2    76  ILE76       0.2260
     42  O         -5.5110   17.3150   22.2770 O.2    76  ILE76      -0.2867
     43  CB        -5.3680   16.5500   19.3890 C.3    76  ILE76       0.0252
     44  CG1       -5.2000   16.8450   17.8850 C.3    76  ILE76       0.0019
     45  CG2       -5.9100   15.1170   19.5900 C.3    76  ILE76       0.0019
     46  CD1       -3.9700   17.6640   17.5480 C.3    76  ILE76       0.0001
     47  N         -7.8860   14.4480   24.4090 N.3    78  ASP78      -0.1239
     48  CA        -8.3490   13.1190   24.7340 C.3    78  ASP78       0.1674
     49  C         -8.5930   13.0020   26.2350 C.2    78  ASP78       0.2266
     50  O         -8.0260   13.7580   27.0100 O.2    78  ASP78      -0.2867
     51  CB        -7.3800   12.0270   24.2070 C.3    78  ASP78       0.1410
     52  CG        -6.0640   11.9640   24.9540 C.2    78  ASP78       0.3668
     53  OD1       -6.0690   11.6220   26.1690 O.co2  78  ASP78      -0.2456
     54  OD2       -4.9930   12.1890   24.3220 O.co2  78  ASP78      -0.2456
     55  N         -0.5770   12.0400   31.8250 N.3    83  MET83      -0.1245
     56  CA         0.8100   11.7950   32.1690 C.3    83  MET83       0.1570
     57  C          1.2240   12.5270   33.4560 C.2    83  MET83       0.2261
     58  O          0.7890   13.6370   33.7250 O.2    83  MET83      -0.2867
     59  CB         1.7060   12.1480   31.0050 C.3    83  MET83       0.0387
     60  CG         1.3140   11.4160   29.7150 C.3    83  MET83       0.0595
     61  SD         2.1240   12.2790   28.3810 S.3    83  MET83      -0.1393
     62  CE         0.8570   13.4390   27.8690 C.3    83  MET83       0.0692
     63  N          6.5380   13.2440   31.8870 N.3    88  LEU88      -0.1245
     64  CA         6.8860   14.4140   31.0770 C.3    88  LEU88       0.1561
     65  C          8.3770   14.7130   31.0860 C.2    88  LEU88       0.2260
     66  O          8.9530   14.9880   30.0430 O.2    88  LEU88      -0.2867
     67  CB         6.1090   15.6640   31.5300 C.3    88  LEU88       0.0270
     68  CG         4.6080   15.6150   31.2330 C.3    88  LEU88       0.0019
     69  CD1        3.9020   16.7810   31.8990 C.3    88  LEU88       0.0001
     70  CD2        4.3160   15.5720   29.7280 C.3    88  LEU88       0.0001
     71  N          8.9740    9.5300   29.1990 N.3    92  LEU92      -0.1231
     72  CA         8.5850    9.5690   27.7740 C.3    92  LEU92       0.1693
     73  C          9.8150    9.6790   26.8590 C.2    92  LEU92       0.2592
     74  O          9.8790    9.0080   25.8230 O.2    92  LEU92      -0.2718
     75  CB         7.5730   10.6910   27.4980 C.3    92  LEU92       0.0284
     76  CG         6.1760   10.4730   28.0980 C.3    92  LEU92       0.0019
     77  CD1        5.4170   11.7940   28.1320 C.3    92  LEU92       0.0001
     78  CD2        5.3450    9.4060   27.4020 C.3    92  LEU92       0.0001
     79  N         10.7950   10.4880   27.2700 N.am   93  GLY93      -0.1957
     80  CA        12.0320   10.6770   26.5270 C.3    93  GLY93       0.1869
     81  C         12.9580    9.4710   26.5880 C.2    93  GLY93       0.2309
     82  O         13.5580    9.1030   25.5790 O.2    93  GLY93      -0.2863
     83  N          4.9180   11.2150   18.2090 N.3   123  PHE123     -0.1227
     84  CA         4.5980   12.5380   18.7880 C.3   123  PHE123      0.1736
     85  C          5.4070   13.6620   18.1500 C.2   123  PHE123      0.2595
     86  O          4.8790   14.7510   17.8980 O.2   123  PHE123     -0.2718
     87  CB         4.8430   12.5640   20.3140 C.3   123  PHE123      0.0547
     88  CG         4.6660   13.9290   20.9210 C.ar  123  PHE123     -0.0202
     89  CD1        3.3940   14.4880   21.0530 C.ar  123  PHE123     -0.0042
     90  CD2        5.7710   14.6800   21.3260 C.ar  123  PHE123     -0.0042
     91  CE1        3.2310   15.7510   21.6180 C.ar  123  PHE123     -0.0003
     92  CE2        5.6110   15.9540   21.8820 C.ar  123  PHE123     -0.0003
     93  CZ         4.3470   16.4910   22.0260 C.ar  123  PHE123     -0.0000
     94  N          6.6880   13.4020   17.8890 N.am  124  TYR124     -0.1976
     95  CA         7.5830   14.4200   17.3860 C.3   124  TYR124      0.1639
     96  C          7.2320   14.8840   15.9710 C.2   124  TYR124      0.2290
     97  O          7.6830   15.9500   15.5460 O.2   124  TYR124     -0.2864
     98  CB         9.0420   13.9550   17.5100 C.3   124  TYR124      0.0560
     99  CG         9.3560   13.6090   18.9520 C.ar  124  TYR124     -0.0198
    100  CD1        9.5820   14.6180   19.9120 C.ar  124  TYR124     -0.0009
    101  CD2        9.3640   12.2780   19.3780 C.ar  124  TYR124     -0.0009
    102  CE1        9.8160   14.2910   21.2500 C.ar  124  TYR124      0.0417
    103  CE2        9.5880   11.9460   20.7100 C.ar  124  TYR124      0.0417
    104  CZ         9.8220   12.9440   21.6340 C.ar  124  TYR124      0.1957
    105  OH        10.0800   12.5800   22.9380 O.3   124  TYR124     -0.2866
    106  N          1.5140   20.9100   25.7070 N.3   135  VAL135     -0.1245
    107  CA         0.7590   19.7060   26.1220 C.3   135  VAL135      0.1561
    108  C          0.2780   19.9320   27.5410 C.2   135  VAL135      0.2260
    109  O          1.0940   20.0840   28.4540 O.2   135  VAL135     -0.2867
    110  CB         1.6330   18.4150   26.0600 C.3   135  VAL135      0.0252
    111  CG1        0.8390   17.2020   26.5360 C.3   135  VAL135      0.0019
    112  CG2        2.1520   18.1650   24.6400 C.3   135  VAL135      0.0019
    113  N          3.4990   20.9900   29.5770 N.3   147  TRP147     -0.1241
    114  CA         4.7960   20.7820   28.9260 C.3   147  TRP147      0.1605
    115  C          4.7540   21.6470   27.7040 C.2   147  TRP147      0.2264
    116  O          3.6800   21.8340   27.1080 O.2   147  TRP147     -0.2867
    117  CB         4.9010   19.2960   28.5400 C.3   147  TRP147      0.0550
    118  CG         6.0630   18.8200   27.6880 C.ar  147  TRP147      0.0003
    119  CD1        7.1610   18.0630   28.1000 C.ar  147  TRP147      0.0946
    120  CD2        6.2520   18.9970   26.2250 C.ar  147  TRP147      0.0152
    121  NE1        7.9820   17.7750   27.0310 N.ar  147  TRP147     -0.2442
    122  CE2        7.4950   18.3150   25.8840 C.ar  147  TRP147      0.0810
    123  CE3        5.5340   19.6330   25.2080 C.ar  147  TRP147      0.0012
    124  CZ2        7.9730   18.2650   24.5790 C.ar  147  TRP147      0.0191
    125  CZ3        6.0370   19.5840   23.8860 C.ar  147  TRP147      0.0001
    126  CH2        7.2190   18.9130   23.5880 C.ar  147  TRP147      0.0015
    127  N         -5.3210   14.4740   28.2100 N.3   169  THR169     -0.1218
    128  CA        -4.2490   15.2350   27.5840 C.3   169  THR169      0.1862
    129  C         -4.8060   16.1260   26.4770 C.2   169  THR169      0.2287
    130  O         -5.6720   15.7090   25.7010 O.2   169  THR169     -0.2866
    131  CB        -3.1750   14.2780   27.0260 C.3   169  THR169      0.1770
    132  OG1       -2.6180   13.5250   28.1110 O.3   169  THR169     -0.2211
    133  CG2       -2.0560   15.0790   26.2940 C.3   169  THR169      0.0375
    134  N         -3.2470   18.4630   23.4290 N.3   171  VAL171     -0.1245
    135  CA        -2.0840   18.8770   22.6500 C.3   171  VAL171      0.1561
    136  C         -2.4550   20.1130   21.8220 C.2   171  VAL171      0.2260
    137  O         -3.3070   20.0440   20.9260 O.2   171  VAL171     -0.2867
    138  CB        -1.5600   17.7560   21.7470 C.3   171  VAL171      0.0252
    139  CG1       -0.3390   18.2420   20.9430 C.3   171  VAL171      0.0019
    140  CG2       -1.1840   16.5270   22.5980 C.3   171  VAL171      0.0019
@<TRIPOS>BOND
     1    97    96    2
     2    96    95    1
     3    12    13    1
     4    18    17    1
     5    17    16    1
     6    17    19    1
     7    95    98    1
     8    95    94    1
     9    16    13    1
    10    13    14    1
    11    98    99    1
    12    46    44    1
    13    14    15    2
    14    44    43    1
    15    94    85   am
    16    86    85    2
    17    85    84    1
    18    83    84    1
    19    84    87    1
    20    99   101   ar
    21    99   100   ar
    22    20    21    1
    23   101   103   ar
    24    43    45    1
    25    43    40    1
    26   100   102   ar
    27    39    40    1
    28    40    41    1
    29    26    25    2
    30    87    88    1
    31    25    27   am
    32    25    24    1
    33    21    24    1
    34    21    22    1
    35   103   104   ar
    36    88    89   ar
    37    88    90   ar
    38   137   136    2
    39   139   138    1
    40    89    91   ar
    41    28    22   am
    42    28    29    1
    43   102   104   ar
    44    90    92   ar
    45    32    33    1
    46    32    29    1
    47    41    42    2
    48    91    93   ar
    49   104   105    1
    50    22    23    2
    51   138   140    1
    52   138   135    1
    53   136   135    1
    54    92    93   ar
    55    29    30    1
    56    30    31    2
    57   135   134    1
    58    10     8   ar
    59    10    11   ar
    60     8     6   ar
    61    11     9   ar
    62   126   125   ar
    63   126   124   ar
    64     6     5    1
    65     6     7   ar
    66   125   123   ar
    67     9     7   ar
    68     5     2    1
    69    51    48    1
    70    51    52    1
    71    54    52   ar
    72    47    48    1
    73   124   122   ar
    74   112   110    1
    75    48    49    1
    76    34    35    1
    77    52    53   ar
    78   123   120   ar
    79     4     3    2
    80     3     2    1
    81     2     1    1
    82    82    81    2
    83   130   129    2
    84   106   107    1
    85    74    73    2
    86   122   120   ar
    87   122   121   ar
    88   110   107    1
    89   110   111    1
    90   107   108    1
    91    35    38    1
    92    35    36    1
    93   120   118   ar
    94    49    50    2
    95   133   131    1
    96   129   128    1
    97    80    81    1
    98    80    79    1
    99    36    37    2
   100    73    79   am
   101    73    72    1
   102   131   128    1
   103   131   132    1
   104   121   119   ar
   105   116   115    2
   106    78    76    1
   107    75    72    1
   108    75    76    1
   109   108   109    2
   110   128   127    1
   111   118   119   ar
   112   118   117    1
   113   115   114    1
   114    72    71    1
   115    62    61    1
   116    76    77    1
   117    61    60    1
   118   117   114    1
   119   114   113    1
   120    60    59    1
   121    70    68    1
   122    66    65    2
   123    59    56    1
   124    64    65    1
   125    64    67    1
   126    64    63    1
   127    68    67    1
   128    68    69    1
   129    55    56    1
   130    56    57    1
   131    57    58    2
