@<TRIPOS>MOLECULE
tmp/4bqhA00.pdb
 131 123 0 0 0
SMALL
GASTEIGER

@<TRIPOS>ATOM
      1  N        -12.3610   30.9510   11.0170 N.3    48  GLY48      -0.1210
      2  CA       -12.5220   31.9780   10.0020 C.3    48  GLY48       0.1956
      3  C        -11.2510   32.4030    9.2860 C.2    48  GLY48       0.2612
      4  O        -11.3350   33.0140    8.2190 O.2    48  GLY48      -0.2717
      5  N        -10.0750   32.0530    9.8440 N.am   49  VAL49      -0.1965
      6  CA        -8.7880   32.4330    9.2380 C.3    49  VAL49       0.1727
      7  C         -8.6650   31.8520    7.8350 C.2    49  VAL49       0.2616
      8  O         -8.8740   30.6450    7.6160 O.2    49  VAL49      -0.2715
      9  CB        -7.5840   31.9670   10.1010 C.3    49  VAL49       0.0290
     10  CG1       -6.2690   32.0250    9.3100 C.3    49  VAL49       0.0023
     11  CG2       -7.5070   32.7690   11.4060 C.3    49  VAL49       0.0023
     12  N         -8.3140   32.7190    6.8900 N.am   50  ASP50      -0.1971
     13  CA        -8.1470   32.3350    5.4970 C.3    50  ASP50       0.1709
     14  C         -6.6500   32.1180    5.2610 C.2    50  ASP50       0.2293
     15  O         -5.8750   33.0660    5.1890 O.2    50  ASP50      -0.2864
     16  CB        -8.7210   33.4570    4.6120 C.3    50  ASP50       0.1436
     17  CG        -8.6240   33.1750    3.1130 C.2    50  ASP50       0.3671
     18  OD1       -7.7830   32.3980    2.6460 O.co2  50  ASP50      -0.2456
     19  OD2       -9.4080   33.8000    2.3820 O.co2  50  ASP50      -0.2456
     20  N         -5.0030   33.7070    2.1550 N.3    53  HIS53      -0.1226
     21  CA        -4.8930   35.1360    2.3860 C.3    53  HIS53       0.1752
     22  C         -3.7020   35.4330    3.2700 C.2    53  HIS53       0.2596
     23  O         -2.9530   36.3700    3.0250 O.2    53  HIS53      -0.2718
     24  CB        -6.1870   35.6770    3.0060 C.3    53  HIS53       0.0759
     25  CG        -6.0650   37.0910    3.4830 C.ar   53  HIS53       0.0818
     26  ND1       -5.7860   38.1170    2.6440 N.ar   53  HIS53      -0.2268
     27  CD2       -6.1470   37.6310    4.7600 C.ar   53  HIS53       0.1154
     28  CE1       -5.7080   39.2610    3.3560 C.ar   53  HIS53       0.1986
     29  NE2       -5.9520   38.9670    4.6450 N.ar   53  HIS53      -0.2212
     30  N         -3.4940   34.6340    4.3120 N.am   54  PHE54      -0.1976
     31  CA        -2.3510   34.9040    5.1940 C.3    54  PHE54       0.1639
     32  C         -0.9590   34.6950    4.5920 C.2    54  PHE54       0.2290
     33  O          0.0080   35.3220    5.0470 O.2    54  PHE54      -0.2864
     34  CB        -2.5230   34.2220    6.5470 C.3    54  PHE54       0.0560
     35  CG        -3.2230   35.1060    7.5530 C.ar   54  PHE54      -0.0200
     36  CD1       -2.5040   36.1130    8.2220 C.ar   54  PHE54      -0.0042
     37  CD2       -4.5990   34.9910    7.7740 C.ar   54  PHE54      -0.0042
     38  CE1       -3.1370   36.9560    9.1330 C.ar   54  PHE54      -0.0003
     39  CE2       -5.2450   35.8370    8.6930 C.ar   54  PHE54      -0.0003
     40  CZ        -4.5130   36.8310    9.3530 C.ar   54  PHE54      -0.0000
     41  N         -9.7900   35.0950   16.8920 N.3   206  SER206     -0.1217
     42  CA        -8.8730   34.1100   16.3330 C.3   206  SER206      0.1889
     43  C         -7.4280   34.5120   16.5260 C.2   206  SER206      0.2288
     44  O         -7.0740   35.6830   16.4690 O.2   206  SER206     -0.2866
     45  CB        -9.1900   33.8900   14.8620 C.3   206  SER206      0.2089
     46  OG       -10.4820   33.2810   14.7930 O.3   206  SER206     -0.2183
     47  N         -3.3610   34.1210   15.1620 N.3   208  VAL208     -0.1245
     48  CA        -2.7650   34.2670   13.8300 C.3   208  VAL208      0.1561
     49  C         -1.5430   33.3360   13.7700 C.2   208  VAL208      0.2260
     50  O         -0.7400   33.3270   14.7070 O.2   208  VAL208     -0.2867
     51  CB        -2.3180   35.7280   13.6060 C.3   208  VAL208      0.0252
     52  CG1       -1.5640   35.8840   12.2850 C.3   208  VAL208      0.0019
     53  CG2       -3.5470   36.6390   13.5750 C.3   208  VAL208      0.0019
     54  N         -3.4310   38.0550   17.8030 N.3   231  GLY231     -0.1225
     55  CA        -3.2110   38.8580   16.6220 C.3   231  GLY231      0.1811
     56  C         -3.1040   40.3550   16.8650 C.2   231  GLY231      0.2280
     57  O         -2.7850   41.0830   15.9380 O.2   231  GLY231     -0.2866
     58  N         -7.9080   42.0810   15.6580 N.3   235  ALA235     -0.1245
     59  CA        -8.7540   40.8570   15.6570 C.3   235  ALA235      0.1562
     60  C        -10.2610   41.1030   15.8450 C.2   235  ALA235      0.2260
     61  O        -11.0730   40.2010   15.5670 O.2   235  ALA235     -0.2867
     62  CB        -8.2610   39.8460   16.7060 C.3   235  ALA235      0.0290
     63  N        -12.3750   42.8150   14.2160 N.3   237  PHE237     -0.1227
     64  CA       -13.2350   42.8390   13.0250 C.3   237  PHE237      0.1736
     65  C        -13.6720   41.4490   12.5830 C.2   237  PHE237      0.2595
     66  O        -14.8670   41.2050   12.3540 O.2   237  PHE237     -0.2718
     67  CB       -12.5680   43.6220   11.8920 C.3   237  PHE237      0.0547
     68  CG       -12.2390   45.0220   12.2700 C.ar  237  PHE237     -0.0202
     69  CD1      -13.2670   45.9690   12.4690 C.ar  237  PHE237     -0.0042
     70  CD2      -10.9270   45.4130   12.4400 C.ar  237  PHE237     -0.0042
     71  CE1      -12.9680   47.2600   12.8380 C.ar  237  PHE237     -0.0003
     72  CE2      -10.6180   46.7160   12.8010 C.ar  237  PHE237     -0.0003
     73  CZ       -11.6440   47.6400   12.9980 C.ar  237  PHE237     -0.0000
     74  N        -12.7100   40.5360   12.5000 N.am  238  ALA238     -0.1980
     75  CA       -12.9790   39.1290   12.1960 C.3   238  ALA238      0.1597
     76  C        -13.8450   38.4840   13.2700 C.2   238  ALA238      0.2287
     77  O        -14.7770   37.7140   12.9610 O.2   238  ALA238     -0.2864
     78  CB       -11.6570   38.3740   12.0420 C.3   238  ALA238      0.0319
     79  N        -17.3500   39.3370   12.9740 N.3   241  ALA241     -0.1245
     80  CA       -17.8590   38.7990   11.6880 C.3   241  ALA241      0.1562
     81  C        -18.2690   37.3380   11.7110 C.2   241  ALA241      0.2260
     82  O        -18.9960   36.8780   10.8140 O.2   241  ALA241     -0.2867
     83  CB       -16.8240   39.0290   10.5670 C.3   241  ALA241      0.0290
     84  N        -14.3820   45.8060    8.6230 N.3   360  ALA360     -0.1245
     85  CA       -14.2930   44.3340    8.5090 C.3   360  ALA360      0.1562
     86  C        -14.2540   43.8790    7.0520 C.2   360  ALA360      0.2260
     87  O        -13.4020   43.0550    6.6880 O.2   360  ALA360     -0.2867
     88  CB       -15.4080   43.6450    9.2750 C.3   360  ALA360      0.0290
     89  N        -10.9330   44.7220    5.6460 N.3   363  MET363     -0.1230
     90  CA        -9.8170   43.9850    6.2270 C.3   363  MET363      0.1702
     91  C         -9.6050   42.6090    5.5990 C.2   363  MET363      0.2592
     92  O         -8.4880   42.1250    5.5810 O.2   363  MET363     -0.2718
     93  CB        -9.9290   43.8750    7.7420 C.3   363  MET363      0.0401
     94  CG        -8.5710   43.6190    8.4100 C.3   363  MET363      0.0596
     95  SD        -8.8330   43.4500   10.1880 S.3   363  MET363     -0.1393
     96  CE        -7.1230   43.2250   10.6640 C.3   363  MET363      0.0692
     97  N        -10.6670   42.0000    5.0730 N.am  364  LYS364     -0.1980
     98  CA       -10.5410   40.6960    4.4120 C.3   364  LYS364      0.1596
     99  C         -9.5200   40.6830    3.2750 C.2   364  LYS364      0.2287
    100  O         -8.9820   39.6430    2.9860 O.2   364  LYS364     -0.2864
    101  CB       -11.8950   40.1990    3.9110 C.3   364  LYS364      0.0298
    102  CG       -12.8630   39.9280    5.0560 C.3   364  LYS364      0.0038
    103  CD       -14.1050   39.1760    4.6090 C.3   364  LYS364      0.0206
    104  CE       -13.8440   37.6780    4.5500 C.3   364  LYS364      0.1093
    105  NZ       -15.1410   36.9440    4.4840 N.3   364  LYS364     -0.1314
    106  N          0.0630   44.0280    7.5550 N.3   369  TYR369     -0.1241
    107  CA         0.2000   43.7280    8.9840 C.3   369  TYR369      0.1605
    108  C          1.5940   44.1080    9.4580 C.2   369  TYR369      0.2264
    109  O          2.4750   44.4580    8.6490 O.2   369  TYR369     -0.2867
    110  CB        -0.0530   42.2290    9.2460 C.3   369  TYR369      0.0534
    111  CG        -1.5000   41.7680    9.2210 C.ar  369  TYR369     -0.0201
    112  CD1       -2.3350   42.0370    8.1260 C.ar  369  TYR369     -0.0009
    113  CD2       -2.0190   41.0040   10.2670 C.ar  369  TYR369     -0.0009
    114  CE1       -3.6450   41.5660    8.0790 C.ar  369  TYR369      0.0417
    115  CE2       -3.3290   40.5490   10.2380 C.ar  369  TYR369      0.0417
    116  CZ        -4.1350   40.8240    9.1420 C.ar  369  TYR369      0.1957
    117  OH        -5.4240   40.3610    9.0890 O.3   369  TYR369     -0.2866
    118  N          0.8460   40.9890   13.3430 N.3   389  GLU389     -0.1231
    119  CA        -0.1830   41.6320   14.1710 C.3   389  GLU389      0.1699
    120  C         -0.9050   42.7070   13.3790 C.2   389  GLU389      0.2592
    121  O         -0.3300   43.3150   12.4830 O.2   389  GLU389     -0.2718
    122  CB         0.4430   42.2490   15.4470 C.3   389  GLU389      0.0402
    123  CG         0.9590   41.1930   16.4360 C.3   389  GLU389      0.1161
    124  CD         1.6320   41.7790   17.6830 C.2   389  GLU389      0.3649
    125  OE1        1.9920   42.9740   17.6990 O.co2 389  GLU389     -0.2457
    126  OE2        1.8360   41.0240   18.6610 O.co2 389  GLU389     -0.2457
    127  N         -2.1710   42.9410   13.7160 N.am  390  ALA390     -0.1980
    128  CA        -2.8410   44.1300   13.2100 C.3   390  ALA390      0.1597
    129  C         -3.6410   44.7770   14.3280 C.2   390  ALA390      0.2287
    130  O         -4.0770   44.1040   15.2660 O.2   390  ALA390     -0.2864
    131  CB        -3.7400   43.8060   12.0100 C.3   390  ALA390      0.0319
@<TRIPOS>BOND
     1    20    21    1
     2    19    17   ar
     3    21    24    1
     4    21    22    1
     5    26    28   ar
     6    26    25   ar
     7    18    17   ar
     8   100    99    2
     9    24    25    1
    10    23    22    2
    11    17    16    1
    12    22    30   am
    13    99    98    1
    14    28    29   ar
    15    25    27   ar
    16   101    98    1
    17   101   102    1
    18    30    31    1
    19    98    97    1
    20   105   104    1
    21   104   103    1
    22    32    33    2
    23    32    31    1
    24   103   102    1
    25    16    13    1
    26    29    27   ar
    27    97    91   am
    28    15    14    2
    29    31    34    1
    30    14    13    1
    31    13    12    1
    32    92    91    2
    33    91    90    1
    34    89    90    1
    35    90    93    1
    36    34    35    1
    37    87    86    2
    38    12     7   am
    39    86    85    1
    40    35    37   ar
    41    35    36   ar
    42   106   107    1
    43     8     7    2
    44    93    94    1
    45    37    39   ar
    46     7     6    1
    47   114   112   ar
    48   114   116   ar
    49   112   111   ar
    50     4     3    2
    51    36    38   ar
    52    94    95    1
    53    85    84    1
    54    85    88    1
    55   109   108    2
    56    39    40   ar
    57   107   110    1
    58   107   108    1
    59   117   116    1
    60    38    40   ar
    61   116   115   ar
    62   111   110    1
    63   111   113   ar
    64     6     5    1
    65     6     9    1
    66     3     5   am
    67     3     2    1
    68    10     9    1
    69     2     1    1
    70     9    11    1
    71    95    96    1
    72   115   113   ar
    73    83    80    1
    74    82    81    2
    75    80    81    1
    76    80    79    1
    77    67    68    1
    78    67    64    1
    79   131   128    1
    80    78    75    1
    81    75    74    1
    82    75    76    1
    83    68    70   ar
    84    68    69   ar
    85    52    51    1
    86    66    65    2
    87    70    72   ar
    88    69    71   ar
    89   121   120    2
    90    74    65   am
    91    65    64    1
    92    72    73   ar
    93    71    73   ar
    94    77    76    2
    95    64    63    1
    96   128   127    1
    97   128   129    1
    98   118   119    1
    99   120   127   am
   100   120   119    1
   101    53    51    1
   102    51    48    1
   103    49    48    1
   104    49    50    2
   105    48    47    1
   106   119   122    1
   107   129   130    2
   108    46    45    1
   109    45    42    1
   110   122   123    1
   111    61    60    2
   112    59    58    1
   113    59    60    1
   114    59    62    1
   115    57    56    2
   116    42    43    1
   117    42    41    1
   118   123   124    1
   119    44    43    2
   120    55    56    1
   121    55    54    1
   122   124   125   ar
   123   124   126   ar
