@<TRIPOS>MOLECULE
tmp/4bqiA01.pdb
 136 131 0 0 0
SMALL
GASTEIGER

@<TRIPOS>ATOM
      1  N         74.3300   -4.3110   15.6150 N.3   200  ASP200     -0.1225
      2  CA        74.1220   -5.2530   14.5070 C.3   200  ASP200      0.1805
      3  C         72.7280   -5.1590   13.8500 C.2   200  ASP200      0.2598
      4  O         72.3930   -6.0090   13.0300 O.2   200  ASP200     -0.2718
      5  CB        74.4170   -6.7040   14.9490 C.3   200  ASP200      0.1424
      6  CG        73.3580   -7.2830   15.9020 C.2   200  ASP200      0.3668
      7  OD1       72.4500   -6.5670   16.3650 O.co2 200  ASP200     -0.2456
      8  OD2       73.4610   -8.4870   16.2040 O.co2 200  ASP200     -0.2456
      9  N         71.9290   -4.1530   14.2150 N.am  201  GLY201     -0.1942
     10  CA        70.5770   -3.9650   13.6490 C.3   201  GLY201      0.2014
     11  C         69.4820   -4.7460   14.3480 C.2   201  GLY201      0.2640
     12  O         68.2850   -4.4950   14.1410 O.2   201  GLY201     -0.2714
     13  N         69.8620   -5.7340   15.1520 N.am  202  SER202     -0.1935
     14  CA        68.8710   -6.4610   15.9020 C.3   202  SER202      0.2055
     15  C         68.2430   -5.4970   16.9170 C.2   202  SER202      0.2642
     16  O         68.8240   -4.4450   17.2540 O.2   202  SER202     -0.2714
     17  CB        69.4420   -7.7350   16.5590 C.3   202  SER202      0.2130
     18  OG        70.4700   -7.4320   17.4840 O.3   202  SER202     -0.2179
     19  N         67.0360   -5.8550   17.3410 N.am  203  ARG203     -0.1977
     20  CA        66.2570   -5.0660   18.2730 C.3   203  ARG203      0.1597
     21  C         65.8740   -5.9910   19.4300 C.2   203  ARG203      0.2287
     22  O         65.7520   -7.1970   19.2660 O.2   203  ARG203     -0.2864
     23  CB        65.0020   -4.4800   17.5920 C.3   203  ARG203      0.0334
     24  CG        65.3110   -3.7840   16.2680 C.3   203  ARG203      0.0492
     25  CD        64.0410   -3.2610   15.6070 C.3   203  ARG203      0.2205
     26  NE        63.6010   -1.9750   16.1270 N.pl3 203  ARG203     -0.0865
     27  CZ        64.0910   -0.7800   15.7820 C.cat 203  ARG203      0.5346
     28  NH1       65.0940   -0.6380   14.8880 N.pl3 203  ARG203      0.1354
     29  NH2       63.5300    0.3030   16.3160 N.pl3 203  ARG203      0.1354
     30  N         62.2620  -13.1130   15.2260 N.3   339  MET339     -0.1230
     31  CA        63.3320  -12.1910   14.8460 C.3   339  MET339      0.1702
     32  C         64.2640  -11.8370   16.0030 C.2   339  MET339      0.2592
     33  O         65.4580  -11.8290   15.8110 O.2   339  MET339     -0.2718
     34  CB        62.7700  -10.9020   14.2350 C.3   339  MET339      0.0401
     35  CG        61.8910  -11.1250   13.0040 C.3   339  MET339      0.0596
     36  SD        61.4430   -9.5480   12.2690 S.3   339  MET339     -0.1393
     37  CE        60.1630   -9.0480   13.4510 C.3   339  MET339      0.0692
     38  N         63.7180  -11.5040   17.1860 N.am  340  ASP340     -0.1974
     39  CA        64.5670  -10.9820   18.2840 C.3   340  ASP340      0.1709
     40  C         65.2210  -12.1550   19.0490 C.2   340  ASP340      0.2293
     41  O         66.4340  -12.2970   19.0530 O.2   340  ASP340     -0.2864
     42  CB        63.7820  -10.0500   19.2370 C.3   340  ASP340      0.1436
     43  CG        63.2010   -8.7940   18.5420 C.2   340  ASP340      0.3671
     44  OD1       63.5200   -8.5100   17.3640 O.co2 340  ASP340     -0.2456
     45  OD2       62.3810   -8.0790   19.1850 O.co2 340  ASP340     -0.2456
     46  N         65.8670  -14.6880   13.2840 N.3   344  LEU344     -0.1231
     47  CA        65.3400  -14.6580   11.9160 C.3   344  LEU344      0.1693
     48  C         65.2300  -13.2230   11.3730 C.2   344  LEU344      0.2593
     49  O         65.0110  -12.2650   12.1160 O.2   344  LEU344     -0.2718
     50  CB        63.9700  -15.3680   11.8290 C.3   344  LEU344      0.0284
     51  CG        63.9580  -16.9050   11.7400 C.3   344  LEU344      0.0019
     52  CD1       64.3850  -17.6010   13.0330 C.3   344  LEU344      0.0001
     53  CD2       62.6160  -17.4310   11.2240 C.3   344  LEU344      0.0001
     54  N         65.3930  -13.0830   10.0590 N.am  345  GLY345     -0.1942
     55  CA        65.1090  -11.8380    9.3650 C.3   345  GLY345      0.2014
     56  C         63.6180  -11.6460    9.1320 C.2   345  GLY345      0.2639
     57  O         62.8420  -12.5990    9.2170 O.2   345  GLY345     -0.2714
     58  N         63.2100  -10.4180    8.8020 N.am  346  TRP346     -0.1959
     59  CA        61.7800  -10.1130    8.6240 C.3   346  TRP346      0.1771
     60  C         61.1090  -11.0200    7.6330 C.2   346  TRP346      0.2619
     61  O         60.0260  -11.5560    7.9020 O.2   346  TRP346     -0.2715
     62  CB        61.5750   -8.6560    8.1660 C.3   346  TRP346      0.0590
     63  CG        60.1030   -8.3470    8.0000 C.ar  346  TRP346      0.0006
     64  CD1       59.3010   -8.6340    6.9270 C.ar  346  TRP346      0.0946
     65  CD2       59.1980   -7.7970    9.0270 C.ar  346  TRP346      0.0152
     66  NE1       57.9900   -8.2930    7.1710 N.ar  346  TRP346     -0.2442
     67  CE2       57.8730   -7.7520    8.4150 C.ar  346  TRP346      0.0810
     68  CE3       59.3710   -7.2940   10.3090 C.ar  346  TRP346      0.0012
     69  CZ2       56.7720   -7.2600    9.0840 C.ar  346  TRP346      0.0191
     70  CZ3       58.2360   -6.8110   10.9930 C.ar  346  TRP346      0.0001
     71  CH2       56.9740   -6.7790   10.3760 C.ar  346  TRP346      0.0015
     72  N         61.7300  -11.2330    6.4650 N.am  347  ASP347     -0.1971
     73  CA        61.0340  -11.9750    5.4390 C.3   347  ASP347      0.1709
     74  C         60.7990  -13.4380    5.8450 C.2   347  ASP347      0.2293
     75  O         59.6970  -13.9440    5.6460 O.2   347  ASP347     -0.2864
     76  CB        61.7560  -11.8930    4.0820 C.3   347  ASP347      0.1436
     77  CG        61.6930  -10.4950    3.4550 C.2   347  ASP347      0.3671
     78  OD1       60.7000   -9.7850    3.6130 O.co2 347  ASP347     -0.2456
     79  OD2       62.6350  -10.1140    2.7660 O.co2 347  ASP347     -0.2456
     80  N         57.4550   -2.7000   21.1540 N.3   383  ARG383     -0.1245
     81  CA        58.0830   -3.5400   20.1400 C.3   383  ARG383      0.1563
     82  C         57.0160   -4.0820   19.1760 C.2   383  ARG383      0.2260
     83  O         57.2700   -4.2060   17.9900 O.2   383  ARG383     -0.2867
     84  CB        58.8630   -4.6740   20.7900 C.3   383  ARG383      0.0307
     85  CG        59.6420   -5.5880   19.8140 C.3   383  ARG383      0.0489
     86  CD        60.7550   -4.8710   19.0870 C.3   383  ARG383      0.2205
     87  NE        61.3390   -5.8020   18.0950 N.pl3 383  ARG383     -0.0865
     88  CZ        61.3830   -5.5970   16.7820 C.cat 383  ARG383      0.5346
     89  NH1       60.8780   -4.5000   16.2160 N.pl3 383  ARG383      0.1354
     90  NH2       61.9120   -6.5210   16.0140 N.pl3 383  ARG383      0.1354
     91  N         56.0370   -1.3810   16.7520 N.3   386  GLU386     -0.1231
     92  CA        57.0720   -1.3760   15.7180 C.3   386  GLU386      0.1699
     93  C         56.7770   -2.4100   14.6190 C.2   386  GLU386      0.2592
     94  O         56.8530   -2.0960   13.4220 O.2   386  GLU386     -0.2718
     95  CB        58.4680   -1.6460   16.2870 C.3   386  GLU386      0.0402
     96  CG        58.9990   -0.5450   17.1970 C.3   386  GLU386      0.1161
     97  CD        60.4950   -0.6710   17.4040 C.2   386  GLU386      0.3649
     98  OE1       61.0200   -1.7940   17.2080 O.co2 386  GLU386     -0.2457
     99  OE2       61.1790    0.3620   17.6890 O.co2 386  GLU386     -0.2457
    100  N         56.4370   -3.6210   15.0270 N.am  387  ILE387     -0.1980
    101  CA        56.2100   -4.7090   14.1130 C.3   387  ILE387      0.1595
    102  C         54.8950   -4.5070   13.3440 C.2   387  ILE387      0.2287
    103  O         54.8700   -4.6680   12.1310 O.2   387  ILE387     -0.2864
    104  CB        56.2360   -6.0550   14.8500 C.3   387  ILE387      0.0276
    105  CG1       57.6720   -6.3320   15.3330 C.3   387  ILE387      0.0022
    106  CG2       55.7440   -7.1520   13.9350 C.3   387  ILE387      0.0022
    107  CD1       57.8370   -7.3950   16.4140 C.3   387  ILE387      0.0001
    108  N         55.2950   -1.9460   10.6340 N.3   390  GLU390     -0.1245
    109  CA        56.0350   -2.5160    9.5230 C.3   390  GLU390      0.1567
    110  C         55.1320   -3.4430    8.6590 C.2   390  GLU390      0.2260
    111  O         55.2270   -3.4420    7.4140 O.2   390  GLU390     -0.2867
    112  CB        57.2780   -3.2490   10.0450 C.3   390  GLU390      0.0388
    113  CG        58.2080   -3.8130    8.9510 C.3   390  GLU390      0.1160
    114  CD        58.9740   -2.7640    8.1590 C.2   390  GLU390      0.3649
    115  OE1       58.9380   -1.5460    8.4930 O.co2 390  GLU390     -0.2457
    116  OE2       59.6390   -3.1720    7.1690 O.co2 390  GLU390     -0.2457
    117  N         53.0060   -0.9810    6.7630 N.3   393  LYS393     -0.1231
    118  CA        53.8190   -0.3280    5.7210 C.3   393  LYS393      0.1693
    119  C         53.9460   -1.1990    4.4520 C.2   393  LYS393      0.2591
    120  O         53.6980   -0.7380    3.3260 O.2   393  LYS393     -0.2718
    121  CB        55.2110   -0.0200    6.2740 C.3   393  LYS393      0.0285
    122  CG        56.1940    0.5260    5.2410 C.3   393  LYS393      0.0035
    123  CD        57.5440    0.8240    5.8950 C.3   393  LYS393      0.0206
    124  CE        58.3900    1.7730    5.0660 C.3   393  LYS393      0.1093
    125  NZ        59.7890    1.8360    5.5600 N.3   393  LYS393     -0.1314
    126  N         54.3150   -2.4550    4.6680 N.am  394  ARG394     -0.1980
    127  CA        54.4630   -3.4350    3.6150 C.3   394  ARG394      0.1597
    128  C         53.1570   -3.7760    2.9150 C.2   394  ARG394      0.2287
    129  O         53.0770   -3.8450    1.6810 O.2   394  ARG394     -0.2864
    130  CB        55.1270   -4.6940    4.1780 C.3   394  ARG394      0.0334
    131  CG        56.6110   -4.4380    4.4630 C.3   394  ARG394      0.0492
    132  CD        57.2430   -5.5130    5.2960 C.3   394  ARG394      0.2205
    133  NE        58.6910   -5.3270    5.4880 N.pl3 394  ARG394     -0.0865
    134  CZ        59.6400   -5.9620    4.7920 C.cat 394  ARG394      0.5346
    135  NH1       59.3230   -6.8130    3.8150 N.pl3 394  ARG394      0.1354
    136  NH2       60.9050   -5.7640    5.1040 N.pl3 394  ARG394      0.1354
@<TRIPOS>BOND
     1   129   128    2
     2    79    77   ar
     3   128   127    1
     4   120   119    2
     5    77    78   ar
     6    77    76    1
     7   127   130    1
     8   127   126    1
     9   135   134    1
    10    76    73    1
    11   130   131    1
    12   119   126   am
    13   119   118    1
    14   131   132    1
    15   134   136    1
    16   134   133    2
    17   124   125    1
    18   124   123    1
    19   122   123    1
    20   122   121    1
    21   132   133    1
    22    73    74    1
    23    73    72    1
    24    75    74    2
    25   118   121    1
    26   118   117    1
    27    72    60   am
    28    64    66   ar
    29    64    63   ar
    30   116   114   ar
    31    66    67   ar
    32   111   110    2
    33    60    61    2
    34    60    59    1
    35    63    62    1
    36    63    65   ar
    37   114   115   ar
    38   114   113    1
    39    62    59    1
    40    67    65   ar
    41    67    69   ar
    42    59    58    1
    43   110   109    1
    44    58    56   am
    45   113   112    1
    46    65    68   ar
    47    69    71   ar
    48    56    57    2
    49    56    55    1
    50    55    54    1
    51   109   112    1
    52   109   108    1
    53    54    48   am
    54    68    70   ar
    55    71    70   ar
    56    53    51    1
    57    48    47    1
    58    48    49    2
    59    51    50    1
    60    51    52    1
    61    50    47    1
    62    47    46    1
    63   103   102    2
    64    36    35    1
    65    36    37    1
    66    35    34    1
    67     4     3    2
    68   102   101    1
    69    94    93    2
    70    10     9    1
    71    10    11    1
    72     3     9   am
    73     3     2    1
    74   106   104    1
    75   101   104    1
    76   101   100    1
    77    12    11    2
    78    34    31    1
    79    11    13   am
    80     2     5    1
    81     2     1    1
    82    93   100   am
    83    93    92    1
    84    31    30    1
    85    31    32    1
    86   104   105    1
    87    28    27    1
    88     5     6    1
    89    13    14    1
    90   105   107    1
    91    25    26    1
    92    25    24    1
    93    92    95    1
    94    92    91    1
    95    27    26    2
    96    27    29    1
    97    33    32    2
    98    14    17    1
    99    14    15    1
   100     6     8   ar
   101     6     7   ar
   102    32    38   am
   103    90    88    1
   104    89    88    1
   105    24    23    1
   106    95    96    1
   107    17    18    1
   108    88    87    2
   109    15    16    2
   110    15    19   am
   111    38    39    1
   112    96    97    1
   113    98    97   ar
   114    19    20    1
   115    44    43   ar
   116    97    99   ar
   117    23    20    1
   118    83    82    2
   119    87    86    1
   120    20    21    1
   121    39    40    1
   122    39    42    1
   123    43    45   ar
   124    43    42    1
   125    40    41    2
   126    86    85    1
   127    82    81    1
   128    22    21    2
   129    85    84    1
   130    81    84    1
   131    81    80    1
