@<TRIPOS>MOLECULE
tmp/4bqjA00.pdb
 165 155 0 0 0
SMALL
GASTEIGER

@<TRIPOS>ATOM
      1  N         12.9200    1.5890    6.1250 N.3    37  LEU37      -0.1245
      2  CA        12.5180    2.0870    7.4490 C.3    37  LEU37       0.1561
      3  C         12.3580    3.6100    7.4490 C.2    37  LEU37       0.2260
      4  O         11.4560    4.1370    8.1040 O.2    37  LEU37      -0.2867
      5  CB        13.4850    1.6360    8.5450 C.3    37  LEU37       0.0270
      6  CG        13.5470    0.1320    8.8330 C.3    37  LEU37       0.0019
      7  CD1       14.7720   -0.1570    9.6730 C.3    37  LEU37       0.0001
      8  CD2       12.2690   -0.3980    9.5010 C.3    37  LEU37       0.0001
      9  N          9.0830    4.2950    5.7040 N.3    40  ASN40      -0.1225
     10  CA         7.9810    4.0200    6.6500 C.3    40  ASN40       0.1785
     11  C          7.7730    5.2080    7.5750 C.2    40  ASN40       0.2597
     12  O          6.6330    5.5900    7.8760 O.2    40  ASN40      -0.2718
     13  CB         8.2450    2.7530    7.4790 C.3    40  ASN40       0.1169
     14  CG         8.0740    1.4710    6.6920 C.2    40  ASN40       0.2627
     15  OD1        7.5040    1.4590    5.6010 O.2    40  ASN40      -0.2716
     16  ND2        8.5550    0.3640    7.2590 N.am   40  ASN40      -0.0877
     17  N          8.8830    5.7850    8.0370 N.am   41  SER41      -0.1952
     18  CA         8.8620    6.9760    8.8820 C.3    41  SER41       0.1924
     19  C          8.2390    8.1530    8.1370 C.2    41  SER41       0.2314
     20  O          7.3920    8.8620    8.6780 O.2    41  SER41      -0.2863
     21  CB        10.2820    7.3280    9.3560 C.3    41  SER41       0.2116
     22  OG        10.7130    6.4220   10.3660 O.3    41  SER41      -0.2180
     23  N          6.0750    8.0770    5.5400 N.3    43  ASP43      -0.1225
     24  CA         4.6320    7.7750    5.4370 C.3    43  ASP43       0.1805
     25  C          3.8560    8.1130    6.7190 C.2    43  ASP43       0.2597
     26  O          2.7420    8.6470    6.6500 O.2    43  ASP43      -0.2718
     27  CB         4.4060    6.2920    5.1050 C.3    43  ASP43       0.1424
     28  CG         4.8100    5.9250    3.6810 C.2    43  ASP43       0.3668
     29  OD1        5.0640    6.8100    2.8470 O.co2  43  ASP43      -0.2456
     30  OD2        4.8730    4.7170    3.3780 O.co2  43  ASP43      -0.2456
     31  N          4.4320    7.7880    7.8760 N.am   44  ALA44      -0.1979
     32  CA         3.8110    8.0830    9.1780 C.3    44  ALA44       0.1597
     33  C          3.7840    9.5720    9.4910 C.2    44  ALA44       0.2287
     34  O          2.8170   10.0640   10.0940 O.2    44  ALA44      -0.2864
     35  CB         4.5100    7.3280   10.3020 C.3    44  ALA44       0.0319
     36  N          1.0280   11.3410    7.5650 N.3    47  LYS47      -0.1245
     37  CA        -0.2850   11.2130    8.2080 C.3    47  LYS47       0.1561
     38  C         -0.5350   12.3210    9.2370 C.2    47  LYS47       0.2260
     39  O         -1.6010   12.9370    9.2250 O.2    47  LYS47      -0.2867
     40  CB        -0.4750    9.8320    8.8320 C.3    47  LYS47       0.0271
     41  CG        -0.4830    8.7100    7.8020 C.3    47  LYS47       0.0035
     42  CD        -0.8560    7.3630    8.4010 C.3    47  LYS47       0.0206
     43  CE        -1.1150    6.3780    7.2720 C.3    47  LYS47       0.1093
     44  NZ        -1.6560    5.0720    7.7340 N.3    47  LYS47      -0.1314
     45  N         11.1540    8.5280   14.6890 N.3    82  ASP82      -0.1239
     46  CA        10.3570    9.5280   14.0000 C.3    82  ASP82       0.1674
     47  C          9.2750   10.1030   14.9120 C.2    82  ASP82       0.2266
     48  O          8.9570    9.5220   15.9620 O.2    82  ASP82      -0.2867
     49  CB         9.8200    8.9920   12.6470 C.3    82  ASP82       0.1410
     50  CG         8.7190    7.9510   12.7910 C.2    82  ASP82       0.3668
     51  OD1        7.6500    8.2690   13.3510 O.co2  82  ASP82      -0.2456
     52  OD2        8.8980    6.8210   12.2720 O.co2  82  ASP82      -0.2456
     53  N          2.6850    9.7500   13.1210 N.3    85  ILE85      -0.1231
     54  CA         1.3770    9.6090   13.7730 C.3    85  ILE85       0.1692
     55  C          1.3780    8.5820   14.9160 C.2    85  ILE85       0.2593
     56  O          0.5730    8.6810   15.8480 O.2    85  ILE85      -0.2718
     57  CB         0.2440    9.3240   12.7410 C.3    85  ILE85       0.0266
     58  CG1       -1.1390    9.4640   13.3840 C.3    85  ILE85       0.0019
     59  CG2        0.3700    7.9350   12.1350 C.3    85  ILE85       0.0020
     60  CD1       -1.6680   10.8690   13.3470 C.3    85  ILE85       0.0001
     61  N          2.2860    7.6100   14.8490 N.am   86  GLY86      -0.1942
     62  CA         2.3650    6.5580   15.8560 C.3    86  GLY86       0.2014
     63  C          1.2990    5.4790   15.6730 C.2    86  GLY86       0.2638
     64  O          0.3690    5.6200   14.8680 O.2    86  GLY86      -0.2714
     65  N          1.4300    4.4030   16.4400 N.am   87  MET87      -0.1976
     66  CA         0.4840    3.3030   16.3770 C.3    87  MET87       0.1605
     67  C         -0.1270    3.0200   17.7390 C.2    87  MET87       0.2287
     68  O          0.5800    3.0110   18.7490 O.2    87  MET87      -0.2864
     69  CB         1.1800    2.0480   15.8650 C.3    87  MET87       0.0413
     70  CG         1.6130    2.1390   14.4120 C.3    87  MET87       0.0598
     71  SD         2.4240    0.6170   13.9290 S.3    87  MET87      -0.1393
     72  CE         4.1280    0.9850   14.3070 C.3    87  MET87       0.0692
     73  N         -3.3160   -1.0480   16.3990 N.3    91  ASP91      -0.1239
     74  CA        -2.5250   -0.8540   15.1740 C.3    91  ASP91       0.1674
     75  C         -1.3330   -1.7910   15.1390 C.2    91  ASP91       0.2266
     76  O         -1.0830   -2.4250   14.1160 O.2    91  ASP91      -0.2867
     77  CB        -2.0280    0.5860   15.0370 C.3    91  ASP91       0.1410
     78  CG        -3.1270    1.5590   14.7130 C.2    91  ASP91       0.3668
     79  OD1       -4.1380    1.1530   14.1170 O.co2  91  ASP91      -0.2456
     80  OD2       -2.9800    2.7490   15.0550 O.co2  91  ASP91      -0.2456
     81  N         -1.3010   -4.4670   12.2770 N.3    95  ASN95      -0.1225
     82  CA        -0.4130   -4.0330   11.1940 C.3    95  ASN95       0.1785
     83  C          0.9820   -4.6240   11.2770 C.2    95  ASN95       0.2597
     84  O          1.7050   -4.6170   10.2880 O.2    95  ASN95      -0.2718
     85  CB        -0.3090   -2.4980   11.1270 C.3    95  ASN95       0.1169
     86  CG        -1.6520   -1.8160   10.8940 C.2    95  ASN95       0.2627
     87  OD1       -2.6910   -2.4670   10.7450 O.2    95  ASN95      -0.2716
     88  ND2       -1.6380   -0.4860   10.8790 N.am   95  ASN95      -0.0877
     89  N          1.3780   -5.1130   12.4520 N.am   96  LEU96      -0.1980
     90  CA         2.7080   -5.7140   12.5940 C.3    96  LEU96       0.1596
     91  C          2.6920   -7.1850   13.0000 C.2    96  LEU96       0.2287
     92  O          3.4670   -7.6010   13.8710 O.2    96  LEU96      -0.2864
     93  CB         3.6180   -4.9000   13.5370 C.3    96  LEU96       0.0297
     94  CG         4.3400   -3.6880   12.9350 C.3    96  LEU96       0.0022
     95  CD1        5.1570   -2.9720   14.0070 C.3    96  LEU96       0.0001
     96  CD2        5.2420   -4.0930   11.7780 C.3    96  LEU96       0.0001
     97  N          4.1490   -3.3130    0.4740 N.3   124  GLY124     -0.1210
     98  CA         3.5790   -3.0080    1.7780 C.3   124  GLY124      0.1956
     99  C          4.1230   -3.8550    2.9210 C.2   124  GLY124      0.2612
    100  O          3.4600   -3.9890    3.9410 O.2   124  GLY124     -0.2717
    101  N          5.3060   -4.4510    2.7270 N.am  125  VAL125     -0.1965
    102  CA         5.9510   -5.3210    3.7320 C.3   125  VAL125      0.1727
    103  C          7.3960   -4.8820    3.9920 C.2   125  VAL125      0.2617
    104  O          8.2320   -5.6650    4.4620 O.2   125  VAL125     -0.2715
    105  CB         5.9080   -6.8330    3.3470 C.3   125  VAL125      0.0290
    106  CG1        4.6160   -7.4890    3.8340 C.3   125  VAL125      0.0023
    107  CG2        6.0720   -7.0490    1.8440 C.3   125  VAL125      0.0023
    108  N          7.6760   -3.6150    3.6930 N.am  126  GLY126     -0.1940
    109  CA         9.0040   -3.0390    3.8830 C.3   126  GLY126      0.2014
    110  C          9.5750   -3.1700    5.2870 C.2   126  GLY126      0.2639
    111  O         10.7860   -3.2990    5.4400 O.2   126  GLY126     -0.2714
    112  N          8.7180   -3.1560    6.3090 N.am  127  PHE127     -0.1959
    113  CA         9.1990   -3.2810    7.6930 C.3   127  PHE127      0.1771
    114  C         10.0310   -4.5470    7.9250 C.2   127  PHE127      0.2619
    115  O         11.0290   -4.5230    8.6410 O.2   127  PHE127     -0.2715
    116  CB         8.0450   -3.2180    8.7150 C.3   127  PHE127      0.0574
    117  CG         8.4730   -3.5970   10.1130 C.ar  127  PHE127     -0.0200
    118  CD1        9.0450   -2.6490   10.9680 C.ar  127  PHE127     -0.0042
    119  CD2        8.3630   -4.9130   10.5540 C.ar  127  PHE127     -0.0042
    120  CE1        9.4680   -3.0100   12.2480 C.ar  127  PHE127     -0.0003
    121  CE2        8.7830   -5.2840   11.8310 C.ar  127  PHE127     -0.0003
    122  CZ         9.3360   -4.3250   12.6800 C.ar  127  PHE127     -0.0000
    123  N          9.6190   -5.6490    7.3040 N.am  128  TYR128     -0.1974
    124  CA        10.2380   -6.9490    7.5430 C.3   128  TYR128      0.1639
    125  C         11.6410   -7.0690    6.9580 C.2   128  TYR128      0.2290
    126  O         12.3760   -7.9800    7.3280 O.2   128  TYR128     -0.2864
    127  CB         9.3250   -8.0750    7.0460 C.3   128  TYR128      0.0560
    128  CG         8.0440   -8.0940    7.8350 C.ar  128  TYR128     -0.0198
    129  CD1        8.0100   -8.6550    9.1070 C.ar  128  TYR128     -0.0009
    130  CD2        6.8800   -7.5070    7.3360 C.ar  128  TYR128     -0.0009
    131  CE1        6.8510   -8.6440    9.8580 C.ar  128  TYR128      0.0417
    132  CE2        5.7100   -7.5010    8.0750 C.ar  128  TYR128      0.0417
    133  CZ         5.7090   -8.0750    9.3380 C.ar  128  TYR128      0.1957
    134  OH         4.5610   -8.0820   10.0990 O.3   128  TYR128     -0.2866
    135  N         10.1300   -2.1990   18.5220 N.3   139  VAL139     -0.1245
    136  CA         9.4210   -1.0210   18.0410 C.3   139  VAL139      0.1561
    137  C          8.7190   -0.4080   19.2410 C.2   139  VAL139      0.2260
    138  O          7.8360   -1.0370   19.8220 O.2   139  VAL139     -0.2867
    139  CB         8.3690   -1.3850   16.9570 C.3   139  VAL139      0.0252
    140  CG1        7.5810   -0.1470   16.5130 C.3   139  VAL139      0.0019
    141  CG2        9.0250   -2.0750   15.7620 C.3   139  VAL139      0.0019
    142  N          0.7700    6.8040   20.0010 N.3   143  HIS143     -0.1241
    143  CA        -0.2600    7.4850   19.2230 C.3   143  HIS143      0.1621
    144  C         -1.0850    8.3320   20.1610 C.2   143  HIS143      0.2264
    145  O         -1.2700    7.9780   21.3360 O.2   143  HIS143     -0.2867
    146  CB        -1.1260    6.4210   18.5500 C.3   143  HIS143      0.0745
    147  CG        -2.1760    6.9670   17.6180 C.ar  143  HIS143      0.0817
    148  ND1       -3.3420    7.4670   18.0620 N.ar  143  HIS143     -0.2268
    149  CD2       -2.2140    7.0460   16.2270 C.ar  143  HIS143      0.1154
    150  CE1       -4.0820    7.8720   17.0110 C.ar  143  HIS143      0.1986
    151  NE2       -3.3870    7.6110   15.8860 N.ar  143  HIS143     -0.2212
    152  N          7.2940    6.8350   16.5220 N.3   173  THR173     -0.1218
    153  CA         7.7640    5.4530   16.5050 C.3   173  THR173      0.1862
    154  C          9.3030    5.3830   16.4960 C.2   173  THR173      0.2287
    155  O          9.9830    6.0990   15.7480 O.2   173  THR173     -0.2866
    156  CB         7.1370    4.6670   15.3120 C.3   173  THR173      0.1770
    157  OG1        5.7050    4.7060   15.4000 O.3   173  THR173     -0.2211
    158  CG2        7.5810    3.2130   15.2900 C.3   173  THR173      0.0375
    159  N         12.3350    2.5550   16.0490 N.3   175  VAL175     -0.1245
    160  CA        12.6320    1.1900   15.6300 C.3   175  VAL175      0.1561
    161  C         14.0790    0.8790   16.0020 C.2   175  VAL175      0.2260
    162  O         15.0000    1.4950   15.4660 O.2   175  VAL175     -0.2867
    163  CB        12.3600    0.9760   14.1150 C.3   175  VAL175      0.0252
    164  CG1       12.7490   -0.4290   13.6800 C.3   175  VAL175      0.0019
    165  CG2       10.8910    1.2370   13.7990 C.3   175  VAL175      0.0019
@<TRIPOS>BOND
     1    97    98    1
     2    98    99    1
     3   107   105    1
     4   101    99   am
     5   101   102    1
     6    29    28   ar
     7    99   100    2
     8   105   102    1
     9   105   106    1
    10    30    28   ar
    11    28    27    1
    12   108   109    1
    13   108   103   am
    14   102   103    1
    15   109   110    1
    16   103   104    2
    17    27    24    1
    18   110   111    2
    19   110   112   am
    20    24    23    1
    21    24    25    1
    22    15    14    2
    23     9    10    1
    24     1     2    1
    25   112   113    1
    26    26    25    2
    27    10    13    1
    28    10    11    1
    29    14    16   am
    30    14    13    1
    31    25    31   am
    32   125   126    2
    33   125   124    1
    34   127   124    1
    35   127   128    1
    36    43    44    1
    37    43    42    1
    38   123   124    1
    39   123   114   am
    40   130   128   ar
    41   130   132   ar
    42     2     3    1
    43     2     5    1
    44     3     4    2
    45    36    37    1
    46    11    12    2
    47    11    17   am
    48   113   114    1
    49   113   116    1
    50    41    42    1
    51    41    40    1
    52   128   129   ar
    53    31    32    1
    54   114   115    2
    55    17    18    1
    56   132   133   ar
    57    19    20    2
    58    19    18    1
    59    37    40    1
    60    37    38    1
    61     5     6    1
    62   116   117    1
    63     6     8    1
    64     6     7    1
    65    18    21    1
    66   129   131   ar
    67    32    33    1
    68    32    35    1
    69    39    38    2
    70   133   131   ar
    71   133   134    1
    72    21    22    1
    73    33    34    2
    74   117   119   ar
    75   117   118   ar
    76    84    83    2
    77   119   121   ar
    78    87    86    2
    79    88    86   am
    80    86    85    1
    81   118   120   ar
    82    85    82    1
    83    82    83    1
    84    82    81    1
    85    83    89   am
    86    96    94    1
    87   121   122   ar
    88    59    57    1
    89   120   122   ar
    90    52    50   ar
    91    89    90    1
    92    90    91    1
    93    90    93    1
    94    49    50    1
    95    49    46    1
    96    57    58    1
    97    57    54    1
    98    50    51   ar
    99    94    93    1
   100    94    95    1
   101    91    92    2
   102    53    54    1
   103    60    58    1
   104   164   163    1
   105    54    55    1
   106   165   163    1
   107    71    72    1
   108    71    70    1
   109    46    45    1
   110    46    47    1
   111   163   160    1
   112    76    75    2
   113    79    78   ar
   114    70    69    1
   115    78    77    1
   116    78    80   ar
   117    61    55   am
   118    61    62    1
   119    64    63    2
   120    47    48    2
   121    55    56    2
   122    77    74    1
   123    75    74    1
   124    74    73    1
   125   158   156    1
   126   156   157    1
   127   156   153    1
   128   162   161    2
   129   160   161    1
   130   160   159    1
   131    63    62    1
   132    63    65   am
   133   155   154    2
   134   141   139    1
   135    69    66    1
   136   151   149   ar
   137   151   150   ar
   138   149   147   ar
   139    66    65    1
   140    66    67    1
   141   154   153    1
   142   153   152    1
   143   140   139    1
   144   139   136    1
   145   150   148   ar
   146   147   148   ar
   147   147   146    1
   148    67    68    2
   149   136   135    1
   150   136   137    1
   151   146   143    1
   152   143   142    1
   153   143   144    1
   154   137   138    2
   155   144   145    2
