@<TRIPOS>MOLECULE
tmp/4bqlA00.pdb
 157 150 0 0 0
SMALL
GASTEIGER

@<TRIPOS>ATOM
      1  N         21.2910   -7.2870   41.0810 N.3    23  ASP23      -0.1239
      2  CA        20.5380   -6.1710   41.6360 C.3    23  ASP23       0.1674
      3  C         19.3630   -5.8350   40.7120 C.2    23  ASP23       0.2266
      4  O         19.5630   -5.3590   39.5980 O.2    23  ASP23      -0.2867
      5  CB        21.4820   -4.9650   41.8340 C.3    23  ASP23       0.1410
      6  CG        20.7440   -3.6580   42.1410 C.2    23  ASP23       0.3668
      7  OD1       19.6090   -3.7000   42.6550 O.co2  23  ASP23      -0.2456
      8  OD2       21.2980   -2.5680   41.8600 O.co2  23  ASP23      -0.2456
      9  N         17.1030   -3.4040   39.9750 N.3    25  GLY25      -0.1210
     10  CA        16.7020   -2.0060   40.0630 C.3    25  GLY25       0.1956
     11  C         15.3770   -1.7180   39.3680 C.2    25  GLY25       0.2613
     12  O         14.9690   -2.4470   38.4720 O.2    25  GLY25      -0.2717
     13  N         14.7080   -0.6420   39.7750 N.am   26  THR26      -0.1938
     14  CA        13.4320   -0.2500   39.1750 C.3    26  THR26       0.2028
     15  C         13.5570    0.1580   37.6960 C.2    26  THR26       0.2643
     16  O         12.5560    0.2640   36.9960 O.2    26  THR26      -0.2714
     17  CB        12.7360    0.8530   40.0070 C.3    26  THR26       0.1808
     18  OG1       11.4620    1.1640   39.4340 O.3    26  THR26      -0.2208
     19  CG2       13.5760    2.1110   40.0720 C.3    26  THR26       0.0379
     20  N         14.7900    0.3370   37.2260 N.am   27  SER27      -0.1935
     21  CA        15.0640    0.8150   35.8740 C.3    27  SER27       0.2055
     22  C         16.1230   -0.0080   35.1390 C.2    27  SER27       0.2643
     23  O         16.0500   -0.1880   33.9340 O.2    27  SER27      -0.2714
     24  CB        15.5270    2.2580   35.9510 C.3    27  SER27       0.2130
     25  OG        15.2670    2.9180   34.7410 O.3    27  SER27      -0.2179
     26  N         17.1140   -0.4940   35.8730 N.am   28  TYR28      -0.1973
     27  CA        18.2040   -1.2850   35.3180 C.3    28  TYR28       0.1639
     28  C         18.5380   -2.4330   36.2590 C.2    28  TYR28       0.2290
     29  O         18.7480   -2.2070   37.4520 O.2    28  TYR28      -0.2864
     30  CB        19.4680   -0.4290   35.1940 C.3    28  TYR28       0.0560
     31  CG        19.5780    0.4100   33.9520 C.ar   28  TYR28      -0.0198
     32  CD1       19.0050    1.6820   33.8910 C.ar   28  TYR28      -0.0009
     33  CD2       20.2860   -0.0540   32.8420 C.ar   28  TYR28      -0.0009
     34  CE1       19.1120    2.4620   32.7470 C.ar   28  TYR28       0.0417
     35  CE2       20.4010    0.7140   31.6920 C.ar   28  TYR28       0.0417
     36  CZ        19.8080    1.9660   31.6470 C.ar   28  TYR28       0.1957
     37  OH        19.9140    2.7260   30.5080 O.3    28  TYR28      -0.2866
     38  N         21.4650   -4.7880   37.3920 N.3    30  LYS30      -0.1245
     39  CA        22.9110   -4.9620   37.2880 C.3    30  LYS30       0.1561
     40  C         23.2310   -6.3770   37.7160 C.2    30  LYS30       0.2260
     41  O         22.7730   -6.8300   38.7580 O.2    30  LYS30      -0.2867
     42  CB        23.6840   -3.9540   38.1460 C.3    30  LYS30       0.0271
     43  CG        23.4560   -2.4930   37.8050 C.3    30  LYS30       0.0035
     44  CD        22.6690   -1.8470   38.9150 C.3    30  LYS30       0.0206
     45  CE        21.6530   -0.8510   38.3930 C.3    30  LYS30       0.1093
     46  NZ        20.5230   -0.7130   39.3620 N.3    30  LYS30      -0.1314
     47  N         18.4290   -3.7530   49.2510 N.3   170  GLN170     -0.1245
     48  CA        19.4040   -2.8660   48.6040 C.3   170  GLN170      0.1566
     49  C         20.1710   -1.9370   49.5590 C.2   170  GLN170      0.2260
     50  O         21.4040   -1.9380   49.5380 O.2   170  GLN170     -0.2867
     51  CB        18.7490   -2.0600   47.4890 C.3   170  GLN170      0.0367
     52  CG        18.2410   -2.9050   46.3420 C.3   170  GLN170      0.0905
     53  CD        17.4810   -2.0970   45.3090 C.2   170  GLN170      0.2608
     54  OE1       17.1030   -0.9410   45.5450 O.2   170  GLN170     -0.2717
     55  NE2       17.2500   -2.7000   44.1500 N.am  170  GLN170     -0.0878
     56  N         19.2360    5.7700   49.0190 N.3   187  GLU187     -0.1231
     57  CA        19.1950    5.2320   47.6680 C.3   187  GLU187      0.1699
     58  C         18.2740    6.0660   46.7720 C.2   187  GLU187      0.2593
     59  O         17.0850    6.2220   47.0550 O.2   187  GLU187     -0.2718
     60  CB        18.7080    3.7830   47.7160 C.3   187  GLU187      0.0402
     61  CG        18.5000    3.1340   46.3540 C.3   187  GLU187      0.1161
     62  CD        19.7830    2.5800   45.7660 C.2   187  GLU187      0.3649
     63  OE1       20.6750    2.2250   46.5690 O.co2 187  GLU187     -0.2457
     64  OE2       19.8840    2.4880   44.5100 O.co2 187  GLU187     -0.2457
     65  N         18.8330    6.5830   45.6850 N.am  188  GLY188     -0.1942
     66  CA        18.0730    7.3670   44.7120 C.3   188  GLY188      0.2014
     67  C         17.7880    6.6570   43.3950 C.2   188  GLY188      0.2639
     68  O         18.6280    6.6380   42.4710 O.2   188  GLY188     -0.2714
     69  N         16.5760    6.1050   43.3100 N.am  189  GLY189     -0.1939
     70  CA        16.1260    5.3490   42.1440 C.3   189  GLY189      0.2014
     71  C         15.3690    6.1580   41.1140 C.2   189  GLY189      0.2638
     72  O         15.3120    7.3850   41.1690 O.2   189  GLY189     -0.2714
     73  N         14.7870    5.4550   40.1590 N.am  190  HIS190     -0.1973
     74  CA        13.9590    6.0880   39.1560 C.3   190  HIS190      0.1656
     75  C         12.5990    6.3940   39.7080 C.2   190  HIS190      0.2291
     76  O         12.1000    7.5050   39.5480 O.2   190  HIS190     -0.2864
     77  CB        13.8400    5.1890   37.9380 C.3   190  HIS190      0.0771
     78  CG        13.1370    5.8340   36.7740 C.ar  190  HIS190      0.0820
     79  ND1       13.7460    6.7190   35.9580 N.ar  190  HIS190     -0.2267
     80  CD2       11.8390    5.6880   36.3000 C.ar  190  HIS190      0.1154
     81  CE1       12.8810    7.1240   35.0140 C.ar  190  HIS190      0.1986
     82  NE2       11.7120    6.4930   35.2250 N.ar  190  HIS190     -0.2212
     83  N         14.3130    9.8290   39.7010 N.3   214  GLY214     -0.1225
     84  CA        14.7910   10.1020   38.3510 C.3   214  GLY214      0.1811
     85  C         13.6440   10.3720   37.4120 C.2   214  GLY214      0.2280
     86  O         13.7870   11.1340   36.4550 O.2   214  GLY214     -0.2866
     87  N         14.9510   11.5200   28.5440 N.3   241  GLU241     -0.1245
     88  CA        16.0890   11.0190   29.3240 C.3   241  GLU241      0.1567
     89  C         17.3900   11.6530   28.8930 C.2   241  GLU241      0.2260
     90  O         18.0680   12.2850   29.6970 O.2   241  GLU241     -0.2867
     91  CB        16.2210    9.4990   29.1910 C.3   241  GLU241      0.0388
     92  CG        15.7940    8.7080   30.4210 C.3   241  GLU241      0.1160
     93  CD        16.7950    8.8000   31.5620 C.2   241  GLU241      0.3649
     94  OE1       18.0100    8.7800   31.2790 O.co2 241  GLU241     -0.2457
     95  OE2       16.3740    8.8920   32.7390 O.co2 241  GLU241     -0.2457
     96  N         17.5490   15.2540   30.0050 N.3   244  LYS244     -0.1231
     97  CA        17.6480   15.4250   31.4590 C.3   244  LYS244      0.1693
     98  C         19.0650   15.1220   31.9710 C.2   244  LYS244      0.2591
     99  O         19.5770   15.7980   32.8660 O.2   244  LYS244     -0.2718
    100  CB        16.5690   14.6080   32.1830 C.3   244  LYS244      0.0285
    101  CG        16.8780   14.2570   33.6210 C.3   244  LYS244      0.0035
    102  CD        17.0980   12.7680   33.7860 C.3   244  LYS244      0.0206
    103  CE        17.7660   12.4950   35.1210 C.3   244  LYS244      0.1093
    104  NZ        17.9620   11.0500   35.3850 N.3   244  LYS244     -0.1314
    105  N         19.6970   14.1140   31.3840 N.am  245  ARG245     -0.1980
    106  CA        21.0790   13.7810   31.7100 C.3   245  ARG245      0.1597
    107  C         22.0400   14.8890   31.2710 C.2   245  ARG245      0.2287
    108  O         22.9480   15.2540   31.9970 O.2   245  ARG245     -0.2864
    109  CB        21.4830   12.4560   31.0600 C.3   245  ARG245      0.0334
    110  CG        21.1160   11.2100   31.8490 C.3   245  ARG245      0.0492
    111  CD        21.1670    9.9780   30.9510 C.3   245  ARG245      0.2205
    112  NE        20.5530    8.8130   31.5870 N.pl3 245  ARG245     -0.0865
    113  CZ        21.1820    7.6810   31.9110 C.cat 245  ARG245      0.5346
    114  NH1       22.4790    7.5080   31.6550 N.pl3 245  ARG245      0.1354
    115  NH2       20.4990    6.7010   32.4930 N.pl3 245  ARG245      0.1354
    116  N         22.7510    5.4760   44.0830 N.3   359  GLY359     -0.1210
    117  CA        21.7590    5.5230   43.0190 C.3   359  GLY359      0.1956
    118  C         22.0400    6.5510   41.9450 C.2   359  GLY359      0.2612
    119  O         22.6600    7.5690   42.2050 O.2   359  GLY359     -0.2717
    120  N         21.5650    6.2840   40.7340 N.am  360  GLY360     -0.1942
    121  CA        21.7570    7.1820   39.6080 C.3   360  GLY360      0.2014
    122  C         21.1250    8.5340   39.8440 C.2   360  GLY360      0.2638
    123  O         21.6690    9.5570   39.4190 O.2   360  GLY360     -0.2714
    124  N         19.9820    8.5440   40.5330 N.am  361  ALA361     -0.1977
    125  CA        19.2440    9.7820   40.7760 C.3   361  ALA361      0.1597
    126  C         20.0870   10.8580   41.4520 C.2   361  ALA361      0.2287
    127  O         19.7590   12.0360   41.4180 O.2   361  ALA361     -0.2864
    128  CB        17.9900    9.5080   41.5710 C.3   361  ALA361      0.0319
    129  N         23.4230   11.1420   40.6550 N.3   363  SER363     -0.1202
    130  CA        24.6390   11.2320   39.8780 C.3   363  SER363      0.2020
    131  C         24.7910   12.5570   39.1520 C.2   363  SER363      0.2618
    132  O         25.1970   12.5650   38.0030 O.2   363  SER363     -0.2717
    133  CB        24.7230   10.0690   38.8930 C.3   363  SER363      0.2103
    134  OG        25.1260    8.8810   39.5580 O.3   363  SER363     -0.2182
    135  N         24.4880   13.6730   39.8150 N.am  364  TRP364     -0.1975
    136  CA        24.5340   14.9900   39.1620 C.3   364  TRP364      0.1640
    137  C         25.8810   15.5760   39.2910 C.2   364  TRP364      0.2290
    138  O         26.4530   15.5470   40.3750 O.2   364  TRP364     -0.2864
    139  CB        23.5730   15.9500   39.8110 C.3   364  TRP364      0.0576
    140  CG        22.1420   15.5820   39.6540 C.ar  364  TRP364      0.0006
    141  CD1       21.3180   14.9900   40.5950 C.ar  364  TRP364      0.0946
    142  CD2       21.3120   15.7750   38.4780 C.ar  364  TRP364      0.0152
    143  NE1       20.0660   14.8040   40.0940 N.ar  364  TRP364     -0.2442
    144  CE2       19.9890   15.2590   38.8280 C.ar  364  TRP364      0.0810
    145  CE3       21.5190   16.3050   37.2100 C.ar  364  TRP364      0.0012
    146  CZ2       18.9310   15.2880   37.9350 C.ar  364  TRP364      0.0191
    147  CZ3       20.4480   16.3290   36.3120 C.ar  364  TRP364      0.0001
    148  CH2       19.1860   15.8300   36.6670 C.ar  364  TRP364      0.0015
    149  N         25.4330    3.3880   40.6400 N.3   405  GLN405     -0.1245
    150  CA        24.6250    2.2540   40.2060 C.3   405  GLN405      0.1566
    151  C         25.2520    0.9030   40.5770 C.2   405  GLN405      0.2260
    152  O         24.5330   -0.0620   40.8930 O.2   405  GLN405     -0.2867
    153  CB        24.3680    2.3350   38.7120 C.3   405  GLN405      0.0367
    154  CG        23.1090    3.0970   38.3500 C.3   405  GLN405      0.0905
    155  CD        23.2160    3.7940   37.0070 C.2   405  GLN405      0.2608
    156  OE1       24.1670    4.5380   36.7560 O.2   405  GLN405     -0.2717
    157  NE2       22.2370    3.5640   36.1390 N.am  405  GLN405     -0.0878
@<TRIPOS>BOND
     1    87    88    1
     2    89    88    1
     3    89    90    2
     4    91    88    1
     5    91    92    1
     6    96    97    1
     7    92    93    1
     8    37    36    1
     9   111   112    1
    10   111   110    1
    11   109   106    1
    12   109   110    1
    13   107   106    1
    14   107   108    2
    15    94    93   ar
    16   105   106    1
    17   105    98   am
    18    97    98    1
    19    97   100    1
    20    93    95   ar
    21   112   113    2
    22    36    35   ar
    23    36    34   ar
    24   114   113    1
    25    35    33   ar
    26   113   115    1
    27    98    99    2
    28   100   101    1
    29    34    32   ar
    30    33    31   ar
    31   101   102    1
    32   102   103    1
    33    32    31   ar
    34    23    22    2
    35    31    30    1
    36    25    24    1
    37    81    82   ar
    38    81    79   ar
    39   103   104    1
    40    22    26   am
    41    22    21    1
    42    30    27    1
    43    82    80   ar
    44    27    26    1
    45    27    28    1
    46    21    24    1
    47    21    20    1
    48    79    78   ar
    49   157   155   am
    50    28    29    2
    51    80    78   ar
    52   147   148   ar
    53   147   145   ar
    54    86    85    2
    55   148   146   ar
    56   156   155    2
    57    78    77    1
    58    16    15    2
    59   155   154    1
    60   145   142   ar
    61    20    15   am
    62    39    38    1
    63    39    40    1
    64    39    42    1
    65    85    84    1
    66    15    14    1
    67    40    41    2
    68    43    42    1
    69    43    44    1
    70   146   144   ar
    71    77    74    1
    72   132   131    2
    73   154   153    1
    74    84    83    1
    75    45    44    1
    76    45    46    1
    77    12    11    2
    78   142   144   ar
    79   142   140   ar
    80   153   150    1
    81   144   143   ar
    82   133   134    1
    83   133   130    1
    84   131   135   am
    85   131   130    1
    86    74    75    1
    87    74    73    1
    88   136   137    1
    89   136   139    1
    90   136   135    1
    91    14    13    1
    92    14    17    1
    93   137   138    2
    94    11    13   am
    95    11    10    1
    96   123   122    2
    97    18    17    1
    98    76    75    2
    99     4     3    2
   100   121   122    1
   101   121   120    1
   102   140   139    1
   103   140   141   ar
   104   122   124   am
   105   130   129    1
   106     9    10    1
   107    17    19    1
   108   143   141   ar
   109    73    71   am
   110   150   151    1
   111   150   149    1
   112   124   125    1
   113   151   152    2
   114     3     2    1
   115   120   118   am
   116   125   126    1
   117   125   128    1
   118     1     2    1
   119    71    72    2
   120    71    70    1
   121   127   126    2
   122     2     5    1
   123     5     6    1
   124     8     6   ar
   125   118   119    2
   126   118   117    1
   127     6     7   ar
   128    70    69    1
   129    68    67    2
   130   117   116    1
   131    69    67   am
   132    67    66    1
   133    55    53   am
   134    64    62   ar
   135    66    65    1
   136    53    54    2
   137    53    52    1
   138    65    58   am
   139    62    61    1
   140    62    63   ar
   141    52    51    1
   142    61    60    1
   143    58    59    2
   144    58    57    1
   145    51    48    1
   146    57    60    1
   147    57    56    1
   148    48    47    1
   149    48    49    1
   150    50    49    2
