@<TRIPOS>MOLECULE
tmp/4bqnA00.pdb
 231 224 0 0 0
SMALL
GASTEIGER

@<TRIPOS>ATOM
      1  N         70.6430   88.6060   53.9950 N.3    13  SER13      -0.1202
      2  CA        71.0150   88.8930   52.6180 C.3    13  SER13       0.2020
      3  C         72.5180   88.6780   52.4200 C.2    13  SER13       0.2619
      4  O         73.2160   88.1760   53.3220 O.2    13  SER13      -0.2717
      5  CB        70.6850   90.3570   52.3230 C.3    13  SER13       0.2103
      6  OG        71.5970   91.2190   53.0020 O.3    13  SER13      -0.2182
      7  N         73.0340   89.1040   51.2680 N.am   14  CYS14      -0.1955
      8  CA        74.4790   89.1060   51.0510 C.3    14  CYS14       0.1843
      9  C         75.2490   89.8930   52.1340 C.2    14  CYS14       0.2625
     10  O         76.4480   89.7100   52.3070 O.2    14  CYS14      -0.2714
     11  CB        74.8040   89.6320   49.6460 C.3    14  CYS14       0.0997
     12  SG        74.7390   91.3840   49.4310 S.3    14  CYS14      -0.0797
     13  N         74.5550   90.7680   52.8650 N.am   15  GLN15      -0.1977
     14  CA        75.1770   91.5370   53.9380 C.3    15  GLN15       0.1601
     15  C         75.5330   90.6710   55.1320 C.2    15  GLN15       0.2287
     16  O         76.4170   91.0540   55.9140 O.2    15  GLN15      -0.2864
     17  CB        74.2450   92.6700   54.3810 C.3    15  GLN15       0.0394
     18  CG        73.9960   93.6680   53.2480 C.3    15  GLN15       0.0908
     19  CD        72.8350   94.6090   53.5020 C.2    15  GLN15       0.2608
     20  OE1       72.2920   94.6950   54.6190 O.2    15  GLN15      -0.2717
     21  NE2       72.4540   95.3460   52.4600 N.am   15  GLN15      -0.0878
     22  N         70.0550   84.1080   52.2610 N.3    41  CYS41      -0.1221
     23  CA        68.6910   83.7880   51.8970 C.3    41  CYS41       0.1808
     24  C         68.4770   83.6320   50.3910 C.2    41  CYS41       0.2601
     25  O         67.5770   82.9070   49.9760 O.2    41  CYS41      -0.2717
     26  CB        67.7390   84.8600   52.4520 C.3    41  CYS41       0.0970
     27  SG        67.9780   86.5280   51.7930 S.3    41  CYS41      -0.0800
     28  N         69.2940   84.3020   49.5790 N.am   42  PHE42      -0.1976
     29  CA        69.1190   84.2410   48.1300 C.3    42  PHE42       0.1639
     30  C         69.7800   83.0270   47.4940 C.2    42  PHE42       0.2290
     31  O         69.4990   82.7250   46.3290 O.2    42  PHE42      -0.2864
     32  CB        69.6230   85.5240   47.4510 C.3    42  PHE42       0.0560
     33  CG        71.1140   85.7010   47.5020 C.ar   42  PHE42      -0.0200
     34  CD1       71.7310   86.2700   48.6200 C.ar   42  PHE42      -0.0042
     35  CD2       71.9080   85.3160   46.4250 C.ar   42  PHE42      -0.0042
     36  CE1       73.1130   86.4470   48.6610 C.ar   42  PHE42      -0.0003
     37  CE2       73.2850   85.4740   46.4690 C.ar   42  PHE42      -0.0003
     38  CZ        73.8900   86.0410   47.5870 C.ar   42  PHE42      -0.0000
     39  N         65.8580   90.5220   58.8690 N.3    67  PRO67      -0.2102
     40  CA        64.4850   90.0970   58.5860 C.3    67  PRO67       0.1504
     41  C         64.2990   89.5380   57.1620 C.2    67  PRO67       0.2576
     42  O         64.7610   90.1400   56.1940 O.2    67  PRO67      -0.2718
     43  CB        63.6920   91.3970   58.7530 C.3    67  PRO67       0.0282
     44  CG        64.4590   92.1720   59.7810 C.3    67  PRO67       0.0208
     45  CD        65.9000   91.9100   59.3660 C.3    67  PRO67       0.0893
     46  N         63.6470   88.3820   57.0560 N.am   68  VAL68      -0.1966
     47  CA        63.3410   87.7740   55.7530 C.3    68  VAL68       0.1727
     48  C         61.9310   87.2210   55.8280 C.2    68  VAL68       0.2616
     49  O         61.6420   86.3370   56.6350 O.2    68  VAL68      -0.2715
     50  CB        64.3170   86.6250   55.3690 C.3    68  VAL68       0.0290
     51  CG1       63.9330   86.0390   54.0110 C.3    68  VAL68       0.0023
     52  CG2       65.7630   87.0980   55.3440 C.3    68  VAL68       0.0023
     53  N         61.0590   87.7250   54.9600 N.am   69  SER69      -0.1950
     54  CA        59.6560   87.3510   54.9590 C.3    69  SER69       0.1924
     55  C         59.4420   85.9130   54.5010 C.2    69  SER69       0.2314
     56  O         60.2700   85.3490   53.7800 O.2    69  SER69      -0.2863
     57  CB        58.8520   88.2740   54.0260 C.3    69  SER69       0.2116
     58  OG        59.1640   87.9840   52.6670 O.3    69  SER69      -0.2180
     59  N         59.1370   85.6280   50.5210 N.3    72  TYR72      -0.1241
     60  CA        60.3190   85.6860   49.6760 C.3    72  TYR72       0.1605
     61  C         60.5780   84.3650   48.9400 C.2    72  TYR72       0.2264
     62  O         60.5650   84.3150   47.7030 O.2    72  TYR72      -0.2867
     63  CB        61.5410   86.1070   50.5060 C.3    72  TYR72       0.0534
     64  CG        62.8580   86.0550   49.7580 C.ar   72  TYR72      -0.0201
     65  CD1       63.0280   86.7500   48.5420 C.ar   72  TYR72      -0.0009
     66  CD2       63.9230   85.3070   50.2500 C.ar   72  TYR72      -0.0009
     67  CE1       64.2320   86.7030   47.8560 C.ar   72  TYR72       0.0417
     68  CE2       65.1260   85.2610   49.5710 C.ar   72  TYR72       0.0417
     69  CZ        65.2670   85.9510   48.3780 C.ar   72  TYR72       0.1957
     70  OH        66.4510   85.9120   47.7070 O.3    72  TYR72      -0.2866
     71  N         68.4290   95.4920   57.5050 N.3    97  TYR97      -0.1241
     72  CA        68.7610   95.2790   56.1090 C.3    97  TYR97       0.1605
     73  C         69.0690   96.6620   55.5290 C.2    97  TYR97       0.2264
     74  O         68.1890   97.5420   55.4590 O.2    97  TYR97      -0.2867
     75  CB        67.6220   94.5980   55.3590 C.3    97  TYR97       0.0534
     76  CG        67.9240   94.4500   53.8940 C.ar   97  TYR97      -0.0201
     77  CD1       68.9660   93.6250   53.4530 C.ar   97  TYR97      -0.0009
     78  CD2       67.1970   95.1610   52.9450 C.ar   97  TYR97      -0.0009
     79  CE1       69.2530   93.4920   52.1060 C.ar   97  TYR97       0.0417
     80  CE2       67.4760   95.0360   51.5890 C.ar   97  TYR97       0.0417
     81  CZ        68.5080   94.2040   51.1780 C.ar   97  TYR97       0.1957
     82  OH        68.7980   94.0510   49.8510 O.3    97  TYR97      -0.2866
     83  N         69.6080   99.3650   52.9770 N.3    99  HIS99      -0.1241
     84  CA        69.2420   99.7080   51.6110 C.3    99  HIS99       0.1621
     85  C         69.1080  101.2240   51.5790 C.2    99  HIS99       0.2264
     86  O         68.4830  101.8190   52.4680 O.2    99  HIS99      -0.2867
     87  CB        67.9540   98.9780   51.2290 C.3    99  HIS99       0.0745
     88  CG        67.4230   99.3010   49.8700 C.ar   99  HIS99       0.0817
     89  ND1       67.3190   98.3580   48.8670 N.ar   99  HIS99      -0.2268
     90  CD2       66.9110  100.4500   49.3630 C.ar   99  HIS99       0.1154
     91  CE1       66.7670   98.9150   47.8040 C.ar   99  HIS99       0.1986
     92  NE2       66.5160  100.1860   48.0760 N.ar   99  HIS99      -0.2212
     93  N         68.9940  104.4060   48.5020 N.3   101  GLU101     -0.1245
     94  CA        69.0330  104.8210   47.0860 C.3   101  GLU101      0.1567
     95  C         69.5820  106.2380   46.9080 C.2   101  GLU101      0.2260
     96  O         69.6070  106.7550   45.8030 O.2   101  GLU101     -0.2867
     97  CB        67.6410  104.6780   46.4500 C.3   101  GLU101      0.0388
     98  CG        67.1980  103.2320   46.4310 C.3   101  GLU101      0.1160
     99  CD        65.7700  103.0510   46.0000 C.2   101  GLU101      0.3649
    100  OE1       65.2540  103.9140   45.2630 O.co2 101  GLU101     -0.2457
    101  OE2       65.1790  102.0390   46.4130 O.co2 101  GLU101     -0.2457
    102  N         67.8550  100.5510   40.2650 N.3   108  ASN108     -0.1225
    103  CA        67.1740   99.5240   41.0350 C.3   108  ASN108      0.1785
    104  C         67.5610   98.1550   40.4760 C.2   108  ASN108      0.2597
    105  O         68.5930   98.0310   39.8230 O.2   108  ASN108     -0.2718
    106  CB        65.6650   99.7810   41.0890 C.3   108  ASN108      0.1169
    107  CG        65.0550   99.2680   42.3790 C.2   108  ASN108      0.2627
    108  OD1       64.9400   98.0590   42.5760 O.2   108  ASN108     -0.2716
    109  ND2       64.7020  100.1720   43.2810 N.am  108  ASN108     -0.0877
    110  N         66.7660   97.1310   40.7440 N.am  109  SER109     -0.1952
    111  CA        67.0280   95.8170   40.1790 C.3   109  SER109      0.1924
    112  C         65.7760   95.3850   39.4400 C.2   109  SER109      0.2314
    113  O         64.6660   95.8090   39.7920 O.2   109  SER109     -0.2863
    114  CB        67.4010   94.8320   41.2750 C.3   109  SER109      0.2116
    115  OG        68.5740   95.2750   41.9330 O.3   109  SER109     -0.2180
    116  N         71.8670   94.9850   38.7740 N.3   120  TYR120     -0.1241
    117  CA        71.2940   96.3310   38.8650 C.3   120  TYR120      0.1605
    118  C         71.0490   96.8690   37.4760 C.2   120  TYR120      0.2264
    119  O         71.7640   96.5090   36.5240 O.2   120  TYR120     -0.2867
    120  CB        72.2330   97.2910   39.6080 C.3   120  TYR120      0.0534
    121  CG        72.6300   96.7750   40.9560 C.ar  120  TYR120     -0.0201
    122  CD1       71.8330   97.0020   42.0730 C.ar  120  TYR120     -0.0009
    123  CD2       73.7820   95.9990   41.1080 C.ar  120  TYR120     -0.0009
    124  CE1       72.1920   96.4920   43.3150 C.ar  120  TYR120      0.0417
    125  CE2       74.1370   95.4820   42.3430 C.ar  120  TYR120      0.0417
    126  CZ        73.3420   95.7320   43.4330 C.ar  120  TYR120      0.1957
    127  OH        73.7180   95.2260   44.6470 O.3   120  TYR120     -0.2866
    128  N         62.8000  110.2190   52.0030 N.3   159  TRP159     -0.1227
    129  CA        62.1520  108.9720   51.6480 C.3   159  TRP159      0.1737
    130  C         63.0470  107.7850   52.0190 C.2   159  TRP159      0.2595
    131  O         62.5660  106.7880   52.5710 O.2   159  TRP159     -0.2718
    132  CB        61.7870  108.9580   50.1670 C.3   159  TRP159      0.0564
    133  CG        61.1490  107.7050   49.7220 C.ar  159  TRP159      0.0003
    134  CD1       59.8170  107.3880   49.7790 C.ar  159  TRP159      0.0946
    135  CD2       61.8070  106.5850   49.1070 C.ar  159  TRP159      0.0152
    136  NE1       59.6130  106.1270   49.2600 N.ar  159  TRP159     -0.2442
    137  CE2       60.8150  105.6180   48.8320 C.ar  159  TRP159      0.0810
    138  CE3       63.1380  106.3120   48.7630 C.ar  159  TRP159      0.0012
    139  CZ2       61.1120  104.3840   48.2240 C.ar  159  TRP159      0.0191
    140  CZ3       63.4360  105.0840   48.1540 C.ar  159  TRP159      0.0001
    141  CH2       62.4240  104.1350   47.9010 C.ar  159  TRP159      0.0015
    142  N         64.3450  107.8790   51.7140 N.am  160  CYS160     -0.1970
    143  CA        65.2650  106.7990   52.0680 C.3   160  CYS160      0.1712
    144  C         65.2750  106.5220   53.5720 C.2   160  CYS160      0.2296
    145  O         65.2780  105.3610   53.9930 O.2   160  CYS160     -0.2864
    146  CB        66.6890  107.1020   51.5960 C.3   160  CYS160      0.0983
    147  SG        66.8790  107.1250   49.7950 S.3   160  CYS160     -0.0798
    148  N         61.8910  104.7910   54.5870 N.3   163  GLU163     -0.1231
    149  CA        61.8500  103.3660   54.2360 C.3   163  GLU163      0.1699
    150  C         62.5570  102.5000   55.2830 C.2   163  GLU163      0.2592
    151  O         62.1100  101.3860   55.5850 O.2   163  GLU163     -0.2718
    152  CB        62.4840  103.1310   52.8690 C.3   163  GLU163      0.0402
    153  CG        61.6390  103.6560   51.7180 C.3   163  GLU163      0.1161
    154  CD        60.2920  102.9580   51.6040 C.2   163  GLU163      0.3649
    155  OE1       60.2350  101.7100   51.5880 O.co2 163  GLU163     -0.2457
    156  OE2       59.2780  103.6530   51.5220 O.co2 163  GLU163     -0.2457
    157  N         63.6780  102.9910   55.8050 N.am  164  LEU164     -0.1980
    158  CA        64.3730  102.2980   56.8850 C.3   164  LEU164      0.1596
    159  C         63.5640  102.3210   58.1790 C.2   164  LEU164      0.2287
    160  O         63.4210  101.3000   58.8370 O.2   164  LEU164     -0.2864
    161  CB        65.7670  102.8900   57.0950 C.3   164  LEU164      0.0297
    162  CG        66.7720  102.7000   55.9460 C.3   164  LEU164      0.0022
    163  CD1       68.0710  103.4190   56.2480 C.3   164  LEU164      0.0001
    164  CD2       67.0410  101.2170   55.7060 C.3   164  LEU164      0.0001
    165  N         60.6910   99.9030   58.0940 N.3   167  ARG167     -0.1245
    166  CA        61.1460   98.5260   58.2160 C.3   167  ARG167      0.1563
    167  C         61.6240   98.1650   59.6080 C.2   167  ARG167      0.2260
    168  O         61.6160   96.9910   59.9740 O.2   167  ARG167     -0.2867
    169  CB        62.1960   98.2060   57.1590 C.3   167  ARG167      0.0307
    170  CG        61.5470   97.8430   55.8410 C.3   167  ARG167      0.0489
    171  CD        62.5850   97.6150   54.7570 C.3   167  ARG167      0.2205
    172  NE        61.9560   97.3720   53.4580 N.pl3 167  ARG167     -0.0865
    173  CZ        61.4460   98.3280   52.6850 C.cat 167  ARG167      0.5346
    174  NH1       61.4800   99.5940   53.0850 N.pl3 167  ARG167      0.1354
    175  NH2       60.8950   98.0210   51.5190 N.pl3 167  ARG167      0.1354
    176  N         58.1670   92.0170   58.3950 N.3   172  ASN172     -0.1240
    177  CA        58.6690   90.8000   57.7460 C.3   172  ASN172      0.1653
    178  C         59.4760   89.8810   58.6690 C.2   172  ASN172      0.2266
    179  O         60.0480   88.8850   58.2090 O.2   172  ASN172     -0.2867
    180  CB        59.4630   91.1310   56.4730 C.3   172  ASN172      0.1155
    181  CG        60.6520   92.0380   56.7350 C.2   172  ASN172      0.2627
    182  OD1       60.6490   92.8140   57.6920 O.2   172  ASN172     -0.2716
    183  ND2       61.6700   91.9590   55.8770 N.am  172  ASN172     -0.0877
    184  N         72.6770  100.3520   46.0480 N.3   199  MET199     -0.1230
    185  CA        71.6120  100.5500   47.0260 C.3   199  MET199      0.1702
    186  C         71.6470   99.5570   48.1770 C.2   199  MET199      0.2592
    187  O         71.1830   99.8600   49.2710 O.2   199  MET199     -0.2718
    188  CB        70.2480  100.4980   46.3460 C.3   199  MET199      0.0401
    189  CG        69.9020   99.1790   45.6830 C.3   199  MET199      0.0596
    190  SD        68.4060   99.4080   44.7040 S.3   199  MET199     -0.1393
    191  CE        68.0010   97.7120   44.3150 C.3   199  MET199      0.0692
    192  N         72.1440   98.3420   47.9210 N.am  200  ASN200     -0.1960
    193  CA        72.1330   97.3180   48.9810 C.3   200  ASN200      0.1819
    194  C         73.5060   96.6930   49.2470 C.2   200  ASN200      0.2621
    195  O         73.6130   95.6400   49.8840 O.2   200  ASN200     -0.2715
    196  CB        71.0370   96.2730   48.7040 C.3   200  ASN200      0.1195
    197  CG        71.1820   95.6570   47.3280 C.2   200  ASN200      0.2630
    198  OD1       72.2910   95.5910   46.8100 O.2   200  ASN200     -0.2716
    199  ND2       70.0700   95.2510   46.7200 N.am  200  ASN200     -0.0877
    200  N         74.5590   97.3870   48.8170 N.am  201  HIS201     -0.1973
    201  CA        75.9260   96.9780   49.1330 C.3   201  HIS201      0.1656
    202  C         76.6690   98.0720   49.8940 C.2   201  HIS201      0.2291
    203  O         77.2990   98.9420   49.2920 O.2   201  HIS201     -0.2864
    204  CB        76.7190   96.6270   47.8690 C.3   201  HIS201      0.0771
    205  CG        76.3210   95.3320   47.2280 C.ar  201  HIS201      0.0820
    206  ND1       76.9140   94.8900   46.0670 N.ar  201  HIS201     -0.2267
    207  CD2       75.3910   94.3980   47.5550 C.ar  201  HIS201      0.1154
    208  CE1       76.3920   93.7270   45.7210 C.ar  201  HIS201      0.1986
    209  NE2       75.4710   93.4000   46.6090 N.ar  201  HIS201     -0.2212
    210  N         56.2930  100.4470   38.5890 N.3   294  ARG294     -0.1245
    211  CA        56.4850   99.9220   39.9330 C.3   294  ARG294      0.1563
    212  C         57.5590  100.7020   40.6920 C.2   294  ARG294      0.2260
    213  O         57.3680  101.0590   41.8550 O.2   294  ARG294     -0.2867
    214  CB        56.8350   98.4310   39.8800 C.3   294  ARG294      0.0307
    215  CG        56.8850   97.7510   41.2430 C.3   294  ARG294      0.0489
    216  CD        57.0880   96.2630   41.0560 C.3   294  ARG294      0.2205
    217  NE        56.9810   95.4900   42.2920 N.pl3 294  ARG294     -0.0865
    218  CZ        58.0050   95.1990   43.0820 C.cat 294  ARG294      0.5346
    219  NH1       59.2220   95.6360   42.7910 N.pl3 294  ARG294      0.1354
    220  NH2       57.8070   94.4710   44.1700 N.pl3 294  ARG294      0.1354
    221  N         58.3810  106.9770   44.1430 N.3   299  ARG299     -0.1245
    222  CA        59.6350  107.7200   43.9810 C.3   299  ARG299      0.1563
    223  C         59.3950  108.9000   43.0440 C.2   299  ARG299      0.2260
    224  O         59.7260  108.8400   41.8570 O.2   299  ARG299     -0.2867
    225  CB        60.7440  106.8050   43.4380 C.3   299  ARG299      0.0307
    226  CG        61.0900  105.6240   44.3480 C.3   299  ARG299      0.0489
    227  CD        62.1400  104.7420   43.6940 C.3   299  ARG299      0.2205
    228  NE        62.6180  103.6360   44.5340 N.pl3 299  ARG299     -0.0865
    229  CZ        62.0070  102.4620   44.6670 C.cat 299  ARG299      0.5346
    230  NH1       60.8430  102.2170   44.0630 N.pl3 299  ARG299      0.1354
    231  NH2       62.5590  101.5270   45.4250 N.pl3 299  ARG299      0.1354
@<TRIPOS>BOND
     1   119   118    2
     2   118   117    1
     3   210   211    1
     4   116   117    1
     5   117   120    1
     6   112   113    2
     7   112   111    1
     8   120   121    1
     9   105   104    2
    10   214   211    1
    11   214   215    1
    12   211   212    1
    13   111   110    1
    14   111   114    1
    15   102   103    1
    16   104   110   am
    17   104   103    1
    18   212   213    2
    19   121   123   ar
    20   121   122   ar
    21   103   106    1
    22   216   215    1
    23   216   217    1
    24   106   107    1
    25   123   125   ar
    26   114   115    1
    27   224   223    2
    28   122   124   ar
    29   217   218    2
    30   125   126   ar
    31   107   108    2
    32   107   109   am
    33   219   218    1
    34   223   222    1
    35   218   220    1
    36   124   126   ar
    37   126   127    1
    38   225   222    1
    39   225   226    1
    40   227   226    1
    41   227   228    1
    42   222   221    1
    43   230   229    1
    44   191   190    1
    45   228   229    2
    46   229   231    1
    47   190   189    1
    48   100    99   ar
    49   189   188    1
    50   208   206   ar
    51   208   209   ar
    52    96    95    2
    53    99   101   ar
    54    99    98    1
    55   184   185    1
    56   206   205   ar
    57    31    30    2
    58   188   185    1
    59    35    37   ar
    60    35    33   ar
    61    98    97    1
    62    97    94    1
    63    37    38   ar
    64   209   207   ar
    65   199   197   am
    66   198   197    2
    67    95    94    1
    68   185   186    1
    69    94    93    1
    70   205   207   ar
    71   205   204    1
    72   197   196    1
    73    32    33    1
    74    32    29    1
    75    30    29    1
    76    33    34   ar
    77    38    36   ar
    78    62    61    2
    79    70    69    1
    80    91    92   ar
    81    91    89   ar
    82    67    69   ar
    83    67    65   ar
    84   204   201    1
    85   141   140   ar
    86   141   139   ar
    87   192   186   am
    88   192   193    1
    89    92    90   ar
    90    29    28    1
    91   140   138   ar
    92   186   187    2
    93   139   137   ar
    94    69    68   ar
    95    65    64   ar
    96    34    36   ar
    97   196   193    1
    98   138   135   ar
    99   200   201    1
   100   200   194   am
   101   137   135   ar
   102   137   136   ar
   103    89    88   ar
   104    61    60    1
   105   193   194    1
   106   135   133   ar
   107   201   202    1
   108   194   195    2
   109   136   134   ar
   110   203   202    2
   111    90    88   ar
   112    12    11    1
   113    68    66   ar
   114    28    24   am
   115    11     8    1
   116    60    63    1
   117    60    59    1
   118   133   134   ar
   119   133   132    1
   120    64    66   ar
   121    64    63    1
   122   147   146    1
   123    82    81    1
   124    88    87    1
   125    25    24    2
   126   132   129    1
   127    24    23    1
   128     8     7    1
   129     8     9    1
   130    81    80   ar
   131    81    79   ar
   132    87    84    1
   133     7     3   am
   134   175   173    1
   135   156   154   ar
   136    85    84    1
   137    85    86    2
   138   155   154   ar
   139    80    78   ar
   140   146   143    1
   141   154   153    1
   142    84    83    1
   143   129   128    1
   144   129   130    1
   145   142   130   am
   146   142   143    1
   147   153   152    1
   148    27    26    1
   149    23    22    1
   150    23    26    1
   151   130   131    2
   152   143   144    1
   153    79    77   ar
   154     9    10    2
   155     9    13   am
   156     5     2    1
   157     5     6    1
   158     3     2    1
   159     3     4    2
   160    21    19   am
   161     2     1    1
   162    58    57    1
   163   173   174    1
   164   173   172    2
   165    13    14    1
   166   152   149    1
   167    78    76   ar
   168    18    19    1
   169    18    17    1
   170    77    76   ar
   171   172   171    1
   172    19    20    2
   173   144   145    2
   174    56    55    2
   175    76    75    1
   176    14    17    1
   177    14    15    1
   178    51    50    1
   179    57    54    1
   180   149   148    1
   181   149   150    1
   182    55    54    1
   183   171   170    1
   184    54    53    1
   185    53    48   am
   186    15    16    2
   187   150   151    2
   188   150   157   am
   189    52    50    1
   190    75    72    1
   191    50    47    1
   192    74    73    2
   193    73    72    1
   194   164   162    1
   195    47    48    1
   196    47    46    1
   197   157   158    1
   198    48    49    2
   199   170   169    1
   200   183   181   am
   201   162   163    1
   202   162   161    1
   203    72    71    1
   204    42    41    2
   205   180   181    1
   206   180   177    1
   207   181   182    2
   208   158   161    1
   209   158   159    1
   210    46    41   am
   211   169   166    1
   212    41    40    1
   213   177   176    1
   214   177   178    1
   215   165   166    1
   216   159   160    2
   217   179   178    2
   218   166   167    1
   219    40    43    1
   220    40    39    1
   221    43    44    1
   222    39    45    1
   223    45    44    1
   224   167   168    2
