@<TRIPOS>MOLECULE
tmp/4bqoB00.pdb
 246 241 0 0 0
SMALL
GASTEIGER

@<TRIPOS>ATOM
      1  N         48.4320   83.0450   64.0910 N.3    10  GLY10      -0.1210
      2  CA        47.6300   84.1200   63.4820 C.3    10  GLY10       0.1956
      3  C         48.0260   84.2350   62.0520 C.2    10  GLY10       0.2613
      4  O         48.2370   83.2490   61.3520 O.2    10  GLY10      -0.2717
      5  N         48.1590   85.4690   61.6180 N.am   11  SER11      -0.1938
      6  CA        48.5450   85.7450   60.2290 C.3    11  SER11       0.2055
      7  C         50.0420   85.5530   60.0460 C.2    11  SER11       0.2643
      8  O         50.7400   85.0320   60.9260 O.2    11  SER11      -0.2714
      9  CB        48.2210   87.2090   59.9270 C.3    11  SER11       0.2130
     10  OG        49.0750   88.0780   60.6790 O.3    11  SER11      -0.2179
     11  N         50.5660   85.9900   58.9000 N.am   12  CYS12      -0.1967
     12  CA        52.0150   86.0090   58.7160 C.3    12  CYS12       0.1712
     13  C         52.7490   86.8290   59.7770 C.2    12  CYS12       0.2296
     14  O         53.9670   86.6830   60.0050 O.2    12  CYS12      -0.2864
     15  CB        52.3440   86.5420   57.3110 C.3    12  CYS12       0.0983
     16  SG        51.9950   88.3070   57.0880 S.3    12  CYS12      -0.0798
     17  N         47.5440   80.8760   59.9700 N.3    39  CYS39      -0.1221
     18  CA        46.1770   80.4840   59.5620 C.3    39  CYS39       0.1808
     19  C         45.9720   80.3220   58.0580 C.2    39  CYS39       0.2601
     20  O         45.0510   79.6250   57.6150 O.2    39  CYS39      -0.2717
     21  CB        45.1660   81.5150   60.1250 C.3    39  CYS39       0.0970
     22  SG        45.4070   83.2000   59.4740 S.3    39  CYS39      -0.0800
     23  N         46.7850   80.9930   57.2490 N.am   40  PHE40      -0.1976
     24  CA        46.5820   80.9720   55.8100 C.3    40  PHE40       0.1639
     25  C         47.2660   79.7600   55.1800 C.2    40  PHE40       0.2290
     26  O         47.0070   79.4580   54.0010 O.2    40  PHE40      -0.2864
     27  CB        47.0800   82.2600   55.1440 C.3    40  PHE40       0.0560
     28  CG        48.5760   82.4830   55.2590 C.ar   40  PHE40      -0.0200
     29  CD1       49.1180   83.0720   56.3960 C.ar   40  PHE40      -0.0042
     30  CD2       49.4370   82.1100   54.2230 C.ar   40  PHE40      -0.0042
     31  CE1       50.4950   83.2780   56.5180 C.ar   40  PHE40      -0.0003
     32  CE2       50.8180   82.3130   54.3330 C.ar   40  PHE40      -0.0003
     33  CZ        51.3410   82.8890   55.4860 C.ar   40  PHE40      -0.0000
     34  N         46.4640   86.0140   67.1260 N.3    64  GLN64      -0.1231
     35  CA        45.6680   87.0530   66.5510 C.3    64  GLN64       0.1683
     36  C         44.2710   86.5110   66.2990 C.2    64  GLN64       0.2434
     37  O         44.0720   85.3270   66.0630 O.2    64  GLN64      -0.2733
     38  CB        46.3010   87.4960   65.2210 C.3    64  GLN64       0.0380
     39  CG        47.6810   88.0850   65.4500 C.3    64  GLN64       0.0905
     40  CD        48.2980   88.6320   64.1990 C.2    64  GLN64       0.2608
     41  OE1       48.4440   87.8970   63.1990 O.2    64  GLN64      -0.2717
     42  NE2       48.7460   89.8690   64.2490 N.am   64  GLN64      -0.0878
     43  N         43.2550   87.3760   66.3200 N.am   65  PRO65      -0.2718
     44  CA        41.9340   86.8920   66.0170 C.3    65  PRO65       0.1535
     45  C         41.8340   86.2280   64.6320 C.2    65  PRO65       0.2598
     46  O         42.3530   86.7760   63.6380 O.2    65  PRO65      -0.2715
     47  CB        41.0900   88.1820   66.0520 C.3    65  PRO65       0.0310
     48  CG        41.7900   89.0450   67.0410 C.3    65  PRO65       0.0237
     49  CD        43.2600   88.7870   66.7570 C.3    65  PRO65       0.0939
     50  N         41.1560   85.0910   64.5520 N.am   66  VAL66      -0.1964
     51  CA        40.8840   84.4430   63.2710 C.3    66  VAL66       0.1727
     52  C         39.4470   83.9690   63.3590 C.2    66  VAL66       0.2616
     53  O         39.1300   83.1060   64.1790 O.2    66  VAL66      -0.2715
     54  CB        41.8100   83.2330   62.9860 C.3    66  VAL66       0.0290
     55  CG1       41.5100   82.6630   61.6000 C.3    66  VAL66       0.0023
     56  CG2       43.2680   83.6520   63.0240 C.3    66  VAL66       0.0023
     57  N         38.5940   84.5380   62.5060 N.am   67  SER67      -0.1950
     58  CA        37.1600   84.2160   62.5000 C.3    67  SER67       0.1924
     59  C         36.8880   82.7950   62.0500 C.2    67  SER67       0.2314
     60  O         37.6950   82.1870   61.3250 O.2    67  SER67      -0.2863
     61  CB        36.3610   85.1700   61.6130 C.3    67  SER67       0.2116
     62  OG        36.5930   84.8930   60.2400 O.3    67  SER67      -0.2180
     63  N         34.5720   82.1630   60.0180 N.3    69  GLY69      -0.1210
     64  CA        34.2430   82.3480   58.6310 C.3    69  GLY69       0.1956
     65  C         35.4060   82.3120   57.6670 C.2    69  GLY69       0.2611
     66  O         35.1960   82.1220   56.4490 O.2    69  GLY69      -0.2717
     67  N         36.6300   82.4290   58.2080 N.am   70  TYR70      -0.1976
     68  CA        37.8170   82.4970   57.3510 C.3    70  TYR70       0.1639
     69  C         38.0300   81.1850   56.5840 C.2    70  TYR70       0.2290
     70  O         38.0380   81.1720   55.3430 O.2    70  TYR70      -0.2864
     71  CB        39.0420   82.8690   58.1850 C.3    70  TYR70       0.0560
     72  CG        40.3500   82.8260   57.4160 C.ar   70  TYR70      -0.0198
     73  CD1       40.5080   83.5430   56.2350 C.ar   70  TYR70      -0.0009
     74  CD2       41.4190   82.0700   57.8910 C.ar   70  TYR70      -0.0009
     75  CE1       41.7100   83.4940   55.5360 C.ar   70  TYR70       0.0417
     76  CE2       42.6100   82.0230   57.2020 C.ar   70  TYR70       0.0417
     77  CZ        42.7460   82.7240   56.0360 C.ar   70  TYR70       0.1957
     78  OH        43.9460   82.6510   55.3740 O.3    70  TYR70      -0.2866
     79  N         45.7980   92.2690   65.0020 N.3    95  TYR95      -0.1241
     80  CA        46.1210   92.0870   63.6080 C.3    95  TYR95       0.1605
     81  C         46.3720   93.4640   63.0230 C.2    95  TYR95       0.2264
     82  O         45.4720   94.2900   62.9650 O.2    95  TYR95      -0.2867
     83  CB        44.9880   91.3730   62.8490 C.3    95  TYR95       0.0534
     84  CG        45.2870   91.2680   61.4040 C.ar   95  TYR95      -0.0201
     85  CD1       46.3680   90.4900   60.9800 C.ar   95  TYR95      -0.0009
     86  CD2       44.4980   91.9230   60.4630 C.ar   95  TYR95      -0.0009
     87  CE1       46.6710   90.3890   59.6270 C.ar   95  TYR95       0.0417
     88  CE2       44.7910   91.8330   59.0780 C.ar   95  TYR95       0.0417
     89  CZ        45.8980   91.0460   58.6960 C.ar   95  TYR95       0.1957
     90  OH        46.1770   90.9260   57.3460 O.3    95  TYR95      -0.2866
     91  N         46.8700   96.2180   60.4230 N.3    97  HIS97      -0.1241
     92  CA        46.4610   96.5220   59.0550 C.3    97  HIS97       0.1621
     93  C         46.3460   98.0320   58.9840 C.2    97  HIS97       0.2264
     94  O         45.7220   98.6530   59.8690 O.2    97  HIS97      -0.2867
     95  CB        45.1180   95.8790   58.7290 C.3    97  HIS97       0.0745
     96  CG        44.6120   96.1770   57.3480 C.ar   97  HIS97       0.0817
     97  ND1       44.6660   95.2590   56.3200 N.ar   97  HIS97      -0.2268
     98  CD2       44.0230   97.2870   56.8280 C.ar   97  HIS97       0.1154
     99  CE1       44.1180   95.7820   55.2380 C.ar   97  HIS97       0.1986
    100  NE2       43.7280   97.0150   55.5170 N.ar   97  HIS97      -0.2212
    101  N         46.3470  101.2100   55.9480 N.3    99  GLU99      -0.1245
    102  CA        46.4200  101.6730   54.5450 C.3    99  GLU99       0.1567
    103  C         46.9250  103.0960   54.4080 C.2    99  GLU99       0.2260
    104  O         46.9900  103.6180   53.2800 O.2    99  GLU99      -0.2867
    105  CB        45.0260  101.5420   53.8750 C.3    99  GLU99       0.0388
    106  CG        44.5580  100.0970   53.8520 C.3    99  GLU99       0.1160
    107  CD        43.1670   99.9110   53.3260 C.2    99  GLU99       0.3649
    108  OE1       42.6650  100.7720   52.6020 O.co2  99  GLU99      -0.2457
    109  OE2       42.5240   98.9000   53.6910 O.co2  99  GLU99      -0.2457
    110  N         45.2650   97.3980   47.6890 N.3   106  ASN106     -0.1225
    111  CA        44.5690   96.3700   48.4380 C.3   106  ASN106      0.1785
    112  C         44.9500   94.9850   47.9350 C.2   106  ASN106      0.2598
    113  O         45.8690   94.8360   47.1760 O.2   106  ASN106     -0.2718
    114  CB        43.0820   96.6110   48.3010 C.3   106  ASN106      0.1169
    115  CG        42.3380   96.3020   49.5770 C.2   106  ASN106      0.2627
    116  OD1       42.3710   95.1670   50.0750 O.2   106  ASN106     -0.2716
    117  ND2       41.6840   97.3140   50.1280 N.am  106  ASN106     -0.0877
    118  N         44.3080   93.9620   48.4730 N.am  107  SER107     -0.1938
    119  CA        44.5000   92.6250   47.9170 C.3   107  SER107      0.2040
    120  C         43.2810   92.2880   47.0490 C.2   107  SER107      0.2485
    121  O         42.1810   92.7770   47.3130 O.2   107  SER107     -0.2729
    122  CB        44.7020   91.6310   49.0390 C.3   107  SER107      0.2129
    123  OG        43.6740   91.7900   49.9750 O.3   107  SER107     -0.2179
    124  N         43.4850   91.4720   46.0020 N.am  108  PRO108     -0.2715
    125  CA        42.3610   91.0880   45.1550 C.3   108  PRO108      0.1536
    126  C         41.1800   90.5140   45.9310 C.2   108  PRO108      0.2598
    127  O         41.3620   89.7100   46.8380 O.2   108  PRO108     -0.2715
    128  CB        42.9660   89.9910   44.2660 C.3   108  PRO108      0.0310
    129  CG        44.3910   90.3820   44.1560 C.3   108  PRO108      0.0237
    130  CD        44.7620   90.9240   45.5110 C.3   108  PRO108      0.0939
    131  N         39.9690   90.9420   45.5810 N.am  109  TYR109     -0.1974
    132  CA        38.7470   90.2540   46.0430 C.3   109  TYR109      0.1639
    133  C         37.9090   89.9000   44.8640 C.2   109  TYR109      0.2290
    134  O         37.5610   90.7440   44.0220 O.2   109  TYR109     -0.2864
    135  CB        37.9110   91.0720   47.0270 C.3   109  TYR109      0.0560
    136  CG        36.5850   90.3990   47.3890 C.ar  109  TYR109     -0.0198
    137  CD1       35.4900   90.4790   46.5370 C.ar  109  TYR109     -0.0009
    138  CD2       36.4340   89.6810   48.5750 C.ar  109  TYR109     -0.0009
    139  CE1       34.2760   89.8720   46.8500 C.ar  109  TYR109      0.0417
    140  CE2       35.2280   89.0700   48.8980 C.ar  109  TYR109      0.0417
    141  CZ        34.1490   89.1700   48.0310 C.ar  109  TYR109      0.1957
    142  OH        32.9290   88.5770   48.3420 O.3   109  TYR109     -0.2866
    143  N         40.1900  107.1250   59.3670 N.3   157  TRP157     -0.1227
    144  CA        39.4930  105.9300   59.0160 C.3   157  TRP157      0.1737
    145  C         40.3680  104.7350   59.3700 C.2   157  TRP157      0.2595
    146  O         39.8490  103.7450   59.8930 O.2   157  TRP157     -0.2718
    147  CB        39.1990  105.9120   57.5420 C.3   157  TRP157      0.0564
    148  CG        38.5620  104.6780   57.0410 C.ar  157  TRP157      0.0003
    149  CD1       37.2220  104.3520   57.0730 C.ar  157  TRP157      0.0946
    150  CD2       39.2260  103.5690   56.4260 C.ar  157  TRP157      0.0152
    151  NE1       37.0190  103.1220   56.4970 N.ar  157  TRP157     -0.2442
    152  CE2       38.2240  102.6170   56.0910 C.ar  157  TRP157      0.0810
    153  CE3       40.5620  103.2890   56.1170 C.ar  157  TRP157      0.0012
    154  CZ2       38.5250  101.3860   55.4610 C.ar  157  TRP157      0.0191
    155  CZ3       40.8590  102.0660   55.4700 C.ar  157  TRP157      0.0001
    156  CH2       39.8400  101.1400   55.1680 C.ar  157  TRP157      0.0015
    157  N         41.6630  104.8540   59.1200 N.am  158  CYS158     -0.1970
    158  CA        42.5840  103.7480   59.4440 C.3   158  CYS158      0.1712
    159  C         42.5480  103.4510   60.9420 C.2   158  CYS158      0.2296
    160  O         42.4940  102.2870   61.3270 O.2   158  CYS158     -0.2864
    161  CB        44.0150  104.0640   59.0400 C.3   158  CYS158      0.0983
    162  SG        44.2640  104.0180   57.2450 S.3   158  CYS158     -0.0798
    163  N         39.1740  101.7710   61.8520 N.3   161  GLU161     -0.1231
    164  CA        39.1720  100.3530   61.4970 C.3   161  GLU161      0.1699
    165  C         39.8600   99.4860   62.5560 C.2   161  GLU161      0.2592
    166  O         39.3670   98.3810   62.8690 O.2   161  GLU161     -0.2718
    167  CB        39.8350  100.1610   60.1380 C.3   161  GLU161      0.0402
    168  CG        38.9300  100.6370   59.0150 C.3   161  GLU161      0.1161
    169  CD        37.6460   99.8240   58.8750 C.2   161  GLU161      0.3649
    170  OE1       37.6650   98.5600   58.8240 O.co2 161  GLU161     -0.2457
    171  OE2       36.5920  100.4710   58.8140 O.co2 161  GLU161     -0.2457
    172  N         40.9690   99.9660   63.0870 N.am  162  LEU162     -0.1980
    173  CA        41.6830   99.2440   64.1380 C.3   162  LEU162      0.1596
    174  C         40.8740   99.2130   65.4270 C.2   162  LEU162      0.2287
    175  O         40.7300   98.1590   66.0600 O.2   162  LEU162     -0.2864
    176  CB        43.0690   99.8200   64.3670 C.3   162  LEU162      0.0297
    177  CG        44.0550   99.5940   63.1910 C.3   162  LEU162      0.0022
    178  CD1       45.3790  100.2470   63.5310 C.3   162  LEU162      0.0001
    179  CD2       44.2820   98.0920   62.9100 C.3   162  LEU162      0.0001
    180  N         38.1140   96.6930   65.1480 N.3   165  ARG165     -0.1245
    181  CA        38.5740   95.3150   65.2590 C.3   165  ARG165      0.1563
    182  C         38.9440   94.9320   66.6790 C.2   165  ARG165      0.2260
    183  O         38.7990   93.7520   67.0570 O.2   165  ARG165     -0.2867
    184  CB        39.6900   95.0240   64.2640 C.3   165  ARG165      0.0307
    185  CG        39.1370   94.9820   62.8570 C.3   165  ARG165      0.0489
    186  CD        40.1440   94.5480   61.8250 C.3   165  ARG165      0.2205
    187  NE        39.4550   94.3790   60.5550 N.pl3 165  ARG165     -0.0865
    188  CZ        38.7720   95.3430   59.9400 C.cat 165  ARG165      0.5346
    189  NH1       38.6870   96.5530   60.4810 N.pl3 165  ARG165      0.1354
    190  NH2       38.1710   95.0930   58.7860 N.pl3 165  ARG165      0.1354
    191  N         36.1410   88.9860   65.4090 N.3   170  ASN170     -0.1240
    192  CA        36.8370   87.8710   64.7660 C.3   170  ASN170      0.1653
    193  C         37.3680   86.8610   65.8170 C.2   170  ASN170      0.2266
    194  O         38.0020   85.8570   65.4320 O.2   170  ASN170     -0.2867
    195  CB        38.0140   88.4040   63.9170 C.3   170  ASN170      0.1155
    196  CG        37.5440   89.1600   62.6900 C.2   170  ASN170      0.2627
    197  OD1       36.5780   88.7680   62.0260 O.2   170  ASN170     -0.2716
    198  ND2       38.2430   90.2300   62.3680 N.am  170  ASN170     -0.0877
    199  N         50.1080   97.1920   53.6100 N.3   197  MET197     -0.1230
    200  CA        48.9930   97.3830   54.5640 C.3   197  MET197      0.1702
    201  C         49.0240   96.3790   55.7070 C.2   197  MET197      0.2592
    202  O         48.5570   96.6660   56.7840 O.2   197  MET197     -0.2718
    203  CB        47.6450   97.3120   53.8410 C.3   197  MET197      0.0401
    204  CG        47.3490   95.9760   53.1890 C.3   197  MET197      0.0596
    205  SD        45.9410   96.2180   52.0970 S.3   197  MET197     -0.1393
    206  CE        45.4780   94.4990   51.8200 C.3   197  MET197      0.0692
    207  N         49.5660   95.1760   55.4550 N.am  198  ASN198     -0.1960
    208  CA        49.5530   94.1590   56.4870 C.3   198  ASN198      0.1819
    209  C         50.9240   93.5450   56.7810 C.2   198  ASN198      0.2621
    210  O         50.9900   92.5120   57.4270 O.2   198  ASN198     -0.2715
    211  CB        48.4990   93.1040   56.1740 C.3   198  ASN198      0.1195
    212  CG        48.6580   92.5360   54.8160 C.2   198  ASN198      0.2630
    213  OD1       49.7560   92.5130   54.2890 O.2   198  ASN198     -0.2716
    214  ND2       47.5430   92.1720   54.1850 N.am  198  ASN198     -0.0877
    215  N         51.9980   94.2670   56.3950 N.am  199  HIS199     -0.1973
    216  CA        53.3590   93.8570   56.7140 C.3   199  HIS199      0.1656
    217  C         54.0660   94.9840   57.4730 C.2   199  HIS199      0.2291
    218  O         54.7000   95.8720   56.8680 O.2   199  HIS199     -0.2864
    219  CB        54.1610   93.5480   55.4550 C.3   199  HIS199      0.0771
    220  CG        53.7820   92.2540   54.8170 C.ar  199  HIS199      0.0820
    221  ND1       54.3520   91.8290   53.6370 N.ar  199  HIS199     -0.2267
    222  CD2       52.8480   91.3290   55.1380 C.ar  199  HIS199      0.1154
    223  CE1       53.8220   90.6680   53.2850 C.ar  199  HIS199      0.1986
    224  NE2       52.9230   90.3230   54.1940 N.ar  199  HIS199     -0.2212
    225  N         33.6770   97.4690   45.8260 N.3   292  ARG292     -0.1245
    226  CA        33.8710   96.9510   47.1870 C.3   292  ARG292      0.1563
    227  C         34.9370   97.7540   47.9380 C.2   292  ARG292      0.2260
    228  O         34.7460   98.0960   49.1050 O.2   292  ARG292     -0.2867
    229  CB        34.2930   95.4690   47.1530 C.3   292  ARG292      0.0307
    230  CG        34.3540   94.8090   48.5250 C.3   292  ARG292      0.0489
    231  CD        34.6460   93.3130   48.3770 C.3   292  ARG292      0.2205
    232  NE        34.4530   92.5210   49.6000 N.pl3 292  ARG292     -0.0865
    233  CZ        35.4230   92.2100   50.4580 C.cat 292  ARG292      0.5346
    234  NH1       36.6660   92.6350   50.2580 N.pl3 292  ARG292      0.1354
    235  NH2       35.1530   91.4740   51.5290 N.pl3 292  ARG292      0.1354
    236  N         35.9020  103.8480   51.4400 N.3   297  ARG297     -0.1245
    237  CA        37.1420  104.6640   51.3060 C.3   297  ARG297      0.1563
    238  C         36.8350  105.8280   50.3580 C.2   297  ARG297      0.2260
    239  O         37.1140  105.7430   49.1490 O.2   297  ARG297     -0.2867
    240  CB        38.2510  103.7860   50.7510 C.3   297  ARG297      0.0307
    241  CG        38.5590  102.5940   51.6650 C.3   297  ARG297      0.0489
    242  CD        39.5750  101.7250   50.9310 C.3   297  ARG297      0.2205
    243  NE        40.0750  100.6220   51.7380 N.pl3 297  ARG297     -0.0865
    244  CZ        39.3850   99.4990   51.9480 C.cat 297  ARG297      0.5346
    245  NH1       38.2080   99.3200   51.3300 N.pl3 297  ARG297      0.1354
    246  NH2       39.9040   98.5440   52.7030 N.pl3 297  ARG297      0.1354
@<TRIPOS>BOND
     1   134   133    2
     2   129   128    1
     3   129   130    1
     4   128   125    1
     5   133   132    1
     6   125   126    1
     7   125   124    1
     8   130   124    1
     9   131   126   am
    10   131   132    1
    11   225   226    1
    12   126   127    2
    13   124   120   am
    14   132   135    1
    15   137   139   ar
    16   137   136   ar
    17   139   141   ar
    18   135   136    1
    19   120   121    2
    20   120   119    1
    21   229   226    1
    22   229   230    1
    23   113   112    2
    24   226   227    1
    25   136   138   ar
    26   110   111    1
    27   119   118    1
    28   119   122    1
    29   112   111    1
    30   112   118   am
    31   227   228    2
    32   141   142    1
    33   141   140   ar
    34   114   111    1
    35   114   115    1
    36   231   230    1
    37   231   232    1
    38   138   140   ar
    39   122   123    1
    40   239   238    2
    41   115   116    2
    42   115   117   am
    43   232   233    2
    44   234   233    1
    45   238   237    1
    46   233   235    1
    47   240   237    1
    48   240   241    1
    49   242   241    1
    50   242   243    1
    51   237   236    1
    52   245   244    1
    53   243   244    2
    54   206   205    1
    55   244   246    1
    56   205   204    1
    57   108   107   ar
    58   204   203    1
    59   104   103    2
    60   223   221   ar
    61   223   224   ar
    62   107   109   ar
    63   107   106    1
    64   199   200    1
    65   221   220   ar
    66   203   200    1
    67   106   105    1
    68   105   102    1
    69    26    25    2
    70   214   212   am
    71   224   222   ar
    72    30    32   ar
    73    30    28   ar
    74   213   212    2
    75    32    33   ar
    76   103   102    1
    77   102   101    1
    78   200   201    1
    79   212   211    1
    80   220   222   ar
    81   220   219    1
    82    27    28    1
    83    27    24    1
    84   156   154   ar
    85   156   155   ar
    86    25    24    1
    87    99   100   ar
    88    99    97   ar
    89    28    29   ar
    90    70    69    2
    91    78    77    1
    92   207   201   am
    93   207   208    1
    94   219   216    1
    95   154   152   ar
    96   155   153   ar
    97    33    31   ar
    98   100    98   ar
    99    75    77   ar
   100    75    73   ar
   101   201   202    2
   102    24    23    1
   103    77    76   ar
   104   152   150   ar
   105   152   151   ar
   106   153   150   ar
   107   211   208    1
   108    73    72   ar
   109    97    96   ar
   110   215   216    1
   111   215   209   am
   112    29    31   ar
   113   150   148   ar
   114    66    65    2
   115   208   209    1
   116   151   149   ar
   117    69    68    1
   118   216   217    1
   119   209   210    2
   120    98    96   ar
   121   218   217    2
   122   148   149   ar
   123   148   147    1
   124    16    15    1
   125    76    74   ar
   126   162   161    1
   127    23    19   am
   128    15    12    1
   129    90    89    1
   130    96    95    1
   131    68    71    1
   132    68    67    1
   133    72    74   ar
   134    72    71    1
   135   147   144    1
   136    20    19    2
   137    65    67   am
   138    65    64    1
   139    19    18    1
   140    64    63    1
   141    89    88   ar
   142    89    87   ar
   143    12    11    1
   144    12    13    1
   145    95    92    1
   146   190   188    1
   147   171   169   ar
   148   170   169   ar
   149   169   168    1
   150    11     7   am
   151    93    92    1
   152    93    94    2
   153   168   167    1
   154   144   143    1
   155   144   145    1
   156   161   158    1
   157    92    91    1
   158    88    86   ar
   159   157   145   am
   160   157   158    1
   161   145   146    2
   162   158   159    1
   163    22    21    1
   164    18    17    1
   165    18    21    1
   166    87    85   ar
   167    13    14    2
   168     9     6    1
   169     9    10    1
   170   188   189    1
   171   188   187    2
   172     7     6    1
   173     7     8    2
   174   167   164    1
   175     6     5    1
   176    62    61    1
   177    86    84   ar
   178   187   186    1
   179   159   160    2
   180    85    84   ar
   181    60    59    2
   182     4     3    2
   183    84    83    1
   184   164   163    1
   185   164   165    1
   186    55    54    1
   187    61    58    1
   188     5     3   am
   189   186   185    1
   190   197   196    2
   191    59    58    1
   192     3     2    1
   193   198   196   am
   194    58    57    1
   195    57    52   am
   196   165   166    2
   197   165   172   am
   198   196   195    1
   199    83    80    1
   200   185   184    1
   201   179   177    1
   202    82    81    2
   203    54    56    1
   204    54    51    1
   205    81    80    1
   206   172   173    1
   207   177   178    1
   208   177   176    1
   209    41    40    2
   210    51    52    1
   211    51    50    1
   212    52    53    2
   213     2     1    1
   214    80    79    1
   215    46    45    2
   216   195   192    1
   217   173   176    1
   218   173   174    1
   219    40    42   am
   220    40    39    1
   221   184   181    1
   222    50    45   am
   223    45    44    1
   224   192   191    1
   225   192   193    1
   226   180   181    1
   227    38    39    1
   228    38    35    1
   229   181   182    1
   230   174   175    2
   231   194   193    2
   232    44    47    1
   233    44    43    1
   234    47    48    1
   235    37    36    2
   236    36    43   am
   237    36    35    1
   238    43    49    1
   239    35    34    1
   240   182   183    2
   241    49    48    1
