@<TRIPOS>MOLECULE
tmp/4bqpF01.pdb
 104 98 0 0 0
SMALL
GASTEIGER

@<TRIPOS>ATOM
      1  N         62.6080   -2.7750   34.2020 N.3    95  GLY95      -0.1210
      2  CA        62.4670   -3.5360   35.4340 C.3    95  GLY95       0.1956
      3  C         62.8540   -2.7270   36.6520 C.2    95  GLY95       0.2612
      4  O         63.7630   -1.8960   36.5950 O.2    95  GLY95      -0.2717
      5  N         62.1570   -2.9500   37.7430 N.am   96  PHE96      -0.1962
      6  CA        62.4410   -2.2970   39.0170 C.3    96  PHE96       0.1771
      7  C         61.8240   -3.0650   40.1550 C.2    96  PHE96       0.2619
      8  O         60.6800   -3.5150   40.0560 O.2    96  PHE96      -0.2715
      9  CB        61.9530   -0.8330   39.0510 C.3    96  PHE96       0.0574
     10  CG        62.1160   -0.1550   40.3960 C.ar   96  PHE96      -0.0200
     11  CD1       63.3690    0.2680   40.8370 C.ar   96  PHE96      -0.0042
     12  CD2       61.0240    0.0280   41.2410 C.ar   96  PHE96      -0.0042
     13  CE1       63.5200    0.8760   42.0950 C.ar   96  PHE96      -0.0003
     14  CE2       61.1790    0.6430   42.4890 C.ar   96  PHE96      -0.0003
     15  CZ        62.4230    1.0630   42.9040 C.ar   96  PHE96      -0.0000
     16  N         62.5710   -3.1310   41.2610 N.am   97  MET97      -0.1977
     17  CA        62.1070   -3.6880   42.5120 C.3    97  MET97       0.1605
     18  C         62.8020   -2.9710   43.6710 C.2    97  MET97       0.2287
     19  O         64.0360   -2.9540   43.7290 O.2    97  MET97      -0.2864
     20  CB        62.2580   -5.2170   42.5930 C.3    97  MET97       0.0413
     21  CG        61.5980   -5.8370   43.8150 C.3    97  MET97       0.0598
     22  SD        59.7940   -5.5920   43.9720 S.3    97  MET97      -0.1393
     23  CE        59.1840   -6.7730   42.6650 C.3    97  MET97       0.0692
     24  N         64.4810   -2.1360   47.3890 N.3    99  GLN99      -0.1245
     25  CA        65.4230   -2.8860   48.2370 C.3    99  GLN99       0.1566
     26  C         64.7300   -3.7340   49.3270 C.2    99  GLN99       0.2260
     27  O         65.3370   -4.6560   49.8690 O.2    99  GLN99      -0.2867
     28  CB        66.4830   -1.9520   48.8490 C.3    99  GLN99       0.0367
     29  CG        67.5950   -2.7130   49.5170 C.3    99  GLN99       0.0905
     30  CD        68.4650   -3.4390   48.5130 C.2    99  GLN99       0.2608
     31  OE1       68.9370   -2.8920   47.4920 O.2    99  GLN99      -0.2717
     32  NE2       68.6930   -4.7290   48.7570 N.am   99  GLN99      -0.0878
     33  N         64.0350   -6.9720   47.0880 N.3   102  MET102     -0.1230
     34  CA        65.1410   -7.5670   46.3280 C.3   102  MET102      0.1702
     35  C         66.4530   -7.2280   47.0370 C.2   102  MET102      0.2592
     36  O         66.8480   -6.0540   47.0680 O.2   102  MET102     -0.2718
     37  CB        65.1350   -7.0460   44.8630 C.3   102  MET102      0.0401
     38  CG        66.2050   -7.6570   43.9670 C.3   102  MET102      0.0596
     39  SD        66.3010   -6.8250   42.3600 S.3   102  MET102     -0.1393
     40  CE        67.4020   -7.9070   41.4910 C.3   102  MET102      0.0692
     41  N         67.0940   -8.2390   47.6210 N.am  103  GLY103     -0.1957
     42  CA        68.3580   -8.0400   48.3190 C.3   103  GLY103      0.1869
     43  C         68.5470   -8.8600   49.5710 C.2   103  GLY103      0.2309
     44  O         68.4270  -10.0920   49.5410 O.2   103  GLY103     -0.2863
     45  N         64.3630  -12.8200   33.4780 N.3   148  PHE148     -0.1241
     46  CA        65.3660  -13.5390   34.2590 C.3   148  PHE148      0.1605
     47  C         64.6590  -14.7770   34.8120 C.2   148  PHE148      0.2264
     48  O         63.7160  -14.6520   35.6180 O.2   148  PHE148     -0.2867
     49  CB        65.9820  -12.6820   35.3690 C.3   148  PHE148      0.0534
     50  CG        67.1980  -13.3270   35.9990 C.ar  148  PHE148     -0.0203
     51  CD1       68.3270  -13.6100   35.2370 C.ar  148  PHE148     -0.0042
     52  CD2       67.2020  -13.6800   37.3430 C.ar  148  PHE148     -0.0042
     53  CE1       69.4520  -14.2100   35.8160 C.ar  148  PHE148     -0.0003
     54  CE2       68.3210  -14.2940   37.9160 C.ar  148  PHE148     -0.0003
     55  CZ        69.4440  -14.5390   37.1530 C.ar  148  PHE148     -0.0000
     56  N         68.5390  -13.5460   47.2560 N.3   156  ALA156     -0.1231
     57  CA        68.6660  -12.1570   46.8190 C.3   156  ALA156      0.1694
     58  C         67.5950  -11.6210   45.8700 C.2   156  ALA156      0.2592
     59  O         67.1510  -10.4840   46.0670 O.2   156  ALA156     -0.2718
     60  CB        70.0680  -11.8860   46.2650 C.3   156  ALA156      0.0304
     61  N         67.1740  -12.4070   44.8470 N.am  157  TYR157     -0.1976
     62  CA        66.2000  -11.9210   43.8530 C.3   157  TYR157      0.1639
     63  C         64.8030  -11.7390   44.3770 C.2   157  TYR157      0.2290
     64  O         64.1450  -10.7580   44.0290 O.2   157  TYR157     -0.2864
     65  CB        66.2580  -12.7320   42.5660 C.3   157  TYR157      0.0560
     66  CG        67.5370  -12.4830   41.7950 C.ar  157  TYR157     -0.0198
     67  CD1       68.7380  -13.0650   42.1930 C.ar  157  TYR157     -0.0009
     68  CD2       67.5610  -11.6170   40.7060 C.ar  157  TYR157     -0.0009
     69  CE1       69.9230  -12.8190   41.5060 C.ar  157  TYR157      0.0417
     70  CE2       68.7480  -11.3520   40.0190 C.ar  157  TYR157      0.0417
     71  CZ        69.9250  -11.9680   40.4200 C.ar  157  TYR157      0.1957
     72  OH        71.1070  -11.7370   39.7590 O.3   157  TYR157     -0.2866
     73  N         61.6640   -9.8740   42.9080 N.3   160  MET160     -0.1245
     74  CA        61.9740   -9.6270   41.4900 C.3   160  MET160      0.1570
     75  C         61.6770  -10.9110   40.6420 C.2   160  MET160      0.2261
     76  O         61.2120  -10.8090   39.5030 O.2   160  MET160     -0.2867
     77  CB        63.4190   -9.1010   41.3010 C.3   160  MET160      0.0387
     78  CG        63.7760   -8.7170   39.8360 C.3   160  MET160      0.0595
     79  SD        62.4590   -7.8280   38.9300 S.3   160  MET160     -0.1393
     80  CE        63.4210   -6.8270   37.8510 C.3   160  MET160      0.0692
     81  N         58.9900  -11.4690   37.6670 N.3   164  LYS164     -0.1245
     82  CA        59.3590  -12.1260   36.3970 C.3   164  LYS164      0.1561
     83  C         58.4110  -13.2690   36.0620 C.2   164  LYS164      0.2260
     84  O         58.0970  -13.4870   34.8870 O.2   164  LYS164     -0.2867
     85  CB        60.8250  -12.6140   36.4020 C.3   164  LYS164      0.0271
     86  CG        61.8760  -11.4910   36.3930 C.3   164  LYS164      0.0035
     87  CD        61.7830  -10.5540   35.1640 C.3   164  LYS164      0.0206
     88  CE        62.8730   -9.5020   35.1930 C.3   164  LYS164      0.1093
     89  NZ        62.6900   -8.5130   34.1110 N.3   164  LYS164     -0.1314
     90  N         73.8290  -10.1020   33.8570 N.3   193  ILE193     -0.1245
     91  CA        74.6290   -9.0930   33.1680 C.3   193  ILE193      0.1561
     92  C         75.0660   -8.0290   34.1660 C.2   193  ILE193      0.2260
     93  O         74.2340   -7.5240   34.9300 O.2   193  ILE193     -0.2867
     94  CB        73.8900   -8.5100   31.9320 C.3   193  ILE193      0.0252
     95  CG1       73.6470   -9.5930   30.8370 C.3   193  ILE193      0.0019
     96  CG2       74.6000   -7.2420   31.3520 C.3   193  ILE193      0.0019
     97  CD1       74.9590  -10.2090   30.1220 C.3   193  ILE193      0.0001
     98  N         75.2580   -5.0080   35.3380 N.3   195  THR195     -0.1218
     99  CA        74.6400   -3.6760   35.3040 C.3   195  THR195      0.1862
    100  C         74.6010   -3.1220   36.7250 C.2   195  THR195      0.2287
    101  O         75.5200   -2.4230   37.1360 O.2   195  THR195     -0.2866
    102  CB        73.2380   -3.6980   34.6530 C.3   195  THR195      0.1770
    103  OG1       73.2590   -4.4500   33.4410 O.3   195  THR195     -0.2211
    104  CG2       72.7120   -2.2900   34.3500 C.3   195  THR195      0.0375
@<TRIPOS>BOND
     1    97    95    1
     2    95    94    1
     3    96    94    1
     4    94    91    1
     5    91    90    1
     6    91    92    1
     7   103   102    1
     8    45    46    1
     9    89    88    1
    10    92    93    2
    11     1     2    1
    12    46    47    1
    13    46    49    1
    14   104   102    1
    15   102    99    1
    16    47    48    2
    17    84    83    2
    18    87    88    1
    19    87    86    1
    20    51    53   ar
    21    51    50   ar
    22    99    98    1
    23    99   100    1
    24    49    50    1
    25     2     3    1
    26    53    55   ar
    27    50    52   ar
    28    83    82    1
    29    86    85    1
    30    82    85    1
    31    82    81    1
    32     4     3    2
    33     3     5   am
    34   100   101    2
    35    55    54   ar
    36    52    54   ar
    37     5     6    1
    38    80    79    1
    39    79    78    1
    40     6     9    1
    41     6     7    1
    42     9    10    1
    43    76    75    2
    44    72    71    1
    45    78    77    1
    46    70    71   ar
    47    70    68   ar
    48     8     7    2
    49     7    16   am
    50    10    11   ar
    51    10    12   ar
    52    71    69   ar
    53    75    74    1
    54    68    66   ar
    55    11    13   ar
    56    12    14   ar
    57    16    17    1
    58    77    74    1
    59    74    73    1
    60    40    39    1
    61    69    67   ar
    62    66    67   ar
    63    66    65    1
    64    13    15   ar
    65    39    38    1
    66    14    15   ar
    67    17    20    1
    68    17    18    1
    69    65    62    1
    70    20    21    1
    71    23    22    1
    72    18    19    2
    73    21    22    1
    74    62    63    1
    75    62    61    1
    76    38    37    1
    77    64    63    2
    78    61    58   am
    79    37    34    1
    80    58    59    2
    81    58    57    1
    82    60    57    1
    83    34    35    1
    84    34    33    1
    85    57    56    1
    86    35    36    2
    87    35    41   am
    88    24    25    1
    89    31    30    2
    90    41    42    1
    91    25    28    1
    92    25    26    1
    93    42    43    1
    94    30    32   am
    95    30    29    1
    96    28    29    1
    97    26    27    2
    98    44    43    2
