@<TRIPOS>MOLECULE
tmp/4bqrC01.pdb
 117 114 0 0 0
SMALL
GASTEIGER

@<TRIPOS>ATOM
      1  N          3.0350    8.2130   -1.4800 N.3    95  GLY95      -0.1210
      2  CA         3.4020    9.0940   -0.4090 C.3    95  GLY95       0.1956
      3  C          3.3370   10.5240   -0.8560 C.2    95  GLY95       0.2612
      4  O          3.6930   10.8310   -1.9890 O.2    95  GLY95      -0.2717
      5  N          2.8720   11.3930    0.0340 N.am   96  PHE96      -0.1962
      6  CA         2.8190   12.8080   -0.2390 C.3    96  PHE96       0.1771
      7  C          2.7140   13.5870    1.0630 C.2    96  PHE96       0.2619
      8  O          2.0610   13.1630    1.9890 O.2    96  PHE96      -0.2715
      9  CB         1.6360   13.1700   -1.1530 C.3    96  PHE96       0.0574
     10  CG         1.5750   14.6330   -1.4780 C.ar   96  PHE96      -0.0200
     11  CD1        2.5810   15.2350   -2.2380 C.ar   96  PHE96      -0.0042
     12  CD2        0.5510   15.4250   -0.9980 C.ar   96  PHE96      -0.0042
     13  CE1        2.5560   16.5970   -2.5220 C.ar   96  PHE96      -0.0003
     14  CE2        0.5100   16.7840   -1.2850 C.ar   96  PHE96      -0.0003
     15  CZ         1.5230   17.3650   -2.0400 C.ar   96  PHE96      -0.0000
     16  N          3.3660   14.7380    1.1150 N.am   97  MET97      -0.1964
     17  CA         3.2090   15.6640    2.2120 C.3    97  MET97       0.1722
     18  C          3.3450   17.0580    1.6160 C.2    97  MET97       0.2458
     19  O          4.3630   17.3460    1.0280 O.2    97  MET97      -0.2730
     20  CB         4.2870   15.4210    3.2810 C.3    97  MET97       0.0427
     21  CG         4.2490   16.4030    4.4410 C.3    97  MET97       0.0599
     22  SD         2.7310   16.2740    5.4040 S.3    97  MET97      -0.1393
     23  CE         2.9100   14.5930    6.0160 C.3    97  MET97       0.0692
     24  N          2.3210   17.9180    1.7560 N.am   98  PRO98      -0.2716
     25  CA         2.3870   19.2850    1.2120 C.3    98  PRO98       0.1536
     26  C          3.6260   20.0510    1.6360 C.2    98  PRO98       0.2598
     27  O          4.1510   19.8180    2.7250 O.2    98  PRO98      -0.2715
     28  CB         1.1310   19.9470    1.7850 C.3    98  PRO98       0.0310
     29  CG         0.1590   18.8210    1.8810 C.3    98  PRO98       0.0237
     30  CD         0.9800   17.6160    2.2870 C.3    98  PRO98       0.0939
     31  N          4.0660   20.9780    0.7830 N.am   99  GLN99      -0.1978
     32  CA         5.3220   21.7100    0.9900 C.3    99  GLN99       0.1601
     33  C          5.4150   22.4490    2.3470 C.2    99  GLN99       0.2287
     34  O          6.5200   22.7650    2.7860 O.2    99  GLN99      -0.2864
     35  CB         5.6040   22.6730   -0.1900 C.3    99  GLN99       0.0394
     36  CG         6.9900   23.2540   -0.1320 C.3    99  GLN99       0.0908
     37  CD         8.0520   22.2120   -0.4130 C.2    99  GLN99       0.2608
     38  OE1        8.0060   21.4320   -1.3900 O.2    99  GLN99      -0.2717
     39  NE2        9.0520   22.1420    0.4630 N.am   99  GLN99      -0.0878
     40  N          7.0400   19.5880    4.5110 N.3   102  MET102     -0.1245
     41  CA         8.3220   19.1060    3.9860 C.3   102  MET102      0.1570
     42  C          9.0870   20.2660    3.3720 C.2   102  MET102      0.2261
     43  O          8.4900   21.1050    2.7050 O.2   102  MET102     -0.2867
     44  CB         8.0930   18.0830    2.8770 C.3   102  MET102      0.0387
     45  CG         8.3300   16.6460    3.2670 C.3   102  MET102      0.0595
     46  SD         8.6400   15.6070    1.8250 S.3   102  MET102     -0.1393
     47  CE        10.3520   16.0220    1.5250 C.3   102  MET102      0.0692
     48  N          8.9760    2.7950    2.9400 N.3   147  ASP147     -0.1225
     49  CA         9.2760    3.5150    4.1890 C.3   147  ASP147      0.1805
     50  C         10.5520    4.3640    3.9680 C.2   147  ASP147      0.2597
     51  O         11.3410    4.0750    3.0580 O.2   147  ASP147     -0.2718
     52  CB         9.4870    2.4550    5.2800 C.3   147  ASP147      0.1424
     53  CG         9.5620    3.0160    6.6750 C.2   147  ASP147      0.3668
     54  OD1        9.1530    4.1760    6.9070 O.co2 147  ASP147     -0.2456
     55  OD2       10.0530    2.2710    7.5590 O.co2 147  ASP147     -0.2456
     56  N         10.7180    5.4170    4.7680 N.am  148  PHE148     -0.1976
     57  CA        11.9960    6.1480    4.9220 C.3   148  PHE148      0.1639
     58  C         12.2430    6.2390    6.4300 C.2   148  PHE148      0.2290
     59  O         11.4080    6.7760    7.1380 O.2   148  PHE148     -0.2864
     60  CB        11.8950    7.5480    4.2630 C.3   148  PHE148      0.0560
     61  CG        13.1880    8.3320    4.2560 C.ar  148  PHE148     -0.0200
     62  CD1       14.3410    7.8400    3.6320 C.ar  148  PHE148     -0.0042
     63  CD2       13.2500    9.5740    4.8610 C.ar  148  PHE148     -0.0042
     64  CE1       15.5300    8.5720    3.6230 C.ar  148  PHE148     -0.0003
     65  CE2       14.4360   10.3090    4.8640 C.ar  148  PHE148     -0.0003
     66  CZ        15.5790    9.8100    4.2510 C.ar  148  PHE148     -0.0000
     67  N         12.8110   16.9290    6.1650 N.3   157  TYR157     -0.1241
     68  CA        11.7740   15.9180    6.0340 C.3   157  TYR157      0.1605
     69  C         10.5690   16.1280    6.9680 C.2   157  TYR157      0.2264
     70  O          9.4500   15.7790    6.6190 O.2   157  TYR157     -0.2867
     71  CB        12.3760   14.5250    6.2120 C.3   157  TYR157      0.0534
     72  CG        13.0920   14.0550    4.9750 C.ar  157  TYR157     -0.0201
     73  CD1       12.3890   13.4510    3.9460 C.ar  157  TYR157     -0.0009
     74  CD2       14.4690   14.2390    4.8140 C.ar  157  TYR157     -0.0009
     75  CE1       13.0300   13.0210    2.8020 C.ar  157  TYR157      0.0417
     76  CE2       15.1210   13.8130    3.6620 C.ar  157  TYR157      0.0417
     77  CZ        14.3900   13.2080    2.6590 C.ar  157  TYR157      0.1957
     78  OH        14.9840   12.7660    1.5050 O.3   157  TYR157     -0.2866
     79  N          6.7630   14.7070    6.9440 N.3   160  MET160     -0.1245
     80  CA         6.8320   13.4630    6.2220 C.3   160  MET160      0.1570
     81  C          7.5030   12.3920    7.0840 C.2   160  MET160      0.2261
     82  O          7.1210   11.2480    7.0230 O.2   160  MET160     -0.2867
     83  CB         7.5520   13.6000    4.8580 C.3   160  MET160      0.0387
     84  CG         7.7300   12.2650    4.1320 C.3   160  MET160      0.0595
     85  SD         6.1370   11.5840    3.6550 S.3   160  MET160     -0.1393
     86  CE         6.4090    9.9070    3.1890 C.3   160  MET160      0.0692
     87  N          5.8050    8.8630    8.1470 N.3   164  LYS164     -0.1245
     88  CA         6.4240    7.5200    8.0050 C.3   164  LYS164      0.1561
     89  C          6.4750    6.7510    9.3490 C.2   164  LYS164      0.2260
     90  O          6.4290    5.5250    9.3940 O.2   164  LYS164     -0.2867
     91  CB         7.8300    7.6240    7.4070 C.3   164  LYS164      0.0271
     92  CG         7.9560    8.0530    5.9390 C.3   164  LYS164      0.0035
     93  CD         7.0870    7.2290    5.0040 C.3   164  LYS164      0.0206
     94  CE         7.5820    7.2170    3.5610 C.3   164  LYS164      0.1093
     95  NZ         6.6350    6.5110    2.6380 N.3   164  LYS164     -0.1314
     96  N         17.7000    7.4140    0.2970 N.3   192  PRO192     -0.2102
     97  CA        17.1720    8.4570   -0.5900 C.3   192  PRO192      0.1504
     98  C         17.4290    8.1900   -2.0840 C.2   192  PRO192      0.2575
     99  O         18.5480    7.9090   -2.4740 O.2   192  PRO192     -0.2718
    100  CB        17.8950    9.7280   -0.1180 C.3   192  PRO192      0.0282
    101  CG        19.1480    9.2510    0.5040 C.3   192  PRO192      0.0208
    102  CD        18.8580    7.8820    1.0790 C.3   192  PRO192      0.0893
    103  N         16.3810    8.2490   -2.8930 N.am  193  ILE193     -0.1980
    104  CA        16.4610    7.9370   -4.3250 C.3   193  ILE193      0.1595
    105  C         16.0790    9.1950   -5.1070 C.2   193  ILE193      0.2287
    106  O         15.0970    9.8500   -4.7770 O.2   193  ILE193     -0.2864
    107  CB        15.5210    6.7810   -4.7170 C.3   193  ILE193      0.0276
    108  CG1       15.9430    5.4750   -4.0500 C.3   193  ILE193      0.0022
    109  CG2       15.5000    6.5730   -6.2280 C.3   193  ILE193      0.0022
    110  CD1       17.2890    4.9510   -4.5080 C.3   193  ILE193      0.0001
    111  N         14.3680   10.3360   -7.6330 N.3   195  THR195     -0.1218
    112  CA        13.2110   10.2090   -8.5370 C.3   195  THR195      0.1862
    113  C         12.8620   11.5720   -9.1640 C.2   195  THR195      0.2287
    114  O         13.5150   12.0350  -10.1110 O.2   195  THR195     -0.2866
    115  CB        11.9340    9.6930   -7.8050 C.3   195  THR195      0.1770
    116  OG1       11.4580   10.6850   -6.8910 O.3   195  THR195     -0.2211
    117  CG2       12.1860    8.4010   -7.0490 C.3   195  THR195      0.0375
@<TRIPOS>BOND
     1   114   113    2
     2   113   112    1
     3   112   115    1
     4   112   111    1
     5   115   117    1
     6   115   116    1
     7   109   107    1
     8   105   106    2
     9   105   104    1
    10   107   104    1
    11   107   108    1
    12   110   108    1
    13   104   103    1
    14   103    98   am
    15    13    11   ar
    16    13    15   ar
    17    99    98    2
    18    11    10   ar
    19    98    97    1
    20    15    14   ar
    21     4     3    2
    22     1     2    1
    23    10     9    1
    24    10    12   ar
    25    38    37    2
    26    14    12   ar
    27     9     6    1
    28     3     2    1
    29     3     5   am
    30    97   100    1
    31    97    96    1
    32    37    36    1
    33    37    39   am
    34     6     5    1
    35     6     7    1
    36    35    36    1
    37    35    32    1
    38   100   101    1
    39    96   102    1
    40   101   102    1
    41    31    32    1
    42    31    26   am
    43    32    33    1
    44    19    18    2
    45     7    16   am
    46     7     8    2
    47    16    17    1
    48    25    26    1
    49    25    24    1
    50    25    28    1
    51    78    77    1
    52    47    46    1
    53    18    24   am
    54    18    17    1
    55    26    27    2
    56    24    30    1
    57    28    29    1
    58    46    45    1
    59    29    30    1
    60    17    20    1
    61    33    34    2
    62    95    94    1
    63    77    75   ar
    64    77    76   ar
    65    43    42    2
    66    75    73   ar
    67    44    45    1
    68    44    41    1
    69    48    49    1
    70    51    50    2
    71    86    85    1
    72    20    21    1
    73    42    41    1
    74    94    93    1
    75    64    62   ar
    76    64    66   ar
    77    62    61   ar
    78    85    84    1
    79    76    74   ar
    80    73    72   ar
    81    50    49    1
    82    50    56   am
    83    41    40    1
    84    84    83    1
    85    49    52    1
    86    66    65   ar
    87    61    60    1
    88    61    63   ar
    89    60    57    1
    90    21    22    1
    91    56    57    1
    92    74    72   ar
    93    83    80    1
    94    63    65   ar
    95    57    58    1
    96    72    71    1
    97    93    92    1
    98    52    53    1
    99    22    23    1
   100    92    91    1
   101    68    67    1
   102    68    71    1
   103    68    69    1
   104    80    79    1
   105    80    81    1
   106    58    59    2
   107    70    69    2
   108    53    54   ar
   109    53    55   ar
   110    82    81    2
   111    91    88    1
   112    88    87    1
   113    88    89    1
   114    89    90    2
