@<TRIPOS>MOLECULE
tmp/4bqrD01.pdb
 115 110 0 0 0
SMALL
GASTEIGER

@<TRIPOS>ATOM
      1  N         34.8160    0.3250   33.3480 N.3    95  GLY95      -0.1210
      2  CA        34.9070   -0.0220   31.9470 C.3    95  GLY95       0.1956
      3  C         36.3530   -0.1070   31.4770 C.2    95  GLY95       0.2612
      4  O         37.1740    0.7340   31.8060 O.2    95  GLY95      -0.2717
      5  N         36.6680   -1.1480   30.7200 N.am   96  PHE96      -0.1962
      6  CA        37.9960   -1.2680   30.1730 C.3    96  PHE96       0.1771
      7  C         38.0070   -2.1500   28.9300 C.2    96  PHE96       0.2619
      8  O         37.3980   -3.2040   28.9300 O.2    96  PHE96      -0.2715
      9  CB        38.9560   -1.8200   31.2320 C.3    96  PHE96       0.0574
     10  CG        40.3350   -2.0980   30.7000 C.ar   96  PHE96      -0.0200
     11  CD1       41.1730   -1.0500   30.3100 C.ar   96  PHE96      -0.0042
     12  CD2       40.7840   -3.3980   30.5640 C.ar   96  PHE96      -0.0042
     13  CE1       42.4370   -1.3050   29.8150 C.ar   96  PHE96      -0.0003
     14  CE2       42.0520   -3.6540   30.0620 C.ar   96  PHE96      -0.0003
     15  CZ        42.8720   -2.6120   29.6790 C.ar   96  PHE96      -0.0000
     16  N         38.6690   -1.6910   27.8720 N.am   97  MET97      -0.1964
     17  CA        39.0050   -2.5560   26.7370 C.3    97  MET97       0.1722
     18  C         40.4770   -2.3200   26.3720 C.2    97  MET97       0.2458
     19  O         40.8690   -1.1710   26.1650 O.2    97  MET97      -0.2730
     20  CB        38.0980   -2.2360   25.5430 C.3    97  MET97       0.0427
     21  CG        38.2540   -3.1630   24.3520 C.3    97  MET97       0.0599
     22  SD        37.9810   -4.9120   24.6830 S.3    97  MET97      -0.1393
     23  CE        36.2280   -4.8900   25.0850 C.3    97  MET97       0.0692
     24  N         41.2950   -3.3880   26.3050 N.am   98  PRO98      -0.2716
     25  CA        42.7000   -3.1890   25.8710 C.3    98  PRO98       0.1536
     26  C         42.7870   -2.5810   24.4720 C.2    98  PRO98       0.2598
     27  O         41.8380   -2.7420   23.6900 O.2    98  PRO98      -0.2715
     28  CB        43.2740   -4.6110   25.8960 C.3    98  PRO98       0.0310
     29  CG        42.4880   -5.3000   26.9490 C.3    98  PRO98       0.0237
     30  CD        41.0890   -4.7490   26.8530 C.3    98  PRO98       0.0939
     31  N         43.8890   -1.8790   24.1630 N.am   99  GLN99      -0.1978
     32  CA        44.0270   -1.1510   22.8750 C.3    99  GLN99       0.1601
     33  C         43.9160   -2.0740   21.6590 C.2    99  GLN99       0.2287
     34  O         43.5510   -1.6040   20.5780 O.2    99  GLN99      -0.2864
     35  CB        45.3340   -0.3280   22.7890 C.3    99  GLN99       0.0394
     36  CG        45.3450    0.7980   21.7330 C.3    99  GLN99       0.0908
     37  CD        45.4190    0.3310   20.2510 C.2    99  GLN99       0.2608
     38  OE1       44.7600    0.9100   19.3640 O.2    99  GLN99      -0.2717
     39  NE2       46.2230   -0.7040   19.9790 N.am   99  GLN99      -0.0878
     40  N         40.1790   -1.5560   21.0010 N.3   102  MET102     -0.1196
     41  CA        39.6690   -0.1860   20.9850 C.3   102  MET102      0.1786
     42  C         40.7850    0.6810   20.4470 C.2   102  MET102      0.2306
     43  O         41.9100    0.5380   20.8900 O.2   102  MET102     -0.2863
     44  CB        39.3910    0.2780   22.4250 C.2   102  MET102      0.0070
     45  CG        38.0950    1.0390   22.6250 C.2   102  MET102      0.0282
     46  SD        37.9070    1.8400   24.2410 S.3   102  MET102     -0.1125
     47  CE        37.3650    3.4650   23.7060 C.3   102  MET102      0.0742
     48  N         27.5770    3.5410   26.7820 N.3   148  PHE148     -0.1241
     49  CA        27.8430    4.4120   25.6530 C.3   148  PHE148      0.1605
     50  C         27.1130    3.7480   24.5140 C.2   148  PHE148      0.2264
     51  O         27.4040    2.5700   24.2010 O.2   148  PHE148     -0.2867
     52  CB        29.3410    4.4420   25.3560 C.3   148  PHE148      0.0534
     53  CG        29.7200    5.3940   24.2870 C.ar  148  PHE148     -0.0203
     54  CD1       29.4650    6.7570   24.4280 C.ar  148  PHE148     -0.0042
     55  CD2       30.3210    4.9550   23.1420 C.ar  148  PHE148     -0.0042
     56  CE1       29.8240    7.6610   23.4400 C.ar  148  PHE148     -0.0003
     57  CE2       30.6900    5.8540   22.1450 C.ar  148  PHE148     -0.0003
     58  CZ        30.4410    7.2100   22.2950 C.ar  148  PHE148     -0.0000
     59  N         35.8730    2.6260   18.4230 N.3   157  TYR157     -0.1241
     60  CA        35.3050    1.9900   19.6350 C.3   157  TYR157      0.1605
     61  C         35.2520    0.4750   19.5640 C.2   157  TYR157      0.2264
     62  O         35.3850   -0.1820   20.5910 O.2   157  TYR157     -0.2867
     63  CB        33.9280    2.5670   19.9900 C.3   157  TYR157      0.0534
     64  CG        34.0560    3.9810   20.5370 C.ar  157  TYR157     -0.0201
     65  CD1       34.2370    5.0670   19.6950 C.ar  157  TYR157     -0.0009
     66  CD2       34.0350    4.2130   21.9020 C.ar  157  TYR157     -0.0009
     67  CE1       34.3920    6.3800   20.2080 C.ar  157  TYR157      0.0417
     68  CE2       34.1910    5.4940   22.4300 C.ar  157  TYR157      0.0417
     69  CZ        34.3670    6.5760   21.5970 C.ar  157  TYR157      0.1957
     70  OH        34.4990    7.8290   22.1700 O.3   157  TYR157     -0.2866
     71  N         34.7690   -2.3190   22.3950 N.3   160  MET160     -0.1245
     72  CA        34.1360   -1.7070   23.5640 C.3   160  MET160      0.1570
     73  C         32.6490   -1.4930   23.2680 C.2   160  MET160      0.2261
     74  O         31.8070   -1.6280   24.1670 O.2   160  MET160     -0.2867
     75  CB        34.8250   -0.3820   23.9560 C.3   160  MET160      0.0387
     76  CG        34.2090    0.3760   25.1300 C.3   160  MET160      0.0595
     77  SD        34.3120   -0.4370   26.7140 S.3   160  MET160     -0.1393
     78  CE        32.7180   -1.1880   26.8480 C.3   160  MET160      0.0692
     79  N         29.5740   -2.8920   25.4230 N.3   164  LYS164     -0.1245
     80  CA        28.4490   -2.0710   25.8530 C.3   164  LYS164      0.1561
     81  C         27.1260   -2.7130   25.3970 C.2   164  LYS164      0.2260
     82  O         26.0880   -2.5860   26.0810 O.2   164  LYS164     -0.2867
     83  CB        28.5760   -0.6360   25.3540 C.3   164  LYS164      0.0271
     84  CG        29.6590    0.2390   26.0080 C.3   164  LYS164      0.0035
     85  CD        29.6910    0.1440   27.5310 C.3   164  LYS164      0.0206
     86  CE        30.6350    1.1500   28.1530 C.3   164  LYS164      0.1093
     87  NZ        30.7200    1.1590   29.6560 N.3   164  LYS164     -0.1314
     88  N         37.5150   12.4530   29.7000 N.3   195  THR195     -0.1218
     89  CA        38.2340   11.8220   30.8100 C.3   195  THR195      0.1862
     90  C         39.6920   11.5780   30.3760 C.2   195  THR195      0.2287
     91  O         40.0950   12.0600   29.3200 O.2   195  THR195     -0.2866
     92  CB        37.5790   10.4770   31.2350 C.3   195  THR195      0.1770
     93  OG1       37.5520    9.5680   30.1220 O.3   195  THR195     -0.2211
     94  CG2       36.1650   10.6890   31.7450 C.3   195  THR195      0.0375
     95  N         41.7400    8.9110   29.3050 N.3   197  ALA197     -0.1231
     96  CA        41.9780    8.2000   28.0480 C.3   197  ALA197      0.1694
     97  C         41.4940    8.9820   26.8050 C.2   197  ALA197      0.2591
     98  O         42.1670    8.9800   25.7730 O.2   197  ALA197     -0.2718
     99  CB        41.3450    6.8170   28.1010 C.3   197  ALA197      0.0304
    100  N         40.3580    9.6700   26.9170 N.am  198  MET198     -0.1979
    101  CA        39.8320   10.4780   25.8070 C.3   198  MET198      0.1605
    102  C         40.6750   11.7230   25.5010 C.2   198  MET198      0.2287
    103  O         40.9390   12.0030   24.3300 O.2   198  MET198     -0.2864
    104  CB        38.3670   10.8630   26.0640 C.3   198  MET198      0.0413
    105  CG        37.4470    9.6440   26.0960 C.3   198  MET198      0.0598
    106  SD        37.0140    8.9700   24.4720 S.3   198  MET198     -0.1393
    107  CE        36.0660   10.3260   23.7720 C.3   198  MET198      0.0692
    108  N         43.8350   10.6660   23.5310 N.3   201  ILE201     -0.1245
    109  CA        43.5750   10.3900   22.1160 C.3   201  ILE201      0.1561
    110  C         43.4200   11.6620   21.2870 C.2   201  ILE201      0.2260
    111  O         43.9320   11.7270   20.1650 O.2   201  ILE201     -0.2867
    112  CB        42.3180    9.5070   21.9130 C.3   201  ILE201      0.0252
    113  CG1       42.4780    8.1450   22.5970 C.3   201  ILE201      0.0019
    114  CG2       42.0650    9.3000   20.4280 C.3   201  ILE201      0.0019
    115  CD1       41.2430    7.2600   22.5490 C.3   201  ILE201      0.0001
@<TRIPOS>BOND
     1    59    60    1
     2    38    37    2
     3    61    60    1
     4    61    62    2
     5    60    63    1
     6    65    67   ar
     7    65    64   ar
     8    39    37   am
     9    63    64    1
    10   111   110    2
    11    67    69   ar
    12    37    36    1
    13   114   112    1
    14    42    43    2
    15    42    41    1
    16    64    66   ar
    17    34    33    2
    18    41    40    1
    19    41    44    1
    20   110   109    1
    21    69    70    1
    22    69    68   ar
    23    33    32    1
    24    36    35    1
    25    66    68   ar
    26   112   109    1
    27   112   113    1
    28   109   108    1
    29    57    58   ar
    30    57    55   ar
    31    58    56   ar
    32    71    72    1
    33    44    45    2
    34   115   113    1
    35    45    46    1
    36    35    32    1
    37    32    31    1
    38    55    53   ar
    39    73    72    1
    40    73    74    2
    41    56    54   ar
    42    72    75    1
    43    27    26    2
    44    47    46    1
    45   107   106    1
    46    75    76    1
    47    31    26   am
    48    51    50    2
    49    53    54   ar
    50    53    52    1
    51   103   102    2
    52    21    22    1
    53    21    20    1
    54    26    25    1
    55   106   105    1
    56    50    49    1
    57    22    23    1
    58    76    77    1
    59    83    80    1
    60    83    84    1
    61    52    49    1
    62    81    80    1
    63    81    82    2
    64    79    80    1
    65   102   101    1
    66    20    17    1
    67    49    48    1
    68    98    97    2
    69   101   104    1
    70   101   100    1
    71    25    28    1
    72    25    24    1
    73    28    29    1
    74    84    85    1
    75   104   105    1
    76    19    18    2
    77    24    18   am
    78    24    30    1
    79    18    17    1
    80    77    78    1
    81    17    16    1
    82    97   100   am
    83    97    96    1
    84    30    29    1
    85    85    86    1
    86    16     7   am
    87    96    99    1
    88    96    95    1
    89    86    87    1
    90     8     7    2
    91     7     6    1
    92    91    90    2
    93    15    13   ar
    94    15    14   ar
    95    88    89    1
    96    13    11   ar
    97    14    12   ar
    98    93    92    1
    99     6     5    1
   100     6     9    1
   101    11    10   ar
   102    90    89    1
   103    12    10   ar
   104    10     9    1
   105     5     3   am
   106    89    92    1
   107    92    94    1
   108     3     4    2
   109     3     2    1
   110     2     1    1
