@<TRIPOS>MOLECULE
tmp/4bqrA01.pdb
 128 122 0 0 0
SMALL
GASTEIGER

@<TRIPOS>ATOM
      1  N         -4.8430   13.4960   25.1450 N.3    95  GLY95      -0.1210
      2  CA        -4.9310   12.3620   24.2190 C.3    95  GLY95       0.1956
      3  C         -6.3920   12.1310   23.9410 C.2    95  GLY95       0.2612
      4  O         -7.2160   12.4140   24.8080 O.2    95  GLY95      -0.2717
      5  N         -6.7170   11.6680   22.7360 N.am   96  PHE96      -0.1962
      6  CA        -8.0830   11.3000   22.4130 C.3    96  PHE96       0.1771
      7  C         -8.0630   10.5250   21.1150 C.2    96  PHE96       0.2619
      8  O         -7.3980   10.9390   20.1880 O.2    96  PHE96      -0.2715
      9  CB        -8.9900   12.5240   22.2770 C.3    96  PHE96       0.0574
     10  CG       -10.3590   12.1980   21.7730 C.ar   96  PHE96      -0.0200
     11  CD1      -11.2580   11.5240   22.5830 C.ar   96  PHE96      -0.0042
     12  CD2      -10.7360   12.5210   20.4680 C.ar   96  PHE96      -0.0042
     13  CE1      -12.5260   11.1930   22.1200 C.ar   96  PHE96      -0.0003
     14  CE2      -12.0000   12.1980   20.0040 C.ar   96  PHE96      -0.0003
     15  CZ       -12.8990   11.5380   20.8260 C.ar   96  PHE96      -0.0000
     16  N         -8.7400    9.3820   21.0890 N.am   97  MET97      -0.1964
     17  CA        -9.1020    8.7160   19.8330 C.3    97  MET97       0.1722
     18  C        -10.5750    8.2670   19.8810 C.2    97  MET97       0.2458
     19  O        -10.9610    7.5730   20.8150 O.2    97  MET97      -0.2730
     20  CB        -8.1880    7.5320   19.5970 C.3    97  MET97       0.0427
     21  CG        -8.3840    6.8180   18.2770 C.3    97  MET97       0.0599
     22  SD        -8.0660    7.7380   16.7700 S.3    97  MET97      -0.1393
     23  CE        -6.2880    7.9640   16.9240 C.3    97  MET97       0.0692
     24  N        -11.4080    8.6800   18.8930 N.am   98  PRO98      -0.2716
     25  CA       -12.8070    8.2330   18.8790 C.3    98  PRO98       0.1536
     26  C        -12.9010    6.7170   18.9540 C.2    98  PRO98       0.2598
     27  O        -11.9780    6.0510   18.4930 O.2    98  PRO98      -0.2715
     28  CB       -13.3060    8.7070   17.5240 C.3    98  PRO98       0.0310
     29  CG       -12.5380    9.9430   17.2720 C.3    98  PRO98       0.0237
     30  CD       -11.1390    9.6190   17.7740 C.3    98  PRO98       0.0939
     31  N        -13.9980    6.1820   19.5060 N.am   99  GLN99      -0.1978
     32  CA       -14.1670    4.7180   19.6510 C.3    99  GLN99       0.1601
     33  C        -14.0350    3.9480   18.3250 C.2    99  GLN99       0.2287
     34  O        -13.6820    2.7700   18.3460 O.2    99  GLN99      -0.2864
     35  CB       -15.5080    4.3520   20.3390 C.3    99  GLN99       0.0394
     36  CG       -15.6650    4.8080   21.7880 C.3    99  GLN99       0.0908
     37  CD       -14.5790    4.2670   22.6820 C.2    99  GLN99       0.2608
     38  OE1      -14.3520    3.0410   22.6860 O.2    99  GLN99      -0.2717
     39  NE2      -13.8370    5.1140   23.3230 N.am   99  GLN99      -0.0878
     40  N        -10.2810    3.0010   18.4120 N.3   102  MET102     -0.1245
     41  CA        -9.7540    2.4960   19.6660 C.3   102  MET102      0.1570
     42  C        -10.8690    1.7290   20.3320 C.2   102  MET102      0.2261
     43  O        -11.9160    2.2990   20.5740 O.2   102  MET102     -0.2867
     44  CB        -9.3680    3.6640   20.5640 C.3   102  MET102      0.0387
     45  CG        -8.0700    3.5040   21.2920 C.3   102  MET102      0.0595
     46  SD        -7.8970    4.4540   22.8190 S.3   102  MET102     -0.1393
     47  CE        -7.7240    3.1230   23.9910 C.3   102  MET102      0.0692
     48  N          2.4600    6.1990   25.2580 N.3   148  PHE148     -0.1241
     49  CA         2.2010    4.7970   25.5700 C.3   148  PHE148      0.1605
     50  C          2.9070    4.0490   24.4600 C.2   148  PHE148      0.2264
     51  O          2.5450    4.2240   23.2880 O.2   148  PHE148     -0.2867
     52  CB         0.6830    4.5610   25.5320 C.3   148  PHE148      0.0534
     53  CG         0.2480    3.1780   25.9580 C.ar  148  PHE148     -0.0203
     54  CD1        0.4770    2.6890   27.2500 C.ar  148  PHE148     -0.0042
     55  CD2       -0.4430    2.3860   25.0820 C.ar  148  PHE148     -0.0042
     56  CE1        0.0520    1.4000   27.6180 C.ar  148  PHE148     -0.0003
     57  CE2       -0.9020    1.1180   25.4570 C.ar  148  PHE148     -0.0003
     58  CZ        -0.6430    0.6210   26.7010 C.ar  148  PHE148     -0.0000
     59  N         -5.9390   -1.0160   21.0690 N.3   157  TYR157     -0.1241
     60  CA        -5.3990    0.3710   21.0450 C.3   157  TYR157      0.1605
     61  C         -5.3660    0.9480   19.6220 C.2   157  TYR157      0.2264
     62  O         -5.5730    2.1480   19.4060 O.2   157  TYR157     -0.2867
     63  CB        -4.0300    0.4340   21.7310 C.3   157  TYR157      0.0534
     64  CG        -4.1420    0.2820   23.2500 C.ar  157  TYR157     -0.0201
     65  CD1       -4.2580   -0.9760   23.8460 C.ar  157  TYR157     -0.0009
     66  CD2       -4.1570    1.3890   24.0680 C.ar  157  TYR157     -0.0009
     67  CE1       -4.3710   -1.1060   25.2130 C.ar  157  TYR157      0.0417
     68  CE2       -4.2660    1.2700   25.4460 C.ar  157  TYR157      0.0417
     69  CZ        -4.3690    0.0280   26.0150 C.ar  157  TYR157      0.1957
     70  OH        -4.4540   -0.0670   27.3720 O.3   157  TYR157     -0.2866
     71  N         -4.9790    4.6110   18.2210 N.3   160  MET160     -0.1245
     72  CA        -4.2830    5.3530   19.2860 C.3   160  MET160      0.1570
     73  C         -2.7990    4.9720   19.3210 C.2   160  MET160      0.2261
     74  O         -1.9670    5.8310   19.4660 O.2   160  MET160     -0.2867
     75  CB        -4.9260    5.1460   20.6720 C.3   160  MET160      0.0387
     76  CG        -4.1990    5.8090   21.8270 C.3   160  MET160      0.0595
     77  SD        -4.2170    7.6140   21.6250 S.3   160  MET160     -0.1393
     78  CE        -3.0910    8.1090   22.8820 C.3   160  MET160      0.0692
     79  N          0.3180    7.5630   18.8840 N.3   164  LYS164     -0.1245
     80  CA         1.4760    7.6450   19.7650 C.3   164  LYS164      0.1561
     81  C          2.8040    7.4360   18.9750 C.2   164  LYS164      0.2260
     82  O          3.8230    8.0530   19.3060 O.2   164  LYS164     -0.2867
     83  CB         1.3870    6.6720   20.9490 C.3   164  LYS164      0.0271
     84  CG         0.3330    6.9030   22.0080 C.3   164  LYS164      0.0035
     85  CD         0.3350    8.3540   22.5430 C.3   164  LYS164      0.0206
     86  CE        -0.4720    8.4320   23.8290 C.3   164  LYS164      0.1093
     87  NZ        -0.6520    9.8090   24.3310 N.3   164  LYS164     -0.1314
     88  N         -7.5310    5.1770   34.3800 N.3   195  THR195     -0.1218
     89  CA        -8.2560    6.4460   34.2930 C.3   195  THR195      0.1862
     90  C         -9.7010    6.1670   33.8420 C.2   195  THR195      0.2287
     91  O        -10.1050    5.0050   33.7200 O.2   195  THR195     -0.2866
     92  CB        -7.5870    7.4170   33.2980 C.3   195  THR195      0.1770
     93  OG1       -7.4830    6.7850   32.0120 O.3   195  THR195     -0.2211
     94  CG2       -6.2120    7.8200   33.7750 C.3   195  THR195      0.0375
     95  N        -11.6060    6.3510   31.0730 N.3   197  ALA197     -0.1231
     96  CA       -11.8120    5.5640   29.8540 C.3   197  ALA197      0.1694
     97  C        -11.3880    4.0860   30.0030 C.2   197  ALA197      0.2591
     98  O        -12.0680    3.1990   29.4790 O.2   197  ALA197     -0.2718
     99  CB       -11.0910    6.2130   28.6740 C.3   197  ALA197      0.0304
    100  N        -10.2860    3.8320   30.7180 N.am  198  MET198     -0.1979
    101  CA        -9.7830    2.4640   30.9620 C.3   198  MET198      0.1605
    102  C        -10.6260    1.6360   31.9600 C.2   198  MET198      0.2287
    103  O        -10.7660    0.4110   31.7760 O.2   198  MET198     -0.2864
    104  CB        -8.3110    2.5080   31.4300 C.3   198  MET198      0.0413
    105  CG        -7.3400    3.0980   30.4020 C.3   198  MET198      0.0598
    106  SD        -6.9390    1.9430   29.0660 S.3   198  MET198     -0.1393
    107  CE        -5.8710    0.8260   29.9820 C.3   198  MET198      0.0692
    108  N        -13.8380    2.0470   32.2270 N.3   200  ALA200     -0.1231
    109  CA       -15.0430    1.7440   31.4300 C.3   200  ALA200      0.1694
    110  C        -14.8800    0.4830   30.5770 C.2   200  ALA200      0.2591
    111  O        -15.7600   -0.3740   30.5840 O.2   200  ALA200     -0.2718
    112  CB       -15.4150    2.9340   30.5460 C.3   200  ALA200      0.0304
    113  N        -13.7540    0.3730   29.8620 N.am  201  ILE201     -0.1980
    114  CA       -13.4800   -0.7820   28.9810 C.3   201  ILE201      0.1595
    115  C        -13.4390   -2.1120   29.7830 C.2   201  ILE201      0.2287
    116  O        -14.1690   -3.0530   29.4620 O.2   201  ILE201     -0.2864
    117  CB       -12.2110   -0.5440   28.1010 C.3   201  ILE201      0.0276
    118  CG1      -12.4040    0.7270   27.2190 C.3   201  ILE201      0.0022
    119  CG2      -11.9360   -1.7650   27.2320 C.3   201  ILE201      0.0022
    120  CD1      -11.1640    1.3750   26.6170 C.3   201  ILE201      0.0001
    121  N        -17.6250   -2.0000   26.4990 N.3   206  LEU206     -0.1245
    122  CA       -17.4740   -2.2440   25.0620 C.3   206  LEU206      0.1561
    123  C        -17.6810   -3.7320   24.7000 C.2   206  LEU206      0.2260
    124  O        -17.4240   -4.1500   23.5680 O.2   206  LEU206     -0.2867
    125  CB       -16.1050   -1.7200   24.5770 C.3   206  LEU206      0.0270
    126  CG       -15.8610   -0.1980   24.5600 C.3   206  LEU206      0.0019
    127  CD1      -14.4050    0.0790   24.1970 C.3   206  LEU206      0.0001
    128  CD2      -16.7960    0.5410   23.5970 C.3   206  LEU206      0.0001
@<TRIPOS>BOND
     1    22    23    1
     2    22    21    1
     3    29    28    1
     4    29    30    1
     5    28    25    1
     6    30    24    1
     7    71    72    1
     8    21    20    1
     9    33    34    2
    10    33    32    1
    11    40    41    1
    12    27    26    2
    13    25    24    1
    14    25    26    1
    15    79    80    1
    16    24    18   am
    17    26    31   am
    18    81    82    2
    19    81    80    1
    20    72    73    1
    21    72    75    1
    22    73    74    2
    23    62    61    2
    24    31    32    1
    25    20    17    1
    26    61    60    1
    27    32    35    1
    28    41    42    1
    29    41    44    1
    30    80    83    1
    31    17    18    1
    32    17    16    1
    33    18    19    2
    34    14    12   ar
    35    14    15   ar
    36     8     7    2
    37    42    43    2
    38    35    36    1
    39    12    10   ar
    40    44    45    1
    41    75    76    1
    42    15    13   ar
    43    83    84    1
    44    60    59    1
    45    60    63    1
    46    16     7   am
    47     7     6    1
    48    45    46    1
    49    77    76    1
    50    77    78    1
    51    63    64    1
    52    10     9    1
    53    10    11   ar
    54    36    37    1
    55    84    85    1
    56    13    11   ar
    57     9     6    1
    58     6     5    1
    59    85    86    1
    60    37    38    2
    61    37    39   am
    62     5     3   am
    63    46    47    1
    64    64    65   ar
    65    64    66   ar
    66    51    50    2
    67   124   123    2
    68   128   126    1
    69    86    87    1
    70    65    67   ar
    71     3     2    1
    72     3     4    2
    73    66    68   ar
    74   127   126    1
    75     2     1    1
    76    50    49    1
    77   126   125    1
    78   125   122    1
    79   123   122    1
    80   122   121    1
    81    55    57   ar
    82    55    53   ar
    83    67    69   ar
    84    48    49    1
    85    68    69   ar
    86    57    58   ar
    87    52    49    1
    88    52    53    1
    89    53    54   ar
    90    69    70    1
    91   120   118    1
    92    58    56   ar
    93   118   117    1
    94   119   117    1
    95    54    56   ar
    96   117   114    1
    97    99    96    1
    98   114   115    1
    99   114   113    1
   100   106   107    1
   101   106   105    1
   102   116   115    2
   103    98    97    2
   104    96    97    1
   105    96    95    1
   106   113   110   am
   107    97   100   am
   108   105   104    1
   109   112   109    1
   110   110   111    2
   111   110   109    1
   112   100   101    1
   113   101   104    1
   114   101   102    1
   115   109   108    1
   116   103   102    2
   117    93    92    1
   118    92    94    1
   119    92    89    1
   120    91    90    2
   121    90    89    1
   122    89    88    1
