@<TRIPOS>MOLECULE
tmp/4bqsA01.pdb
 145 138 0 0 0
SMALL
GASTEIGER

@<TRIPOS>ATOM
      1  N          6.8960   -3.5870   46.5260 N.3    10  PRO10      -0.2116
      2  CA         7.3850   -2.9640   47.7290 C.3    10  PRO10       0.1372
      3  C          8.0930   -4.0160   48.5150 C.2    10  PRO10       0.2244
      4  O          7.7120   -5.1690   48.4500 O.2    10  PRO10      -0.2868
      5  CB         6.1230   -2.4760   48.4310 C.3    10  PRO10       0.0268
      6  CG         4.9760   -3.1560   47.7690 C.3    10  PRO10       0.0207
      7  CD         5.4240   -3.5790   46.4230 C.3    10  PRO10       0.0892
      8  N         13.9080   -1.1610   46.3880 N.3    14  LYS14      -0.1245
      9  CA        14.1050   -0.1070   45.4230 C.3    14  LYS14       0.1561
     10  C         14.7610    1.1400   45.9900 C.2    14  LYS14       0.2260
     11  O         15.5420    1.7650   45.3030 O.2    14  LYS14      -0.2867
     12  CB        12.8030    0.2760   44.7400 C.3    14  LYS14       0.0271
     13  CG        12.1320   -0.8830   44.0240 C.3    14  LYS14       0.0035
     14  CD        10.9830   -0.4130   43.1720 C.3    14  LYS14       0.0206
     15  CE         9.8140    0.0800   44.0320 C.3    14  LYS14       0.1093
     16  NZ         9.1790   -0.9780   44.8490 N.3    14  LYS14      -0.1314
     17  N          7.1810    7.6710   43.4470 N.3    33  ASP33      -0.1239
     18  CA         6.2990    7.8810   44.5780 C.3    33  ASP33       0.1674
     19  C          6.4840    9.2640   45.2460 C.2    33  ASP33       0.2266
     20  O          5.5160    9.9960   45.4860 O.2    33  ASP33      -0.2867
     21  CB         6.4790    6.7780   45.6130 C.3    33  ASP33       0.1410
     22  CG         5.7410    5.4810   45.2460 C.2    33  ASP33       0.3668
     23  OD1        4.9120    5.4360   44.3060 O.co2  33  ASP33      -0.2456
     24  OD2        6.0350    4.4750   45.8900 O.co2  33  ASP33      -0.2456
     25  N          0.3940    9.8420   49.1100 N.3    44  ILE44      -0.1245
     26  CA        -0.0900    8.7900   48.2740 C.3    44  ILE44       0.1561
     27  C         -1.3700    8.2140   48.8380 C.2    44  ILE44       0.2260
     28  O         -2.3540    8.0410   48.0850 O.2    44  ILE44      -0.2867
     29  CB         0.9740    7.7330   47.9670 C.3    44  ILE44       0.0252
     30  CG1        2.0520    8.3750   47.0750 C.3    44  ILE44       0.0019
     31  CG2        0.3150    6.5360   47.2760 C.3    44  ILE44       0.0019
     32  CD1        3.1740    7.4560   46.6950 C.3    44  ILE44       0.0001
     33  N         -5.2380    7.7910   46.9050 N.3    48  PHE48      -0.1241
     34  CA        -5.9850    6.5190   46.8590 C.3    48  PHE48       0.1605
     35  C         -7.3440    6.6340   47.5370 C.2    48  PHE48       0.2264
     36  O         -8.4050    6.3670   46.9070 O.2    48  PHE48      -0.2867
     37  CB        -5.2100    5.3520   47.5060 C.3    48  PHE48       0.0534
     38  CG        -4.3040    4.6330   46.5560 C.ar   48  PHE48      -0.0203
     39  CD1       -3.0490    5.1310   46.2630 C.ar   48  PHE48      -0.0042
     40  CD2       -4.7270    3.4800   45.9120 C.ar   48  PHE48      -0.0042
     41  CE1       -2.2070    4.4630   45.3750 C.ar   48  PHE48      -0.0003
     42  CE2       -3.9000    2.8080   45.0340 C.ar   48  PHE48      -0.0003
     43  CZ        -2.6380    3.2910   44.7650 C.ar   48  PHE48      -0.0000
     44  N         -5.0050    7.7700   40.7460 N.3    56  PHE56      -0.1227
     45  CA        -3.5870    7.6170   41.0890 C.3    56  PHE56       0.1736
     46  C         -2.7380    7.1170   39.9080 C.2    56  PHE56       0.2595
     47  O         -1.6750    7.6720   39.6110 O.2    56  PHE56      -0.2718
     48  CB        -3.4030    6.7040   42.3010 C.3    56  PHE56       0.0547
     49  CG        -1.9480    6.5000   42.6870 C.ar   56  PHE56      -0.0202
     50  CD1       -1.2770    7.4550   43.3980 C.ar   56  PHE56      -0.0042
     51  CD2       -1.2600    5.4010   42.2630 C.ar   56  PHE56      -0.0042
     52  CE1        0.0390    7.3040   43.7440 C.ar   56  PHE56      -0.0003
     53  CE2        0.0860    5.2330   42.5780 C.ar   56  PHE56      -0.0003
     54  CZ         0.7410    6.1840   43.3330 C.ar   56  PHE56      -0.0000
     55  N         -3.1910    6.0750   39.2120 N.am   57  ARG57      -0.1980
     56  CA        -2.3870    5.5410   38.0960 C.3    57  ARG57       0.1597
     57  C         -2.1550    6.5500   36.9930 C.2    57  ARG57       0.2287
     58  O         -1.1420    6.4510   36.2520 O.2    57  ARG57      -0.2864
     59  CB        -3.0220    4.2650   37.4550 C.3    57  ARG57       0.0334
     60  CG        -3.2230    3.0970   38.4210 C.3    57  ARG57       0.0492
     61  CD        -1.8770    2.6260   38.9540 C.3    57  ARG57       0.2205
     62  NE        -2.0070    1.6710   40.0470 N.pl3  57  ARG57      -0.0865
     63  CZ        -1.0590    1.4840   40.9800 C.cat  57  ARG57       0.5346
     64  NH1        0.0900    2.1640   40.9590 N.pl3  57  ARG57       0.1354
     65  NH2       -1.2560    0.6210   41.9750 N.pl3  57  ARG57       0.1354
     66  N          0.5090    8.9490   38.2010 N.3    60  GLU60      -0.1245
     67  CA         1.7390    8.1670   38.1670 C.3    60  GLU60       0.1567
     68  C          2.2670    8.0580   36.7660 C.2    60  GLU60       0.2260
     69  O          3.4770    8.1820   36.5150 O.2    60  GLU60      -0.2867
     70  CB         1.4960    6.7520   38.7370 C.3    60  GLU60       0.0388
     71  CG         2.7040    5.8400   38.8040 C.3    60  GLU60       0.1160
     72  CD         2.4110    4.5300   39.5130 C.2    60  GLU60       0.3649
     73  OE1        1.4520    3.8030   39.1090 O.co2  60  GLU60      -0.2457
     74  OE2        3.1580    4.2050   40.4600 O.co2  60  GLU60      -0.2457
     75  N          7.1990    3.1760   41.4680 N.3    78  GLY78      -0.1210
     76  CA         6.3440    2.6020   42.4640 C.3    78  GLY78       0.1956
     77  C          5.9300    1.2310   42.0040 C.2    78  GLY78       0.2612
     78  O          5.8540    0.9870   40.7700 O.2    78  GLY78      -0.2717
     79  N          5.6240    0.3730   42.9820 N.am   79  GLY79      -0.1942
     80  CA         5.3200   -1.0380   42.7570 C.3    79  GLY79       0.2014
     81  C          4.3000   -1.3640   41.6790 C.2    79  GLY79       0.2639
     82  O          4.4230   -2.3880   41.0000 O.2    79  GLY79      -0.2714
     83  N          3.3230   -0.4950   41.4490 N.am   80  GLY80      -0.1954
     84  CA         2.2210   -0.8580   40.5260 C.3    80  GLY80       0.1869
     85  C          2.2300   -0.1390   39.1910 C.2    80  GLY80       0.2309
     86  O          1.3000   -0.3100   38.3750 O.2    80  GLY80      -0.2863
     87  N          4.3890    1.6060   57.7160 N.3   114  THR114     -0.1203
     88  CA         4.1480    2.3220   56.4880 C.3   114  THR114      0.1994
     89  C          2.6990    2.0910   55.9660 C.2   114  THR114      0.2618
     90  O          2.1540    0.9840   56.0250 O.2   114  THR114     -0.2717
     91  CB         5.1410    1.7610   55.5010 C.3   114  THR114      0.1784
     92  OG1        6.3060    1.4350   56.2640 O.3   114  THR114     -0.2211
     93  CG2        5.4850    2.7080   54.4120 C.3   114  THR114      0.0376
     94  N          2.0850    3.1610   55.5130 N.am  115  VAL115     -0.1965
     95  CA         0.7330    3.1330   54.9670 C.3   115  VAL115      0.1727
     96  C          0.8250    2.5980   53.5500 C.2   115  VAL115      0.2616
     97  O          1.5590    3.1370   52.7470 O.2   115  VAL115     -0.2715
     98  CB         0.1190    4.5610   54.9160 C.3   115  VAL115      0.0290
     99  CG1       -1.2140    4.5490   54.1850 C.3   115  VAL115      0.0023
    100  CG2       -0.0290    5.1080   56.3350 C.3   115  VAL115      0.0023
    101  N          0.1150    1.5240   53.2390 N.am  116  ARG116     -0.1964
    102  CA         0.1220    1.0270   51.8720 C.3   116  ARG116      0.1714
    103  C         -1.3100    0.6690   51.5030 C.2   116  ARG116      0.2458
    104  O         -1.8570   -0.3060   52.0120 O.2   116  ARG116     -0.2730
    105  CB         1.0490   -0.1730   51.7090 C.3   116  ARG116      0.0347
    106  CG         2.4770    0.0760   52.1950 C.3   116  ARG116      0.0492
    107  CD         3.4070   -1.0140   51.6460 C.3   116  ARG116      0.2205
    108  NE         4.7940   -0.7120   51.9200 N.pl3 116  ARG116     -0.0865
    109  CZ         5.4520   -1.0650   53.0090 C.cat 116  ARG116      0.5346
    110  NH1        4.8690   -1.7670   53.9710 N.pl3 116  ARG116      0.1354
    111  NH2        6.6950   -0.6610   53.1570 N.pl3 116  ARG116      0.1354
    112  N         -1.9210    1.4800   50.6410 N.am  117  PRO117     -0.2716
    113  CA        -3.3340    1.2790   50.2840 C.3   117  PRO117      0.1536
    114  C         -3.5810   -0.1090   49.7480 C.2   117  PRO117      0.2598
    115  O         -4.5520   -0.7010   50.0850 O.2   117  PRO117     -0.2715
    116  CB        -3.6090    2.3950   49.2460 C.3   117  PRO117      0.0310
    117  CG        -2.6380    3.4820   49.6310 C.3   117  PRO117      0.0237
    118  CD        -1.4100    2.7850   50.2030 C.3   117  PRO117      0.0939
    119  N         -2.6950   -0.6550   48.9460 N.am  118  LEU118     -0.1978
    120  CA        -2.9310   -1.9810   48.4270 C.3   118  LEU118      0.1596
    121  C         -2.2290   -3.0510   49.2560 C.2   118  LEU118      0.2287
    122  O         -2.0970   -4.1970   48.8120 O.2   118  LEU118     -0.2864
    123  CB        -2.4980   -2.0850   46.9520 C.3   118  LEU118      0.0297
    124  CG        -3.0360   -0.9870   46.0270 C.3   118  LEU118      0.0022
    125  CD1       -2.5600   -1.1190   44.5810 C.3   118  LEU118      0.0001
    126  CD2       -4.5450   -0.9750   46.1030 C.3   118  LEU118      0.0001
    127  N         -0.4490   -9.7210   44.3810 N.3   131  LEU131     -0.1245
    128  CA         0.3240   -8.6900   43.6700 C.3   131  LEU131      0.1561
    129  C          1.4640   -9.2880   42.8480 C.2   131  LEU131      0.2260
    130  O          1.6630   -8.9200   41.7140 O.2   131  LEU131     -0.2867
    131  CB         0.9010   -7.6440   44.6510 C.3   131  LEU131      0.0270
    132  CG        -0.1250   -6.7300   45.2990 C.3   131  LEU131      0.0019
    133  CD1        0.6450   -5.6690   46.0570 C.3   131  LEU131      0.0001
    134  CD2       -1.0560   -6.0950   44.2830 C.3   131  LEU131      0.0001
    135  N          1.7560   -9.2610   38.9160 N.3   135  ARG135     -0.1245
    136  CA         2.7510   -8.3130   38.3920 C.3   135  ARG135      0.1563
    137  C          4.0830   -8.9310   37.9810 C.2   135  ARG135      0.2260
    138  O          4.8300   -8.3410   37.1930 O.2   135  ARG135     -0.2867
    139  CB         2.9720   -7.2180   39.4330 C.3   135  ARG135      0.0307
    140  CG         1.7370   -6.3720   39.6770 C.3   135  ARG135      0.0489
    141  CD         2.0130   -5.4480   40.8230 C.3   135  ARG135      0.2205
    142  NE         0.8930   -4.6140   41.2290 N.pl3 135  ARG135     -0.0865
    143  CZ         0.9550   -3.7370   42.2330 C.cat 135  ARG135      0.5346
    144  NH1        2.0790   -3.5530   42.9320 N.pl3 135  ARG135      0.1354
    145  NH2       -0.1050   -3.0430   42.5640 N.pl3 135  ARG135      0.1354
@<TRIPOS>BOND
     1    58    57    2
     2    69    68    2
     3    68    67    1
     4    57    56    1
     5   138   137    2
     6    59    56    1
     7    59    60    1
     8   137   136    1
     9    56    55    1
    10    67    66    1
    11    67    70    1
    12    86    85    2
    13   136   135    1
    14   136   139    1
    15    60    61    1
    16    70    71    1
    17    71    72    1
    18    61    62    1
    19    73    72   ar
    20    85    84    1
    21    55    46   am
    22   139   140    1
    23    72    74   ar
    24    47    46    2
    25   140   141    1
    26    46    45    1
    27    62    63    2
    28    84    83    1
    29    44    45    1
    30    78    77    2
    31   141   142    1
    32    64    63    1
    33    63    65    1
    34    82    81    2
    35    45    48    1
    36   142   143    2
    37    83    81   am
    38    75    76    1
    39    81    80    1
    40   130   129    2
    41    77    76    1
    42    77    79   am
    43   143   145    1
    44   143   144    1
    45    51    53   ar
    46    51    49   ar
    47    48    49    1
    48    53    54   ar
    49    49    50   ar
    50    80    79    1
    51   129   128    1
    52    14    13    1
    53    14    15    1
    54    54    52   ar
    55    50    52   ar
    56    17    18    1
    57   128   127    1
    58   128   131    1
    59    13    12    1
    60    15    16    1
    61   134   132    1
    62    23    22   ar
    63    18    19    1
    64    18    21    1
    65   125   124    1
    66   131   132    1
    67    12     9    1
    68    43    42   ar
    69    43    41   ar
    70    42    40   ar
    71    22    21    1
    72    22    24   ar
    73    19    20    2
    74   132   133    1
    75    11    10    2
    76    41    39   ar
    77     9    10    1
    78     9     8    1
    79    40    38   ar
    80   124   126    1
    81   124   123    1
    82    39    38   ar
    83     7     1    1
    84     7     6    1
    85     1     2    1
    86    38    37    1
    87    32    30    1
    88    34    33    1
    89    34    37    1
    90    34    35    1
    91    36    35    2
    92   123   120    1
    93    30    29    1
    94    31    29    1
    95     2     5    1
    96     2     3    1
    97     6     5    1
    98    29    26    1
    99    28    27    2
   100    26    27    1
   101    26    25    1
   102   120   119    1
   103   120   121    1
   104     4     3    2
   105   122   121    2
   106   119   114   am
   107   116   117    1
   108   116   113    1
   109   117   118    1
   110   114   115    2
   111   114   113    1
   112   118   112    1
   113   113   112    1
   114   112   103   am
   115   103   102    1
   116   103   104    2
   117   107   108    1
   118   107   106    1
   119   105   102    1
   120   105   106    1
   121   102   101    1
   122   108   109    2
   123    97    96    2
   124   109   111    1
   125   109   110    1
   126   101    96   am
   127    96    95    1
   128    99    98    1
   129    93    91    1
   130    98    95    1
   131    98   100    1
   132    95    94    1
   133    91    92    1
   134    91    88    1
   135    94    89   am
   136    89    90    2
   137    89    88    1
   138    88    87    1
