@<TRIPOS>MOLECULE
tmp/4bquB00.pdb
 211 195 0 0 0
SMALL
GASTEIGER

@<TRIPOS>ATOM
      1  N         12.1340  -57.1350   14.4550 N.3     5  ALA5       -0.1245
      2  CA        12.0010  -57.6670   15.8000 C.3     5  ALA5        0.1562
      3  C         10.5690  -58.0420   16.1800 C.2     5  ALA5        0.2260
      4  O         10.3810  -58.9250   17.0100 O.2     5  ALA5       -0.2867
      5  CB        12.5550  -56.6810   16.8060 C.3     5  ALA5        0.0290
      6  N         15.1690  -64.4730   12.4850 N.3    11  LEU11      -0.1245
      7  CA        16.3690  -63.6570   12.2930 C.3    11  LEU11       0.1561
      8  C         17.5660  -64.4240   12.7920 C.2    11  LEU11       0.2260
      9  O         17.5430  -64.9960   13.8710 O.2    11  LEU11      -0.2867
     10  CB        16.3240  -62.3260   13.0230 C.3    11  LEU11       0.0270
     11  CG        15.1660  -61.4120   12.7110 C.3    11  LEU11       0.0019
     12  CD1       14.9950  -60.3730   13.8360 C.3    11  LEU11       0.0001
     13  CD2       15.3250  -60.7750   11.3310 C.3    11  LEU11       0.0001
     14  N         21.7830  -64.2250   13.6160 N.3    13  LEU13      -0.1245
     15  CA        22.8770  -63.3220   13.9930 C.3    13  LEU13       0.1561
     16  C         23.9230  -63.4390   12.8990 C.2    13  LEU13       0.2260
     17  O         24.3810  -64.5320   12.6460 O.2    13  LEU13      -0.2867
     18  CB        23.4630  -63.7590   15.3440 C.3    13  LEU13       0.0270
     19  CG        24.6720  -62.9840   15.9160 C.3    13  LEU13       0.0019
     20  CD1       24.3770  -61.5200   16.0940 C.3    13  LEU13       0.0001
     21  CD2       25.1030  -63.5680   17.2090 C.3    13  LEU13       0.0001
     22  N         28.6720  -59.1740   14.9660 N.3    16  HIS16      -0.1241
     23  CA        28.6670  -58.5110   16.2570 C.3    16  HIS16       0.1621
     24  C         30.0170  -57.8600   16.5560 C.2    16  HIS16       0.2264
     25  O         31.0150  -58.1680   15.9000 O.2    16  HIS16      -0.2867
     26  CB        28.2820  -59.5220   17.3710 C.3    16  HIS16       0.0745
     27  CG        29.2140  -60.6840   17.4940 C.ar   16  HIS16       0.0817
     28  ND1       30.3770  -60.6130   18.2460 N.ar   16  HIS16      -0.2268
     29  CD2       29.1280  -61.9130   16.9450 C.ar   16  HIS16       0.1154
     30  CE1       30.9970  -61.7710   18.0700 C.ar   16  HIS16       0.1986
     31  NE2       30.2750  -62.5980   17.3180 N.ar   16  HIS16      -0.2212
     32  N         31.4200  -58.6210   22.5960 N.3    20  LEU20      -0.1231
     33  CA        30.2570  -59.4540   22.9280 C.3    20  LEU20       0.1693
     34  C         30.5340  -60.9450   22.9450 C.2    20  LEU20       0.2592
     35  O         29.8620  -61.6570   23.6920 O.2    20  LEU20      -0.2718
     36  CB        29.0820  -59.1820   21.9790 C.3    20  LEU20       0.0284
     37  CG        28.4190  -57.8250   22.1500 C.3    20  LEU20       0.0019
     38  CD1       27.5500  -57.4970   20.9620 C.3    20  LEU20       0.0001
     39  CD2       27.6080  -57.7720   23.4120 C.3    20  LEU20       0.0001
     40  N         31.4840  -61.4190   22.1250 N.am   21  PHE21      -0.1962
     41  CA        31.8400  -62.8350   21.9870 C.3    21  PHE21       0.1771
     42  C         31.6380  -63.7380   23.2190 C.2    21  PHE21       0.2619
     43  O         32.1030  -63.4170   24.3100 O.2    21  PHE21      -0.2715
     44  CB        33.3080  -62.9750   21.5640 C.3    21  PHE21       0.0574
     45  CG        33.7070  -64.3790   21.2160 C.ar   21  PHE21      -0.0200
     46  CD1       33.3160  -64.9500   20.0140 C.ar   21  PHE21      -0.0042
     47  CD2       34.4440  -65.1440   22.1030 C.ar   21  PHE21      -0.0042
     48  CE1       33.6850  -66.2500   19.6920 C.ar   21  PHE21      -0.0003
     49  CE2       34.7850  -66.4590   21.7930 C.ar   21  PHE21      -0.0003
     50  CZ        34.4080  -66.9980   20.5880 C.ar   21  PHE21      -0.0000
     51  N         31.0000  -64.8990   23.0100 N.am   22  GLU22      -0.1977
     52  CA        30.8720  -65.9420   24.0190 C.3    22  GLU22       0.1602
     53  C         31.3420  -67.2190   23.3850 C.2    22  GLU22       0.2287
     54  O         30.7950  -67.6320   22.3610 O.2    22  GLU22      -0.2864
     55  CB        29.4470  -66.0810   24.5330 C.3    22  GLU22       0.0415
     56  CG        29.2140  -65.1860   25.7290 C.3    22  GLU22       0.1163
     57  CD        27.7970  -65.2340   26.2290 C.2    22  GLU22       0.3649
     58  OE1       27.3070  -66.3490   26.5150 O.co2  22  GLU22      -0.2457
     59  OE2       27.1860  -64.1530   26.3590 O.co2  22  GLU22      -0.2457
     60  N         29.2830  -70.5320   21.5410 N.3    25  VAL25      -0.1245
     61  CA        27.8560  -70.1890   21.4030 C.3    25  VAL25       0.1561
     62  C         27.6780  -69.8620   19.9340 C.2    25  VAL25       0.2260
     63  O         28.1140  -68.8120   19.4990 O.2    25  VAL25      -0.2867
     64  CB        27.4140  -69.0600   22.3580 C.3    25  VAL25       0.0252
     65  CG1       25.9900  -68.5930   22.0540 C.3    25  VAL25       0.0019
     66  CG2       27.5050  -69.5440   23.8070 C.3    25  VAL25       0.0019
     67  N         23.2710  -68.8010   16.3050 N.3    28  VAL28      -0.1245
     68  CA        22.3080  -67.9620   17.0140 C.3    28  VAL28       0.1561
     69  C         21.1680  -67.4700   16.0810 C.2    28  VAL28       0.2260
     70  O         21.3990  -66.9410   14.9880 O.2    28  VAL28      -0.2867
     71  CB        23.0050  -66.7960   17.7780 C.3    28  VAL28       0.0252
     72  CG1       21.9860  -65.9090   18.4690 C.3    28  VAL28       0.0019
     73  CG2       24.0430  -67.3300   18.7700 C.3    28  VAL28       0.0019
     74  N         16.5930  -66.2810   16.2710 N.3    30  THR30      -0.1218
     75  CA        15.4170  -66.0080   17.0730 C.3    30  THR30       0.1862
     76  C         14.1520  -66.1880   16.2610 C.2    30  THR30       0.2287
     77  O         13.9410  -65.5010   15.2610 O.2    30  THR30      -0.2866
     78  CB        15.5410  -64.5990   17.7580 C.3    30  THR30       0.1770
     79  OG1       14.3020  -64.2730   18.3740 O.3    30  THR30      -0.2211
     80  CG2       15.9050  -63.4900   16.7900 C.3    30  THR30       0.0375
     81  N          9.4350  -64.1480   21.3650 N.3    42  ARG42      -0.1245
     82  CA        10.3230  -64.8310   20.4550 C.3    42  ARG42       0.1563
     83  C         11.1720  -65.7870   21.2620 C.2    42  ARG42       0.2260
     84  O         11.3340  -65.6300   22.4740 O.2    42  ARG42      -0.2867
     85  CB        11.2670  -63.8480   19.7690 C.3    42  ARG42       0.0307
     86  CG        10.6280  -62.5950   19.2100 C.3    42  ARG42       0.0489
     87  CD        11.6470  -61.8180   18.3970 C.3    42  ARG42       0.2205
     88  NE        12.1250  -62.5540   17.2120 N.pl3  42  ARG42      -0.0865
     89  CZ        11.5320  -62.5900   16.0140 C.cat  42  ARG42       0.5346
     90  NH1       10.4130  -61.9130   15.7900 N.pl3  42  ARG42       0.1354
     91  NH2       12.0670  -63.2980   15.0270 N.pl3  42  ARG42       0.1354
     92  N         15.0910  -67.5790   21.6350 N.3    44  LEU44      -0.1245
     93  CA        16.4850  -67.4180   21.2710 C.3    44  LEU44       0.1561
     94  C         17.0020  -68.8290   21.2070 C.2    44  LEU44       0.2260
     95  O         17.0360  -69.5290   22.2200 O.2    44  LEU44      -0.2867
     96  CB        17.3670  -66.5830   22.2040 C.3    44  LEU44       0.0270
     97  CG        18.7240  -66.3270   21.5030 C.3    44  LEU44       0.0019
     98  CD1       18.7280  -65.0070   20.7380 C.3    44  LEU44       0.0001
     99  CD2       19.8050  -66.3400   22.4180 C.3    44  LEU44       0.0001
    100  N         12.0690  -64.8330   25.2930 N.3    62  PHE62      -0.1241
    101  CA        12.1470  -63.4140   25.6580 C.3    62  PHE62       0.1605
    102  C         11.0560  -62.6550   24.9100 C.2    62  PHE62       0.2264
    103  O         10.5530  -63.1490   23.9020 O.2    62  PHE62      -0.2867
    104  CB        13.5330  -62.8300   25.3160 C.3    62  PHE62       0.0534
    105  CG        13.8760  -62.7330   23.8550 C.ar   62  PHE62      -0.0203
    106  CD1       14.4250  -63.8180   23.1800 C.ar   62  PHE62      -0.0042
    107  CD2       13.7700  -61.5200   23.1800 C.ar   62  PHE62      -0.0042
    108  CE1       14.7760  -63.7130   21.8230 C.ar   62  PHE62      -0.0003
    109  CE2       14.1380  -61.4140   21.8420 C.ar   62  PHE62      -0.0003
    110  CZ        14.6540  -62.5060   21.1780 C.ar   62  PHE62      -0.0000
    111  N          9.6830  -58.7570   23.2650 N.3    64  VAL64      -0.1245
    112  CA        10.0910  -57.4430   22.8100 C.3    64  VAL64       0.1561
    113  C          8.8800  -56.5660   22.5740 C.2    64  VAL64       0.2260
    114  O          7.8150  -57.0480   22.2050 O.2    64  VAL64      -0.2867
    115  CB        11.0420  -57.4530   21.5940 C.3    64  VAL64       0.0252
    116  CG1       12.2540  -58.3160   21.8620 C.3    64  VAL64       0.0019
    117  CG2       10.3290  -57.9000   20.3250 C.3    64  VAL64       0.0019
    118  N         14.3290  -50.5250   21.3530 N.3    73  LEU73      -0.1245
    119  CA        13.6770  -51.8150   21.3990 C.3    73  LEU73       0.1561
    120  C         13.7120  -52.2550   22.8450 C.2    73  LEU73       0.2260
    121  O         14.7980  -52.4250   23.3960 O.2    73  LEU73      -0.2867
    122  CB        14.4240  -52.8470   20.5470 C.3    73  LEU73       0.0270
    123  CG        13.7980  -54.2610   20.5260 C.3    73  LEU73       0.0019
    124  CD1       12.4010  -54.2360   19.9010 C.3    73  LEU73       0.0001
    125  CD2       14.7040  -55.2440   19.8100 C.3    73  LEU73       0.0001
    126  N         13.4280  -55.1130   25.5790 N.3    75  VAL75      -0.1245
    127  CA        13.6370  -56.5610   25.6690 C.3    75  VAL75       0.1561
    128  C         13.3730  -57.0710   27.1120 C.2    75  VAL75       0.2260
    129  O         14.1760  -56.7820   28.0020 O.2    75  VAL75      -0.2867
    130  CB        15.0620  -56.9410   25.2040 C.3    75  VAL75       0.0252
    131  CG1       15.3250  -58.4510   25.4020 C.3    75  VAL75       0.0019
    132  CG2       15.2730  -56.5480   23.7530 C.3    75  VAL75       0.0019
    133  N         18.3170  -66.2080   29.9980 N.3    81  VAL81      -0.1245
    134  CA        18.8240  -65.4200   28.8580 C.3    81  VAL81       0.1561
    135  C         19.6110  -64.1850   29.3300 C.2    81  VAL81       0.2260
    136  O         20.6040  -63.8390   28.6770 O.2    81  VAL81      -0.2867
    137  CB        17.6870  -65.0690   27.8550 C.3    81  VAL81       0.0252
    138  CG1       18.1980  -64.1830   26.7210 C.3    81  VAL81       0.0019
    139  CG2       17.0300  -66.3350   27.2940 C.3    81  VAL81       0.0019
    140  N         23.4970  -65.1530   28.4970 N.3    85  LEU85      -0.1231
    141  CA        23.8240  -64.5080   27.2280 C.3    85  LEU85       0.1693
    142  C         23.9340  -62.9840   27.2980 C.2    85  LEU85       0.2593
    143  O         24.2990  -62.3600   26.3100 O.2    85  LEU85      -0.2718
    144  CB        22.8360  -64.9440   26.1480 C.3    85  LEU85       0.0284
    145  CG        22.8550  -66.4380   25.8200 C.3    85  LEU85       0.0019
    146  CD1       21.6010  -66.8280   25.1130 C.3    85  LEU85       0.0001
    147  CD2       24.0290  -66.8080   24.9320 C.3    85  LEU85       0.0001
    148  N         23.6960  -62.3990   28.4650 N.am   86  GLY86      -0.1942
    149  CA        23.8840  -60.9700   28.6570 C.3    86  GLY86       0.2014
    150  C         22.8490  -60.0690   28.0300 C.2    86  GLY86       0.2638
    151  O         23.1410  -58.8970   27.8180 O.2    86  GLY86      -0.2714
    152  N         21.6320  -60.5900   27.7430 N.am   87  ALA87      -0.1977
    153  CA        20.5590  -59.7830   27.1600 C.3    87  ALA87       0.1597
    154  C         20.2260  -58.6060   28.0670 C.2    87  ALA87       0.2287
    155  O         20.0220  -58.7910   29.2650 O.2    87  ALA87      -0.2864
    156  CB        19.3080  -60.6290   26.9170 C.3    87  ALA87       0.0319
    157  N         17.7310  -51.9650   23.7390 N.3    91  TYR91      -0.1241
    158  CA        18.7200  -51.8070   22.6670 C.3    91  TYR91       0.1605
    159  C         18.3550  -50.6170   21.7990 C.2    91  TYR91       0.2264
    160  O         17.1650  -50.3200   21.5940 O.2    91  TYR91      -0.2867
    161  CB        18.7940  -53.0480   21.7780 C.3    91  TYR91       0.0534
    162  CG        19.4170  -54.2090   22.5130 C.ar   91  TYR91      -0.0201
    163  CD1       20.8000  -54.3140   22.6370 C.ar   91  TYR91      -0.0009
    164  CD2       18.6270  -55.1260   23.2030 C.ar   91  TYR91      -0.0009
    165  CE1       21.3770  -55.3050   23.4140 C.ar   91  TYR91       0.0417
    166  CE2       19.1970  -56.1720   23.9320 C.ar   91  TYR91       0.0417
    167  CZ        20.5770  -56.2760   24.0060 C.ar   91  TYR91       0.1957
    168  OH        21.1440  -57.2700   24.7640 O.3    91  TYR91      -0.2866
    169  N         18.2960  -56.1050   10.6860 N.3   101  LEU101     -0.1245
    170  CA        18.1890  -55.2850   11.8870 C.3   101  LEU101      0.1561
    171  C         19.5810  -55.1220   12.5010 C.2   101  LEU101      0.2260
    172  O         20.2810  -56.1170   12.7200 O.2   101  LEU101     -0.2867
    173  CB        17.2360  -55.9860   12.8790 C.3   101  LEU101      0.0270
    174  CG        17.0400  -55.3210   14.2430 C.3   101  LEU101      0.0019
    175  CD1       16.4770  -53.9250   14.0920 C.3   101  LEU101      0.0001
    176  CD2       16.1700  -56.1700   15.1590 C.3   101  LEU101      0.0001
    177  N         21.3420  -53.4990   15.8130 N.3   103  LEU103     -0.1245
    178  CA        21.0890  -53.0250   17.1740 C.3   103  LEU103      0.1561
    179  C         22.3920  -52.6150   17.8350 C.2   103  LEU103      0.2260
    180  O         23.4170  -53.2000   17.5410 O.2   103  LEU103     -0.2867
    181  CB        20.4490  -54.1230   18.0250 C.3   103  LEU103      0.0270
    182  CG        19.0950  -54.6710   17.5890 C.3   103  LEU103      0.0019
    183  CD1       18.6560  -55.7820   18.5220 C.3   103  LEU103      0.0001
    184  CD2       18.0270  -53.5600   17.5240 C.3   103  LEU103      0.0001
    185  N         25.1290  -55.6900   17.2360 N.3   114  SER114     -0.1217
    186  CA        24.6810  -57.0090   16.8540 C.3   114  SER114      0.1889
    187  C         23.8790  -56.8110   15.5580 C.2   114  SER114      0.2288
    188  O         23.0040  -55.9380   15.5170 O.2   114  SER114     -0.2866
    189  CB        23.8810  -57.6850   17.9650 C.3   114  SER114      0.2089
    190  OG        22.5470  -57.2310   18.1150 O.3   114  SER114     -0.2183
    191  N         21.5140  -58.6430   12.5730 N.3   116  TRP116     -0.1241
    192  CA        20.5730  -59.7340   12.3820 C.3   116  TRP116      0.1605
    193  C         20.0260  -59.6990   10.9750 C.2   116  TRP116      0.2264
    194  O         19.7230  -58.6320   10.4770 O.2   116  TRP116     -0.2867
    195  CB        19.4140  -59.6090   13.4070 C.3   116  TRP116      0.0550
    196  CG        19.8720  -59.5520   14.8420 C.ar  116  TRP116      0.0003
    197  CD1       20.3230  -58.4580   15.5180 C.ar  116  TRP116      0.0946
    198  CD2       19.9770  -60.6560   15.7450 C.ar  116  TRP116      0.0152
    199  NE1       20.6990  -58.8090   16.7950 N.ar  116  TRP116     -0.2442
    200  CE2       20.5170  -60.1600   16.9550 C.ar  116  TRP116      0.0810
    201  CE3       19.6700  -62.0320   15.6500 C.ar  116  TRP116      0.0012
    202  CZ2       20.7220  -60.9800   18.0770 C.ar  116  TRP116      0.0191
    203  CZ3       19.8660  -62.8460   16.7630 C.ar  116  TRP116      0.0001
    204  CH2       20.4050  -62.3230   17.9550 C.ar  116  TRP116      0.0015
    205  N         29.6920  -63.2880   11.6110 N.3   143  VAL143     -0.1245
    206  CA        29.5030  -64.6490   12.0850 C.3   143  VAL143      0.1561
    207  C         29.0520  -65.5280   10.9210 C.2   143  VAL143      0.2260
    208  O         28.0780  -65.2320   10.2370 O.2   143  VAL143     -0.2867
    209  CB        28.6400  -64.7960   13.3610 C.3   143  VAL143      0.0252
    210  CG1       29.3990  -64.2630   14.5860 C.3   143  VAL143      0.0019
    211  CG2       27.3080  -64.0990   13.2470 C.3   143  VAL143      0.0019
@<TRIPOS>BOND
     1   208   207    2
     2   194   193    2
     3   169   170    1
     4   207   206    1
     5   193   192    1
     6    13    11    1
     7   205   206    1
     8   170   171    1
     9   170   173    1
    10   206   209    1
    11     7     6    1
    12     7     8    1
    13     7    10    1
    14   192   191    1
    15   192   195    1
    16   171   172    2
    17    17    16    2
    18    11    10    1
    19    11    12    1
    20     8     9    2
    21   173   174    1
    22    16    15    1
    23   211   209    1
    24   209   210    1
    25   195   196    1
    26    14    15    1
    27    15    18    1
    28   175   174    1
    29   174   176    1
    30     1     2    1
    31   196   197   ar
    32   196   198   ar
    33    22    23    1
    34    70    69    2
    35    91    89    1
    36    77    76    2
    37    18    19    1
    38   188   187    2
    39   197   199   ar
    40   187   186    1
    41   201   198   ar
    42   201   203   ar
    43   198   200   ar
    44    90    89    1
    45     2     3    1
    46     2     5    1
    47   177   178    1
    48    25    24    2
    49    19    20    1
    50    19    21    1
    51    89    88    2
    52    69    68    1
    53     3     4    2
    54    23    24    1
    55    23    26    1
    56    76    75    1
    57    74    75    1
    58    67    68    1
    59   203   204   ar
    60    80    78    1
    61   199   200   ar
    62   186   185    1
    63   186   189    1
    64    29    31   ar
    65    29    27   ar
    66   200   202   ar
    67    68    71    1
    68    75    78    1
    69   178   179    1
    70   178   181    1
    71    88    87    1
    72    31    30   ar
    73    26    27    1
    74    27    28   ar
    75   184   182    1
    76   180   179    2
    77   182   181    1
    78   182   183    1
    79    78    79    1
    80    71    72    1
    81    71    73    1
    82   204   202   ar
    83   189   190    1
    84    30    28   ar
    85    87    86    1
    86    86    85    1
    87    63    62    2
    88    48    46   ar
    89    48    50   ar
    90    85    82    1
    91   125   123    1
    92   124   123    1
    93    62    61    1
    94    46    45   ar
    95   117   115    1
    96    82    83    1
    97    82    81    1
    98   123   122    1
    99   122   119    1
   100    50    49   ar
   101    98    97    1
   102    38    37    1
   103   110   108   ar
   104   110   109   ar
   105    94    93    1
   106    94    95    2
   107    45    44    1
   108    45    47   ar
   109    83    84    2
   110    93    92    1
   111    93    96    1
   112   118   119    1
   113   119   120    1
   114    61    60    1
   115    61    64    1
   116    97    96    1
   117    97    99    1
   118    44    41    1
   119   115   116    1
   120   115   112    1
   121   160   159    2
   122   161   162    1
   123   161   158    1
   124    49    47   ar
   125   159   158    1
   126   108   106   ar
   127   109   107   ar
   128    36    37    1
   129    36    33    1
   130    41    40    1
   131    41    42    1
   132    65    64    1
   133    40    34   am
   134    37    39    1
   135   114   113    2
   136    64    66    1
   137    54    53    2
   138   162   163   ar
   139   162   164   ar
   140   113   112    1
   141    32    33    1
   142   163   165   ar
   143   158   157    1
   144   112   111    1
   145   120   121    2
   146    33    34    1
   147    34    35    2
   148    51    42   am
   149    51    52    1
   150   106   105   ar
   151   107   105   ar
   152   164   166   ar
   153    42    43    2
   154    53    52    1
   155   165   167   ar
   156   132   130    1
   157   105   104    1
   158   103   102    2
   159   166   167   ar
   160   167   168    1
   161    52    55    1
   162    55    56    1
   163   102   101    1
   164   147   145    1
   165   146   145    1
   166   130   131    1
   167   130   127    1
   168   100   101    1
   169   104   101    1
   170   126   127    1
   171   127   128    1
   172    56    57    1
   173   145   144    1
   174   144   141    1
   175    57    59   ar
   176    57    58   ar
   177   143   142    2
   178   138   137    1
   179   156   153    1
   180   128   129    2
   181   153   152    1
   182   153   154    1
   183   141   142    1
   184   141   140    1
   185   139   137    1
   186   142   148   am
   187   152   150   am
   188   151   150    2
   189   137   134    1
   190   150   149    1
   191   154   155    2
   192   148   149    1
   193   136   135    2
   194   134   135    1
   195   134   133    1
