@<TRIPOS>MOLECULE
tmp/4bqvE00.pdb
 144 141 0 0 0
SMALL
GASTEIGER

@<TRIPOS>ATOM
      1  N         20.6880   14.5720   45.3080 N.3    20  GLN20      -0.1245
      2  CA        21.9650   14.3270   44.6470 C.3    20  GLN20       0.1566
      3  C         22.1080   12.9300   43.9930 C.2    20  GLN20       0.2260
      4  O         23.0260   12.7300   43.1760 O.2    20  GLN20      -0.2867
      5  CB        23.1220   14.5760   45.6030 C.3    20  GLN20       0.0367
      6  CG        23.2270   13.5950   46.7530 C.3    20  GLN20       0.0905
      7  CD        24.4090   13.8800   47.6360 C.2    20  GLN20       0.2608
      8  OE1       24.3990   14.8230   48.4350 O.2    20  GLN20      -0.2717
      9  NE2       25.4280   13.0510   47.5270 N.am   20  GLN20      -0.0878
     10  N         28.2960   11.7170   44.1920 N.3    24  GLY24      -0.1225
     11  CA        28.9190   12.3990   45.3480 C.3    24  GLY24       0.1811
     12  C         29.0800   13.9050   45.1250 C.2    24  GLY24       0.2280
     13  O         30.1980   14.4140   45.0610 O.2    24  GLY24      -0.2866
     14  N         27.3940   16.3900   47.0440 N.3    26  CYS26      -0.1221
     15  CA        27.0130   17.1890   48.2270 C.3    26  CYS26       0.1808
     16  C         27.7720   18.5290   48.2990 C.2    26  CYS26       0.2601
     17  O         27.1880   19.5720   48.5840 O.2    26  CYS26      -0.2717
     18  CB        27.2070   16.3960   49.5160 C.3    26  CYS26       0.0970
     19  SG        28.9180   15.9690   49.9020 S.3    26  CYS26      -0.0800
     20  N         29.0620   18.4850   48.0060 N.am   27  TRP27      -0.1976
     21  CA        29.9130   19.6800   47.9970 C.3    27  TRP27       0.1640
     22  C         29.4270   20.7510   47.0150 C.2    27  TRP27       0.2290
     23  O         29.5470   21.9490   47.2910 O.2    27  TRP27      -0.2864
     24  CB        31.3720   19.2810   47.6960 C.3    27  TRP27       0.0576
     25  CG        31.5280   18.5890   46.3930 C.ar   27  TRP27       0.0006
     26  CD1       31.3380   17.2560   46.1340 C.ar   27  TRP27       0.0946
     27  CD2       31.8990   19.1900   45.1480 C.ar   27  TRP27       0.0152
     28  NE1       31.5450   16.9990   44.8100 N.ar   27  TRP27      -0.2442
     29  CE2       31.8900   18.1680   44.1750 C.ar   27  TRP27       0.0810
     30  CE3       32.2010   20.4980   44.7520 C.ar   27  TRP27       0.0012
     31  CZ2       32.2020   18.4110   42.8350 C.ar   27  TRP27       0.0191
     32  CZ3       32.5030   20.7400   43.4100 C.ar   27  TRP27       0.0001
     33  CH2       32.5110   19.7020   42.4760 C.ar   27  TRP27       0.0015
     34  N         41.0130   20.3710   43.0210 N.3    64  GLY64      -0.1225
     35  CA        41.0410   19.2020   43.9080 C.3    64  GLY64       0.1811
     36  C         39.7010   18.4990   43.9890 C.2    64  GLY64       0.2280
     37  O         39.5270   17.5660   44.7780 O.2    64  GLY64      -0.2866
     38  N         36.8510   16.1030   42.4810 N.3    66  LYS66      -0.1245
     39  CA        36.8300   14.9050   41.6520 C.3    66  LYS66       0.1561
     40  C         35.4060   14.5310   41.2960 C.2    66  LYS66       0.2260
     41  O         35.0430   13.3590   41.3620 O.2    66  LYS66      -0.2867
     42  CB        37.5060   13.7480   42.3830 C.3    66  LYS66       0.0271
     43  CG        38.7680   14.1310   43.1400 C.3    66  LYS66       0.0035
     44  CD        39.1100   13.0950   44.1910 C.3    66  LYS66       0.0206
     45  CE        38.0500   13.0150   45.2790 C.3    66  LYS66       0.1093
     46  NZ        38.1250   11.7280   46.0100 N.3    66  LYS66      -0.1314
     47  N         33.0170   11.8840   42.6350 N.3    69  GLY69      -0.1210
     48  CA        33.8800   11.2860   43.6540 C.3    69  GLY69       0.1956
     49  C         34.0020   12.0940   44.9360 C.2    69  GLY69       0.2612
     50  O         34.4630   11.5740   45.9420 O.2    69  GLY69      -0.2717
     51  N         33.5750   13.3610   44.9000 N.am   70  GLY70      -0.1942
     52  CA        33.6930   14.2880   46.0370 C.3    70  GLY70       0.2014
     53  C         34.3900   15.5930   45.6280 C.2    70  GLY70       0.2639
     54  O         34.8460   15.7400   44.4910 O.2    70  GLY70      -0.2714
     55  N         34.4890   16.5250   46.5740 N.am   71  GLY71      -0.1939
     56  CA        34.9380   17.8890   46.2870 C.3    71  GLY71       0.2014
     57  C         34.8410   18.7870   47.5060 C.2    71  GLY71       0.2639
     58  O         34.3840   18.3570   48.5800 O.2    71  GLY71      -0.2714
     59  N         35.3350   20.0180   47.3400 N.am   72  TYR72      -0.1959
     60  CA        35.3790   21.0250   48.3970 C.3    72  TYR72       0.1771
     61  C         34.5830   22.2550   47.9490 C.2    72  TYR72       0.2619
     62  O         34.6370   22.6670   46.7790 O.2    72  TYR72      -0.2715
     63  CB        36.8340   21.4100   48.7140 C.3    72  TYR72       0.0574
     64  CG        37.6800   20.2570   49.1850 C.ar   72  TYR72      -0.0198
     65  CD1       37.7710   19.9330   50.5320 C.ar   72  TYR72      -0.0009
     66  CD2       38.3970   19.4830   48.2710 C.ar   72  TYR72      -0.0009
     67  CE1       38.5290   18.8640   50.9580 C.ar   72  TYR72       0.0417
     68  CE2       39.1620   18.4090   48.6850 C.ar   72  TYR72       0.0417
     69  CZ        39.2350   18.1060   50.0240 C.ar   72  TYR72       0.1957
     70  OH        40.0010   17.0400   50.4180 O.3    72  TYR72      -0.2866
     71  N         33.8300   22.8320   48.8790 N.am   73  MET73      -0.1963
     72  CA        33.0540   24.0370   48.6000 C.3    73  MET73       0.1736
     73  C         33.9860   25.2160   48.3100 C.2    73  MET73       0.2617
     74  O         33.7450   25.9720   47.3790 O.2    73  MET73      -0.2715
     75  CB        32.1480   24.3380   49.7860 C.3    73  MET73       0.0427
     76  CG        31.0530   23.2850   49.9630 C.3    73  MET73       0.0599
     77  SD        31.5350   21.7300   50.7590 S.3    73  MET73      -0.1393
     78  CE        31.6680   22.2690   52.4550 C.3    73  MET73       0.0692
     79  N         35.0670   25.3220   49.0770 N.am   74  THR74      -0.1951
     80  CA        36.0560   26.3970   48.8940 C.3    74  THR74       0.1897
     81  C         36.6230   26.3620   47.4920 C.2    74  THR74       0.2313
     82  O         36.6450   27.3770   46.7880 O.2    74  THR74      -0.2863
     83  CB        37.2120   26.2940   49.8930 C.3    74  THR74       0.1794
     84  OG1       37.7740   24.9780   49.8610 O.3    74  THR74      -0.2208
     85  CG2       36.7350   26.5900   51.3030 C.3    74  THR74       0.0378
     86  N         31.2320   21.6460   56.4750 N.3   139  GLY139     -0.1225
     87  CA        31.5030   20.2130   56.4670 C.3   139  GLY139      0.1811
     88  C         31.0400   19.5590   57.7520 C.2   139  GLY139      0.2280
     89  O         31.2200   20.1160   58.8550 O.2   139  GLY139     -0.2866
     90  N         35.0270   15.1400   59.3560 N.3   164  VAL164     -0.1231
     91  CA        33.9540   15.4890   58.4350 C.3   164  VAL164      0.1692
     92  C         34.0520   14.7570   57.0850 C.2   164  VAL164      0.2592
     93  O         35.1270   14.4350   56.6090 O.2   164  VAL164     -0.2718
     94  CB        33.8270   17.0190   58.2490 C.3   164  VAL164      0.0266
     95  CG1       33.6760   17.7050   59.6040 C.3   164  VAL164      0.0020
     96  CG2       35.0050   17.5980   57.4780 C.3   164  VAL164      0.0020
     97  N         32.9070   14.4940   56.4760 N.am  165  ASN165     -0.1960
     98  CA        32.8420   13.7080   55.2300 C.3   165  ASN165      0.1819
     99  C         31.7980   14.1780   54.2440 C.2   165  ASN165      0.2621
    100  O         31.7600   13.6830   53.1130 O.2   165  ASN165     -0.2715
    101  CB        32.5920   12.2370   55.5850 C.3   165  ASN165      0.1195
    102  CG        31.6270   12.0860   56.7570 C.2   165  ASN165      0.2630
    103  OD1       30.4660   12.4530   56.6450 O.2   165  ASN165     -0.2716
    104  ND2       32.0990   11.5660   57.8750 N.am  165  ASN165     -0.0877
    105  N         30.9610   15.1360   54.6690 N.am  166  HIS166     -0.1959
    106  CA        29.8680   15.6880   53.8700 C.3   166  HIS166      0.1787
    107  C         29.7170   17.2130   54.0020 C.2   166  HIS166      0.2620
    108  O         29.7830   17.7920   55.0950 O.2   166  HIS166     -0.2715
    109  CB        28.5290   15.0030   54.2140 C.3   166  HIS166      0.0785
    110  CG        28.4400   13.6010   53.7070 C.ar  166  HIS166      0.0821
    111  ND1       28.9870   12.5380   54.3850 N.ar  166  HIS166     -0.2267
    112  CD2       27.9120   13.0900   52.5680 C.ar  166  HIS166      0.1154
    113  CE1       28.7970   11.4290   53.6930 C.ar  166  HIS166      0.1986
    114  NE2       28.1410   11.7350   52.5910 N.ar  166  HIS166     -0.2212
    115  N         29.5250   17.8330   52.8420 N.am  167  GLY167     -0.1954
    116  CA        29.2260   19.2430   52.7200 C.3   167  GLY167      0.1869
    117  C         27.7290   19.4860   52.6510 C.2   167  GLY167      0.2309
    118  O         27.0280   18.8520   51.8940 O.2   167  GLY167     -0.2863
    119  N         19.6400   15.3480   49.8780 N.3   188  TRP188     -0.1241
    120  CA        19.0020   14.0410   49.7090 C.3   188  TRP188      0.1605
    121  C         17.4830   14.1520   49.5380 C.2   188  TRP188      0.2264
    122  O         16.7360   13.2730   49.9990 O.2   188  TRP188     -0.2867
    123  CB        19.2400   13.2020   50.9640 C.3   188  TRP188      0.0550
    124  CG        20.6810   12.9610   51.2700 C.ar  188  TRP188      0.0003
    125  CD1       21.3880   13.4500   52.3250 C.ar  188  TRP188      0.0946
    126  CD2       21.5820   12.1770   50.5080 C.ar  188  TRP188      0.0152
    127  NE1       22.6910   13.0040   52.2670 N.ar  188  TRP188     -0.2442
    128  CE2       22.8280   12.2180   51.1560 C.ar  188  TRP188      0.0810
    129  CE3       21.4520   11.4160   49.3510 C.ar  188  TRP188      0.0012
    130  CZ2       23.9310   11.5360   50.6730 C.ar  188  TRP188      0.0191
    131  CZ3       22.5530   10.7380   48.8740 C.ar  188  TRP188      0.0001
    132  CH2       23.7680   10.8090   49.5250 C.ar  188  TRP188      0.0015
    133  N         35.1110   23.6040   59.1070 N.3   213  TYR213     -0.1241
    134  CA        35.4250   24.1260   57.7660 C.3   213  TYR213      0.1605
    135  C         34.2590   24.8980   57.1110 C.2   213  TYR213      0.2264
    136  O         33.6240   24.4200   56.1850 O.2   213  TYR213     -0.2867
    137  CB        35.9140   22.9770   56.8700 C.3   213  TYR213      0.0534
    138  CG        37.0120   22.1590   57.5250 C.ar  213  TYR213     -0.0201
    139  CD1       38.3230   22.6440   57.6060 C.ar  213  TYR213     -0.0009
    140  CD2       36.7390   20.9110   58.0790 C.ar  213  TYR213     -0.0009
    141  CE1       39.3190   21.9090   58.2210 C.ar  213  TYR213      0.0417
    142  CE2       37.7310   20.1690   58.6980 C.ar  213  TYR213      0.0417
    143  CZ        39.0220   20.6700   58.7600 C.ar  213  TYR213      0.1957
    144  OH        40.0110   19.9350   59.3670 O.3   213  TYR213     -0.2866
@<TRIPOS>BOND
     1    40    41    2
     2    40    39    1
     3    39    42    1
     4    39    38    1
     5    42    43    1
     6    33    31   ar
     7    33    32   ar
     8    47    48    1
     9    31    29   ar
    10    34    35    1
    11    43    44    1
    12     4     3    2
    13    32    30   ar
    14    48    49    1
    15    35    36    1
    16    36    37    2
    17     3     2    1
    18    29    28   ar
    19    29    27   ar
    20    44    45    1
    21    10    11    1
    22    54    53    2
    23     2     1    1
    24     2     5    1
    25    30    27   ar
    26    28    26   ar
    27    51    49   am
    28    51    52    1
    29    49    50    2
    30    13    12    2
    31    12    11    1
    32    27    25   ar
    33    45    46    1
    34     5     6    1
    35    53    52    1
    36    53    55   am
    37    26    25   ar
    38    56    55    1
    39    56    57    1
    40    25    24    1
    41     6     7    1
    42    62    61    2
    43    82    81    2
    44    22    23    2
    45    22    21    1
    46    14    15    1
    47    59    57   am
    48    59    60    1
    49    74    73    2
    50    81    80    1
    51    57    58    2
    52     9     7   am
    53     7     8    2
    54    24    21    1
    55    61    60    1
    56    61    71   am
    57    21    20    1
    58    20    16   am
    59    15    16    1
    60    15    18    1
    61    66    68   ar
    62    66    64   ar
    63    16    17    2
    64    73    72    1
    65    73    79   am
    66    60    63    1
    67    72    71    1
    68    72    75    1
    69    68    69   ar
    70    63    64    1
    71   131   129   ar
    72   131   132   ar
    73    80    79    1
    74    80    83    1
    75    64    65   ar
    76   129   126   ar
    77    18    19    1
    78   132   130   ar
    79   121   120    1
    80   121   122    2
    81   120   119    1
    82   120   123    1
    83    75    76    1
    84    84    83    1
    85    83    85    1
    86    76    77    1
    87    69    70    1
    88    69    67   ar
    89   126   128   ar
    90   126   124   ar
    91    65    67   ar
    92   130   128   ar
    93    77    78    1
    94   123   124    1
    95   128   127   ar
    96   124   125   ar
    97   118   117    2
    98   127   125   ar
    99   112   114   ar
   100   112   110   ar
   101   114   113   ar
   102   117   116    1
   103   116   115    1
   104   115   107   am
   105   100    99    2
   106   113   111   ar
   107   110   109    1
   108   110   111   ar
   109   106   107    1
   110   106   109    1
   111   106   105    1
   112   107   108    2
   113    99   105   am
   114    99    98    1
   115    98   101    1
   116    98    97    1
   117   101   102    1
   118   136   135    2
   119    87    86    1
   120    87    88    1
   121    97    92   am
   122    93    92    2
   123   103   102    2
   124   102   104   am
   125   137   138    1
   126   137   134    1
   127    92    91    1
   128   135   134    1
   129    96    94    1
   130   138   139   ar
   131   138   140   ar
   132   139   141   ar
   133    88    89    2
   134   134   133    1
   135   140   142   ar
   136   141   143   ar
   137    94    91    1
   138    94    95    1
   139    91    90    1
   140   142   143   ar
   141   143   144    1
