@<TRIPOS>MOLECULE
tmp/4bqwA00.pdb
 198 187 0 0 0
SMALL
GASTEIGER

@<TRIPOS>ATOM
      1  N        -34.4170   36.2620    3.0770 N.3    52  GLN52      -0.1245
      2  CA       -35.4090   36.4920    4.1200 C.3    52  GLN52       0.1566
      3  C        -34.9030   37.5140    5.1290 C.2    52  GLN52       0.2260
      4  O        -33.7900   37.4010    5.6480 O.2    52  GLN52      -0.2867
      5  CB       -35.7520   35.1850    4.8460 C.3    52  GLN52       0.0367
      6  CG       -36.8600   35.3720    5.8710 C.3    52  GLN52       0.0905
      7  CD       -37.2680   34.0940    6.5790 C.2    52  GLN52       0.2608
      8  OE1      -38.1230   34.1200    7.4650 O.2    52  GLN52      -0.2717
      9  NE2      -36.6670   32.9690    6.1930 N.am   52  GLN52      -0.0878
     10  N        -31.8140   33.1620    3.9620 N.3    67  ASP67      -0.1239
     11  CA       -32.0770   32.3580    2.7790 C.3    67  ASP67       0.1674
     12  C        -32.6400   33.1160    1.5860 C.2    67  ASP67       0.2266
     13  O        -33.6270   33.8480    1.7010 O.2    67  ASP67      -0.2867
     14  CB       -33.0020   31.1780    3.1140 C.3    67  ASP67       0.1410
     15  CG       -34.3780   31.6190    3.5920 C.2    67  ASP67       0.3668
     16  OD1      -34.5080   32.0490    4.7590 O.co2  67  ASP67      -0.2456
     17  OD2      -35.3330   31.5350    2.7980 O.co2  67  ASP67      -0.2456
     18  N        -34.1800   32.7790   -2.3130 N.3    69  ILE69      -0.1245
     19  CA       -34.8950   31.7680   -3.0840 C.3    69  ILE69       0.1561
     20  C        -35.3200   32.2150   -4.4710 C.2    69  ILE69       0.2260
     21  O        -35.3140   33.4080   -4.8080 O.2    69  ILE69      -0.2867
     22  CB       -36.1820   31.2800   -2.3580 C.3    69  ILE69       0.0252
     23  CG1      -37.1740   32.4340   -2.2090 C.3    69  ILE69       0.0019
     24  CG2      -35.8350   30.6970   -0.9860 C.3    69  ILE69       0.0019
     25  CD1      -38.5170   32.0150   -1.6380 C.3    69  ILE69       0.0001
     26  N        -38.1690   30.4300   -7.5690 N.3    71  TRP71      -0.1241
     27  CA       -39.0440   29.3450   -7.9930 C.3    71  TRP71       0.1605
     28  C        -38.7160   28.9670   -9.4310 C.2    71  TRP71       0.2264
     29  O        -38.6740   29.8280  -10.3070 O.2    71  TRP71      -0.2867
     30  CB       -40.5040   29.7790   -7.8900 C.3    71  TRP71       0.0550
     31  CG       -40.9930   29.8870   -6.4830 C.ar   71  TRP71       0.0003
     32  CD1      -41.1320   31.0230   -5.7420 C.ar   71  TRP71       0.0946
     33  CD2      -41.4090   28.8060   -5.6480 C.ar   71  TRP71       0.0152
     34  NE1      -41.6150   30.7130   -4.4900 N.ar   71  TRP71      -0.2442
     35  CE2      -41.7940   29.3580   -4.4080 C.ar   71  TRP71       0.0810
     36  CE3      -41.4970   27.4200   -5.8290 C.ar   71  TRP71       0.0012
     37  CZ2      -42.2600   28.5720   -3.3490 C.ar   71  TRP71       0.0191
     38  CZ3      -41.9610   26.6380   -4.7790 C.ar   71  TRP71       0.0001
     39  CH2      -42.3360   27.2170   -3.5550 C.ar   71  TRP71       0.0015
     40  N        -38.3220   24.9260   -5.4790 N.3   112  MET112     -0.1245
     41  CA       -37.8450   26.1030   -4.7700 C.3   112  MET112      0.1570
     42  C        -36.3430   25.9180   -4.5810 C.2   112  MET112      0.2261
     43  O        -35.9010   25.0490   -3.8260 O.2   112  MET112     -0.2867
     44  CB       -38.4970   26.2750   -3.4050 C.3   112  MET112      0.0387
     45  CG       -37.9260   27.4870   -2.6590 C.3   112  MET112      0.0595
     46  SD       -38.4140   27.5490   -0.9370 S.3   112  MET112     -0.1393
     47  CE       -37.4460   26.1460   -0.2420 C.3   112  MET112      0.0692
     48  N        -33.0200   27.1980   -3.0950 N.3   114  ALA114     -0.1245
     49  CA       -32.6690   28.0670   -1.9900 C.3   114  ALA114      0.1562
     50  C        -31.1760   28.1950   -1.8330 C.2   114  ALA114      0.2260
     51  O        -30.4360   27.2440   -2.0660 O.2   114  ALA114     -0.2867
     52  CB       -33.2650   27.5350   -0.6980 C.3   114  ALA114      0.0290
     53  N        -28.4570   29.6780    1.0750 N.3   116  TYR116     -0.1241
     54  CA       -28.1170   30.3180    2.3400 C.3   116  TYR116      0.1605
     55  C        -26.7770   30.9590    1.9600 C.2   116  TYR116      0.2264
     56  O        -25.8570   30.2670    1.5380 O.2   116  TYR116     -0.2867
     57  CB       -27.9800   29.2910    3.4560 C.3   116  TYR116      0.0534
     58  CG       -29.3190   28.7520    3.9050 C.ar  116  TYR116     -0.0201
     59  CD1      -29.9770   27.7590    3.1750 C.ar  116  TYR116     -0.0009
     60  CD2      -29.9640   29.2900    5.0180 C.ar  116  TYR116     -0.0009
     61  CE1      -31.2490   27.3190    3.5400 C.ar  116  TYR116      0.0417
     62  CE2      -31.2320   28.8640    5.3940 C.ar  116  TYR116      0.0417
     63  CZ       -31.8710   27.8830    4.6560 C.ar  116  TYR116      0.1957
     64  OH       -33.1360   27.4850    5.0150 O.3   116  TYR116     -0.2866
     65  N        -32.3620   28.6290    9.3030 N.3   123  TYR123     -0.1241
     66  CA       -33.8040   28.6630    9.1480 C.3   123  TYR123      0.1605
     67  C        -34.4420   28.1170   10.4260 C.2   123  TYR123      0.2264
     68  O        -34.1670   26.9960   10.8520 O.2   123  TYR123     -0.2867
     69  CB       -34.2240   27.8530    7.9200 C.3   123  TYR123      0.0534
     70  CG       -35.5830   28.2400    7.3880 C.ar  123  TYR123     -0.0201
     71  CD1      -36.7470   27.8150    8.0260 C.ar  123  TYR123     -0.0009
     72  CD2      -35.7030   29.0590    6.2660 C.ar  123  TYR123     -0.0009
     73  CE1      -38.0090   28.1970    7.5570 C.ar  123  TYR123      0.0417
     74  CE2      -36.9570   29.4520    5.7890 C.ar  123  TYR123      0.0417
     75  CZ       -38.1000   29.0170    6.4390 C.ar  123  TYR123      0.1957
     76  OH       -39.3340   29.4080    5.9670 O.3   123  TYR123     -0.2866
     77  N        -39.5520   24.7380   12.1840 N.3   126  HIS126     -0.1241
     78  CA       -40.8920   24.8940   11.6310 C.3   126  HIS126      0.1621
     79  C        -41.3990   23.5620   11.1050 C.2   126  HIS126      0.2264
     80  O        -40.6690   22.5750   11.0630 O.2   126  HIS126     -0.2867
     81  CB       -40.8630   25.8850   10.4680 C.3   126  HIS126      0.0745
     82  CG       -40.0500   25.4110    9.2980 C.ar  126  HIS126      0.0817
     83  ND1      -38.6710   25.3850    9.3110 N.ar  126  HIS126     -0.2268
     84  CD2      -40.4280   24.8640    8.1170 C.ar  126  HIS126      0.1154
     85  CE1      -38.2330   24.8310    8.1900 C.ar  126  HIS126      0.1986
     86  NE2      -39.2790   24.5060    7.4530 N.ar  126  HIS126     -0.2212
     87  N        -43.3730   22.1420    7.6710 N.3   128  ASP128     -0.1239
     88  CA       -43.6550   22.6000    6.3160 C.3   128  ASP128      0.1674
     89  C        -45.1370   22.8390    6.0830 C.2   128  ASP128      0.2266
     90  O        -45.5330   23.9140    5.6240 O.2   128  ASP128     -0.2867
     91  CB       -43.1300   21.5900    5.2880 C.3   128  ASP128      0.1410
     92  CG       -41.6430   21.7420    5.0230 C.2   128  ASP128      0.3668
     93  OD1      -41.0390   22.6960    5.5520 O.co2 128  ASP128     -0.2456
     94  OD2      -41.0810   20.9160    4.2810 O.co2 128  ASP128     -0.2456
     95  N        -49.7570   19.3910    0.8980 N.3   135  ARG135     -0.1245
     96  CA       -48.4270   18.8090    0.7550 C.3   135  ARG135      0.1563
     97  C        -48.1800   17.6650    1.7320 C.2   135  ARG135      0.2260
     98  O        -48.2640   17.8410    2.9510 O.2   135  ARG135     -0.2867
     99  CB       -47.3770   19.9110    0.9290 C.3   135  ARG135      0.0307
    100  CG       -47.4780   20.9940   -0.1330 C.3   135  ARG135      0.0489
    101  CD       -46.4960   22.1180    0.1400 C.3   135  ARG135      0.2205
    102  NE       -46.8800   22.8870    1.3150 N.pl3 135  ARG135     -0.0865
    103  CZ       -46.0390   23.6370    2.0180 C.cat 135  ARG135      0.5346
    104  NH1      -44.7650   23.7060    1.6640 N.pl3 135  ARG135      0.1354
    105  NH2      -46.4730   24.3340    3.0590 N.pl3 135  ARG135      0.1354
    106  N        -35.9730   17.0710   -0.9900 N.3   140  ILE140     -0.1245
    107  CA       -34.8800   18.0350   -1.1080 C.3   140  ILE140      0.1561
    108  C        -33.6430   17.4120   -1.7330 C.2   140  ILE140      0.2260
    109  O        -33.2280   16.3250   -1.3400 O.2   140  ILE140     -0.2867
    110  CB       -34.4780   18.6190    0.2810 C.3   140  ILE140      0.0252
    111  CG1      -35.7250   19.1680    0.9950 C.3   140  ILE140      0.0019
    112  CG2      -33.4620   19.7430    0.1040 C.3   140  ILE140      0.0019
    113  CD1      -35.4180   19.8000    2.3690 C.3   140  ILE140      0.0001
    114  N        -29.6290   18.1690   -2.4760 N.3   142  TYR142     -0.1241
    115  CA       -28.5310   19.0420   -2.0830 C.3   142  TYR142      0.1605
    116  C        -27.4120   19.1060   -3.1260 C.2   142  TYR142      0.2264
    117  O        -27.1770   18.1360   -3.8450 O.2   142  TYR142     -0.2867
    118  CB       -27.9940   18.6070   -0.7250 C.3   142  TYR142      0.0534
    119  CG       -29.0290   18.7130    0.3840 C.ar  142  TYR142     -0.0201
    120  CD1      -29.3610   19.9560    0.9370 C.ar  142  TYR142     -0.0009
    121  CD2      -29.6700   17.5800    0.8790 C.ar  142  TYR142     -0.0009
    122  CE1      -30.3140   20.0650    1.9670 C.ar  142  TYR142      0.0417
    123  CE2      -30.6270   17.6730    1.9120 C.ar  142  TYR142      0.0417
    124  CZ       -30.9370   18.9180    2.4460 C.ar  142  TYR142      0.1957
    125  OH       -31.8640   18.9980    3.4600 O.3   142  TYR142     -0.2866
    126  N        -29.2700   20.1000    8.5350 N.3   156  LEU156     -0.1245
    127  CA       -30.7230   20.0820    8.6250 C.3   156  LEU156      0.1561
    128  C        -31.0200   19.1920    9.8240 C.2   156  LEU156      0.2260
    129  O        -30.6840   18.0090    9.8260 O.2   156  LEU156     -0.2867
    130  CB       -31.3690   19.4680    7.3710 C.3   156  LEU156      0.0270
    131  CG       -32.8280   19.0790    7.6110 C.3   156  LEU156      0.0019
    132  CD1      -33.6700   20.3240    7.8900 C.3   156  LEU156      0.0001
    133  CD2      -33.3700   18.3280    6.4000 C.3   156  LEU156      0.0001
    134  N        -39.1700   13.3960    3.3050 N.3   179  PHE179     -0.1241
    135  CA       -39.7370   13.3450    4.6560 C.3   179  PHE179      0.1605
    136  C        -41.1750   13.8340    4.6460 C.2   179  PHE179      0.2264
    137  O        -41.5480   14.6310    3.7870 O.2   179  PHE179     -0.2867
    138  CB       -38.8850   14.0980    5.7100 C.3   179  PHE179      0.0534
    139  CG       -38.7330   15.5860    5.4830 C.ar  179  PHE179     -0.0203
    140  CD1      -39.6800   16.4880    5.9810 C.ar  179  PHE179     -0.0042
    141  CD2      -37.5940   16.0920    4.8610 C.ar  179  PHE179     -0.0042
    142  CE1      -39.4880   17.8650    5.8620 C.ar  179  PHE179     -0.0003
    143  CE2      -37.3940   17.4720    4.7410 C.ar  179  PHE179     -0.0003
    144  CZ       -38.3430   18.3620    5.2460 C.ar  179  PHE179     -0.0000
    145  N        -38.5620   20.8220   11.7490 N.3   187  HIS187     -0.1241
    146  CA       -37.1370   20.8410   11.4390 C.3   187  HIS187      0.1621
    147  C        -36.5900   22.2570   11.3340 C.2   187  HIS187      0.2264
    148  O        -37.3440   23.2230   11.2490 O.2   187  HIS187     -0.2867
    149  CB       -36.8560   20.0930   10.1250 C.3   187  HIS187      0.0745
    150  CG       -37.6770   20.5850    8.9750 C.ar  187  HIS187      0.0817
    151  ND1      -39.0240   20.3100    8.8510 N.ar  187  HIS187     -0.2268
    152  CD2      -37.3520   21.3650    7.9190 C.ar  187  HIS187      0.1154
    153  CE1      -39.4920   20.9070    7.7700 C.ar  187  HIS187      0.1986
    154  NE2      -38.5010   21.5590    7.1900 N.ar  187  HIS187     -0.2212
    155  N        -32.8100   24.6060    9.9130 N.3   189  VAL189     -0.1245
    156  CA       -31.5210   24.5800    9.2330 C.3   189  VAL189      0.1561
    157  C        -30.6000   25.3280   10.1840 C.2   189  VAL189      0.2260
    158  O        -30.8530   26.4870   10.5090 O.2   189  VAL189     -0.2867
    159  CB       -31.5630   25.3060    7.8800 C.3   189  VAL189      0.0252
    160  CG1      -30.1390   25.3840    7.2680 C.3   189  VAL189      0.0019
    161  CG2      -32.5350   24.5740    6.9370 C.3   189  VAL189      0.0019
    162  N        -24.8050   27.6470    0.8580 N.3   196  ARG196     -0.1245
    163  CA       -25.5030   26.3640    0.8860 C.3   196  ARG196      0.1563
    164  C        -26.6760   26.3620   -0.0860 C.2   196  ARG196      0.2260
    165  O        -27.6080   27.1570    0.0660 O.2   196  ARG196     -0.2867
    166  CB       -26.0220   26.1190    2.3080 C.3   196  ARG196      0.0307
    167  CG       -26.7710   24.8150    2.5620 C.3   196  ARG196      0.0489
    168  CD       -27.3410   24.9120    3.9680 C.3   196  ARG196      0.2205
    169  NE       -27.9070   23.6830    4.5340 N.pl3 196  ARG196     -0.0865
    170  CZ       -29.1200   23.2050    4.2650 C.cat 196  ARG196      0.5346
    171  NH1      -29.9030   23.8060    3.3840 N.pl3 196  ARG196      0.1354
    172  NH2      -29.5640   22.1430    4.9200 N.pl3 196  ARG196      0.1354
    173  N        -29.7610   24.1310   -2.2130 N.3   198  ALA198     -0.1245
    174  CA       -30.6530   22.9800   -2.1720 C.3   198  ALA198      0.1562
    175  C        -31.8610   23.2780   -3.0520 C.2   198  ALA198      0.2260
    176  O        -32.2310   24.4420   -3.2590 O.2   198  ALA198     -0.2867
    177  CB       -31.1140   22.6890   -0.7430 C.3   198  ALA198      0.0290
    178  N        -35.9030   22.1790   -3.5270 N.3   200  THR200     -0.1218
    179  CA       -37.0240   21.5000   -2.8930 C.3   200  THR200      0.1862
    180  C        -38.2780   21.4820   -3.7510 C.2   200  THR200      0.2287
    181  O        -38.5990   22.4600   -4.4200 O.2   200  THR200     -0.2866
    182  CB       -37.4060   22.1900   -1.5410 C.3   200  THR200      0.1770
    183  OG1      -36.2940   22.1450   -0.6390 O.3   200  THR200     -0.2211
    184  CG2      -38.6120   21.4820   -0.8830 C.3   200  THR200      0.0375
    185  N        -42.3810   19.9700   -3.2650 N.3   202  TRP202     -0.1241
    186  CA       -43.3190   19.3530   -2.3390 C.3   202  TRP202      0.1605
    187  C        -44.3630   18.6030   -3.1540 C.2   202  TRP202      0.2264
    188  O        -44.8530   19.1240   -4.1590 O.2   202  TRP202     -0.2867
    189  CB       -44.0180   20.4140   -1.4940 C.3   202  TRP202      0.0550
    190  CG       -43.1720   20.9920   -0.4060 C.ar  202  TRP202      0.0003
    191  CD1      -42.9940   20.4860    0.8470 C.ar  202  TRP202      0.0946
    192  CD2      -42.4230   22.2090   -0.4620 C.ar  202  TRP202      0.0152
    193  NE1      -42.1840   21.3190    1.5820 N.ar  202  TRP202     -0.2442
    194  CE2      -41.8180   22.3820    0.8010 C.ar  202  TRP202      0.0810
    195  CE3      -42.2030   23.1690   -1.4560 C.ar  202  TRP202      0.0012
    196  CZ2      -41.0050   23.4830    1.1000 C.ar  202  TRP202      0.0191
    197  CZ3      -41.3930   24.2670   -1.1600 C.ar  202  TRP202      0.0001
    198  CH2      -40.8070   24.4110    0.1090 C.ar  202  TRP202      0.0015
@<TRIPOS>BOND
     1    29    28    2
     2    28    27    1
     3    27    30    1
     4    27    26    1
     5    30    31    1
     6    31    32   ar
     7    31    33   ar
     8    36    33   ar
     9    36    38   ar
    10    32    34   ar
    11    33    35   ar
    12    40    41    1
    13    21    20    2
    14    38    39   ar
    15    41    42    1
    16    41    44    1
    17    42    43    2
    18    34    35   ar
    19    20    19    1
    20   181   180    2
    21    35    37   ar
    22   188   187    2
    23   117   116    2
    24   180   179    1
    25    39    37   ar
    26   178   179    1
    27    44    45    1
    28   185   186    1
    29   176   175    2
    30   187   186    1
    31   116   115    1
    32    48    49    1
    33    19    22    1
    34    19    18    1
    35   175   174    1
    36   179   182    1
    37    45    46    1
    38   114   115    1
    39    22    23    1
    40    22    24    1
    41   186   189    1
    42   173   174    1
    43    23    25    1
    44   174   177    1
    45   115   118    1
    46    51    50    2
    47    49    50    1
    48    49    52    1
    49   108   109    2
    50   108   107    1
    51   182   184    1
    52   182   183    1
    53   189   190    1
    54   195   197   ar
    55   195   192   ar
    56   197   198   ar
    57   107   106    1
    58   107   110    1
    59    46    47    1
    60   118   119    1
    61   192   190   ar
    62   192   194   ar
    63   190   191   ar
    64   100   101    1
    65   100    99    1
    66   164   165    2
    67   164   163    1
    68   112   110    1
    69   198   196   ar
    70   101   102    1
    71   110   111    1
    72   119   121   ar
    73   119   120   ar
    74    96    95    1
    75    96    99    1
    76    96    97    1
    77   194   196   ar
    78   194   193   ar
    79   191   193   ar
    80   162   163    1
    81   121   123   ar
    82   163   166    1
    83   120   122   ar
    84   111   113    1
    85    53    54    1
    86   102   103    2
    87    56    55    2
    88    12    13    2
    89    12    11    1
    90   104   103    1
    91    97    98    2
    92   123   124   ar
    93    55    54    1
    94   122   124   ar
    95   103   105    1
    96   166   167    1
    97    54    57    1
    98   124   125    1
    99   167   168    1
   100    11    14    1
   101    11    10    1
   102    17    15   ar
   103     1     2    1
   104    14    15    1
   105    59    61   ar
   106    59    58   ar
   107   134   135    1
   108   171   170    1
   109    57    58    1
   110    61    63   ar
   111    15    16   ar
   112   137   136    2
   113    58    60   ar
   114   168   169    1
   115     2     5    1
   116     2     3    1
   117   170   169    2
   118   170   172    1
   119    94    92   ar
   120   136   135    1
   121   135   138    1
   122    63    64    1
   123    63    62   ar
   124   143   141   ar
   125   143   144   ar
   126     5     6    1
   127   141   139   ar
   128    60    62   ar
   129    92    91    1
   130    92    93   ar
   131     3     4    2
   132   144   142   ar
   133    91    88    1
   134   139   138    1
   135   139   140   ar
   136    90    89    2
   137    74    72   ar
   138    74    75   ar
   139   142   140   ar
   140     6     7    1
   141    76    75    1
   142    89    88    1
   143     9     7   am
   144    72    70   ar
   145    88    87    1
   146   133   131    1
   147    75    73   ar
   148     7     8    2
   149   161   159    1
   150   154   153   ar
   151   154   152   ar
   152   160   159    1
   153   130   131    1
   154   130   127    1
   155    70    69    1
   156    70    71   ar
   157    86    84   ar
   158    86    85   ar
   159    73    71   ar
   160   131   132    1
   161   153   151   ar
   162   159   156    1
   163   152   150   ar
   164    69    66    1
   165    84    82   ar
   166    85    83   ar
   167   126   127    1
   168   127   128    1
   169   151   150   ar
   170   150   149    1
   171    66    65    1
   172    66    67    1
   173   156   155    1
   174   156   157    1
   175    82    83   ar
   176    82    81    1
   177   128   129    2
   178   149   146    1
   179   157   158    2
   180    67    68    2
   181    81    78    1
   182    80    79    2
   183    79    78    1
   184   148   147    2
   185   147   146    1
   186   146   145    1
   187    78    77    1
