@<TRIPOS>MOLECULE
tmp/4bqyA00.pdb
 198 186 0 0 0
SMALL
GASTEIGER

@<TRIPOS>ATOM
      1  N        -48.7380  -12.0620    3.1390 N.3    52  GLN52      -0.1245
      2  CA       -49.3950  -12.8690    4.1480 C.3    52  GLN52       0.1566
      3  C        -50.0640  -11.9130    5.1200 C.2    52  GLN52       0.2260
      4  O        -49.4470  -10.9760    5.5820 O.2    52  GLN52      -0.2867
      5  CB       -48.3900  -13.7380    4.8970 C.3    52  GLN52       0.0367
      6  CG       -49.1200  -14.7400    5.8210 C.3    52  GLN52       0.0905
      7  CD       -48.2460  -15.7890    6.4500 C.2    52  GLN52       0.2608
      8  OE1      -48.7440  -16.5570    7.2810 O.2    52  GLN52      -0.2717
      9  NE2      -46.9570  -15.8460    6.0850 N.am   52  GLN52      -0.0878
     10  N        -44.8390  -11.4770    3.9340 N.3    67  ASP67      -0.1239
     11  CA       -44.2310  -12.0970    2.7460 C.3    67  ASP67       0.1674
     12  C        -45.1910  -12.2130    1.5910 C.2    67  ASP67       0.2266
     13  O        -46.2890  -12.6830    1.7510 O.2    67  ASP67      -0.2867
     14  CB       -43.6460  -13.4610    3.0630 C.3    67  ASP67       0.1410
     15  CG       -44.6980  -14.4960    3.4100 C.2    67  ASP67       0.3668
     16  OD1      -45.1490  -14.5390    4.5990 O.co2  67  ASP67      -0.2456
     17  OD2      -45.0660  -15.2640    2.5080 O.co2  67  ASP67      -0.2456
     18  N        -45.6220  -13.7820   -2.4070 N.3    69  ILE69      -0.1245
     19  CA       -45.0660  -14.8750   -3.1900 C.3    69  ILE69       0.1561
     20  C        -45.5400  -14.8870   -4.6340 C.2    69  ILE69       0.2260
     21  O        -46.5870  -14.3400   -4.9730 O.2    69  ILE69      -0.2867
     22  CB       -45.2920  -16.2610   -2.5250 C.3    69  ILE69       0.0252
     23  CG1      -46.7660  -16.5380   -2.3280 C.3    69  ILE69       0.0019
     24  CG2      -44.5530  -16.3280   -1.2150 C.3    69  ILE69       0.0019
     25  CD1      -47.0600  -17.9560   -1.7520 C.3    69  ILE69       0.0001
     26  N        -40.8890  -21.1620   -5.6130 N.3   112  MET112     -0.1245
     27  CA       -41.6590  -20.1690   -4.8750 C.3   112  MET112      0.1570
     28  C        -40.7200  -18.9800   -4.6190 C.2   112  MET112      0.2261
     29  O        -39.7380  -19.0400   -3.8450 O.2   112  MET112     -0.2867
     30  CB       -42.1710  -20.7640   -3.5730 C.3   112  MET112      0.0387
     31  CG       -43.1430  -19.8480   -2.8820 C.3   112  MET112      0.0595
     32  SD       -43.4670  -20.2620   -1.1590 S.3   112  MET112     -0.1393
     33  CE       -41.9300  -19.8360   -0.3870 C.3   112  MET112      0.0692
     34  N        -40.2010  -15.5040   -2.9990 N.3   114  ALA114     -0.1245
     35  CA       -40.7390  -14.7830   -1.8430 C.3   114  ALA114      0.1562
     36  C        -40.0650  -13.4200   -1.7100 C.2   114  ALA114      0.2260
     37  O        -38.8530  -13.3090   -1.8980 O.2   114  ALA114     -0.2867
     38  CB       -40.5210  -15.5620   -0.5650 C.3   114  ALA114      0.0290
     39  N        -40.0460  -10.4400    1.2120 N.3   116  TYR116     -0.1241
     40  CA       -40.3790   -9.7950    2.4720 C.3   116  TYR116      0.1605
     41  C        -40.1810   -8.2920    2.1890 C.2   116  TYR116      0.2264
     42  O        -39.0890   -7.8780    1.8560 O.2   116  TYR116     -0.2867
     43  CB       -39.5100  -10.3050    3.6210 C.3   116  TYR116      0.0534
     44  CG       -39.7900  -11.7360    3.9850 C.ar  116  TYR116     -0.0201
     45  CD1      -39.2830  -12.7720    3.2250 C.ar  116  TYR116     -0.0009
     46  CD2      -40.5970  -12.0530    5.0600 C.ar  116  TYR116     -0.0009
     47  CE1      -39.5670  -14.0940    3.5240 C.ar  116  TYR116      0.0417
     48  CE2      -40.8920  -13.3650    5.3860 C.ar  116  TYR116      0.0417
     49  CZ       -40.3770  -14.3960    4.6250 C.ar  116  TYR116      0.1957
     50  OH       -40.6870  -15.6990    4.9520 O.3   116  TYR116     -0.2866
     51  N        -41.3040  -14.3070    9.3310 N.3   123  TYR123     -0.1241
     52  CA       -42.0650  -15.5480    9.2210 C.3   123  TYR123      0.1605
     53  C        -41.8910  -16.3450   10.4990 C.2   123  TYR123      0.2264
     54  O        -40.7720  -16.6310   10.9280 O.2   123  TYR123     -0.2867
     55  CB       -41.5850  -16.3790    8.0200 C.3   123  TYR123      0.0534
     56  CG       -42.6060  -17.3550    7.5100 C.ar  123  TYR123     -0.0201
     57  CD1      -42.8380  -18.5640    8.1480 C.ar  123  TYR123     -0.0009
     58  CD2      -43.3330  -17.0950    6.3730 C.ar  123  TYR123     -0.0009
     59  CE1      -43.8080  -19.4660    7.6830 C.ar  123  TYR123      0.0417
     60  CE2      -44.3010  -17.9810    5.9080 C.ar  123  TYR123      0.0417
     61  CZ       -44.5160  -19.1830    6.5480 C.ar  123  TYR123      0.1957
     62  OH       -45.4690  -20.0610    6.0340 O.3   123  TYR123     -0.2866
     63  N        -41.6400  -22.4190   12.2170 N.3   126  HIS126     -0.1226
     64  CA       -42.4000  -23.4540   11.5590 C.3   126  HIS126      0.1752
     65  C        -41.4580  -24.5610   11.0600 C.2   126  HIS126      0.2596
     66  O        -40.2530  -24.4110   11.0060 O.2   126  HIS126     -0.2718
     67  CB       -43.1490  -22.9330   10.3510 C.3   126  HIS126      0.0759
     68  CG       -42.2430  -22.4440    9.2670 C.ar  126  HIS126      0.0818
     69  ND1      -41.5160  -21.2840    9.3810 N.ar  126  HIS126     -0.2268
     70  CD2      -41.9050  -22.9850    8.0660 C.ar  126  HIS126      0.1154
     71  CE1      -40.7610  -21.1300    8.3010 C.ar  126  HIS126      0.1986
     72  NE2      -40.9800  -22.1530    7.4950 N.ar  126  HIS126     -0.2212
     73  N        -42.0920  -25.6690   10.7050 N.am  127  VAL127     -0.1966
     74  CA       -41.4720  -26.7610    9.9700 C.3   127  VAL127      0.1727
     75  C        -42.1150  -26.7710    8.5930 C.2   127  VAL127      0.2616
     76  O        -43.3340  -26.6600    8.4430 O.2   127  VAL127     -0.2715
     77  CB       -41.7370  -28.1020   10.6870 C.3   127  VAL127      0.0290
     78  CG1      -41.3850  -29.2960    9.8220 C.3   127  VAL127      0.0023
     79  CG2      -40.9670  -28.1380   11.9640 C.3   127  VAL127      0.0023
     80  N        -41.2980  -26.9040    7.5630 N.am  128  ASP128     -0.1971
     81  CA       -41.7910  -26.8480    6.2110 C.3   128  ASP128      0.1709
     82  C        -42.7360  -28.0110    5.9350 C.2   128  ASP128      0.2293
     83  O        -43.8000  -27.8050    5.3660 O.2   128  ASP128     -0.2864
     84  CB       -40.6280  -26.8800    5.1990 C.3   128  ASP128      0.1436
     85  CG       -39.9790  -25.5180    4.9820 C.2   128  ASP128      0.3671
     86  OD1      -40.3970  -24.5210    5.6480 O.co2 128  ASP128     -0.2456
     87  OD2      -39.0290  -25.4580    4.1390 O.co2 128  ASP128     -0.2456
     88  N        -42.1110  -33.9080    0.9320 N.3   135  ARG135     -0.1245
     89  CA       -40.9620  -33.0110    0.7320 C.3   135  ARG135      0.1563
     90  C        -39.8430  -33.3450    1.6960 C.2   135  ARG135      0.2260
     91  O        -40.0280  -33.3320    2.9080 O.2   135  ARG135     -0.2867
     92  CB       -41.3820  -31.5470    0.8950 C.3   135  ARG135      0.0307
     93  CG       -42.3230  -31.0990   -0.1510 C.3   135  ARG135      0.0489
     94  CD       -42.7680  -29.6580    0.0600 C.3   135  ARG135      0.2205
     95  NE       -43.7140  -29.5590    1.1580 N.pl3 135  ARG135     -0.0865
     96  CZ       -43.9640  -28.4660    1.8680 C.cat 135  ARG135      0.5346
     97  NH1      -43.3190  -27.3390    1.6330 N.pl3 135  ARG135      0.1354
     98  NH2      -44.8900  -28.5000    2.8250 N.pl3 135  ARG135      0.1354
     99  N        -35.4430  -28.8480    1.3940 N.3   138  THR138     -0.1218
    100  CA       -35.6390  -27.4540    1.0650 C.3   138  THR138      0.1862
    101  C        -34.3560  -26.8670    0.4940 C.2   138  THR138      0.2287
    102  O        -33.3040  -26.9840    1.0940 O.2   138  THR138     -0.2866
    103  CB       -36.0630  -26.6530    2.2940 C.3   138  THR138      0.1770
    104  OG1      -37.2210  -27.2820    2.8470 O.3   138  THR138     -0.2211
    105  CG2      -36.3740  -25.2270    1.8810 C.3   138  THR138      0.0375
    106  N        -33.0480  -23.1970   -1.0610 N.3   140  ILE140     -0.1245
    107  CA       -33.3830  -21.7850   -1.1800 C.3   140  ILE140      0.1561
    108  C        -32.1460  -21.0140   -1.6620 C.2   140  ILE140      0.2260
    109  O        -31.0070  -21.3080   -1.2550 O.2   140  ILE140     -0.2867
    110  CB       -34.0030  -21.2760    0.1370 C.3   140  ILE140      0.0252
    111  CG1      -34.4070  -19.8030    0.0290 C.3   140  ILE140      0.0019
    112  CG2      -33.0400  -21.5140    1.2990 C.3   140  ILE140      0.0019
    113  CD1      -35.2130  -19.3080    1.2370 C.3   140  ILE140      0.0001
    114  N        -30.7360  -17.0800   -2.2440 N.3   142  TYR142     -0.1241
    115  CA       -30.9060  -15.6840   -1.8280 C.3   142  TYR142      0.1605
    116  C        -30.2900  -14.6920   -2.8330 C.2   142  TYR142      0.2264
    117  O        -29.2770  -15.0070   -3.4400 O.2   142  TYR142     -0.2867
    118  CB       -30.2540  -15.4930   -0.4780 C.3   142  TYR142      0.0534
    119  CG       -30.8600  -16.3000    0.6300 C.ar  142  TYR142     -0.0201
    120  CD1      -32.0980  -15.9560    1.1520 C.ar  142  TYR142     -0.0009
    121  CD2      -30.2090  -17.3880    1.1730 C.ar  142  TYR142     -0.0009
    122  CE1      -32.6600  -16.6910    2.1840 C.ar  142  TYR142      0.0417
    123  CE2      -30.7700  -18.1220    2.2100 C.ar  142  TYR142      0.0417
    124  CZ       -32.0120  -17.7570    2.7060 C.ar  142  TYR142      0.1957
    125  OH       -32.5610  -18.4680    3.7580 O.3   142  TYR142     -0.2866
    126  N        -32.3920  -15.7910    8.8020 N.3   156  LEU156     -0.1245
    127  CA       -32.9980  -17.0960    8.9610 C.3   156  LEU156      0.1561
    128  C        -32.3920  -17.7320   10.1940 C.2   156  LEU156      0.2260
    129  O        -31.1840  -17.8600   10.2790 O.2   156  LEU156     -0.2867
    130  CB       -32.6660  -17.9930    7.7500 C.3   156  LEU156      0.0270
    131  CG       -33.0200  -19.4870    7.8660 C.3   156  LEU156      0.0019
    132  CD1      -34.5020  -19.6310    7.9880 C.3   156  LEU156      0.0001
    133  CD2      -32.5030  -20.2500    6.6700 C.3   156  LEU156      0.0001
    134  N        -31.6040  -27.6870    3.3470 N.3   179  PHE179     -0.1241
    135  CA       -31.8560  -28.2640    4.6640 C.3   179  PHE179      0.1605
    136  C        -32.9940  -29.2700    4.6130 C.2   179  PHE179      0.2264
    137  O        -33.8740  -29.1680    3.7680 O.2   179  PHE179     -0.2867
    138  CB       -32.0680  -27.2160    5.7840 C.3   179  PHE179      0.0534
    139  CG       -33.2580  -26.2790    5.5800 C.ar  179  PHE179     -0.0203
    140  CD1      -34.5220  -26.6130    6.0380 C.ar  179  PHE179     -0.0042
    141  CD2      -33.0860  -25.0200    4.9940 C.ar  179  PHE179     -0.0042
    142  CE1      -35.5950  -25.7340    5.8570 C.ar  179  PHE179     -0.0003
    143  CE2      -34.1490  -24.1370    4.8360 C.ar  179  PHE179     -0.0003
    144  CZ       -35.4130  -24.4990    5.2680 C.ar  179  PHE179     -0.0000
    145  N        -37.6150  -23.5420   11.8360 N.3   187  HIS187     -0.1241
    146  CA       -36.9110  -22.3250   11.4980 C.3   187  HIS187      0.1621
    147  C        -37.8710  -21.1580   11.4050 C.2   187  HIS187      0.2264
    148  O        -39.0820  -21.3480   11.3830 O.2   187  HIS187     -0.2867
    149  CB       -36.1140  -22.5170   10.2030 C.3   187  HIS187      0.0745
    150  CG       -36.9700  -22.9100    9.0290 C.ar  187  HIS187      0.0817
    151  ND1      -37.4520  -24.1860    8.8710 N.ar  187  HIS187     -0.2268
    152  CD2      -37.4430  -22.1940    7.9760 C.ar  187  HIS187      0.1154
    153  CE1      -38.1900  -24.2340    7.7670 C.ar  187  HIS187      0.1986
    154  NE2      -38.2230  -23.0350    7.2250 N.ar  187  HIS187     -0.2212
    155  N        -37.9440  -16.7070    9.9880 N.3   189  VAL189     -0.1245
    156  CA       -37.3320  -15.5160    9.4130 C.3   189  VAL189      0.1561
    157  C        -37.6030  -14.3580   10.3850 C.2   189  VAL189      0.2260
    158  O        -38.7740  -13.9840   10.6370 O.2   189  VAL189     -0.2867
    159  CB       -37.9040  -15.1890    8.0430 C.3   189  VAL189      0.0252
    160  CG1      -37.2450  -13.9710    7.4630 C.3   189  VAL189      0.0019
    161  CG2      -37.7030  -16.3430    7.0960 C.3   189  VAL189      0.0019
    162  N        -36.4000   -8.1230    0.8470 N.3   196  ARG196     -0.1245
    163  CA       -35.6280   -9.3470    0.9720 C.3   196  ARG196      0.1563
    164  C        -36.2300  -10.4090    0.0560 C.2   196  ARG196      0.2260
    165  O        -37.3700  -10.8160    0.2510 O.2   196  ARG196     -0.2867
    166  CB       -35.7150   -9.8670    2.3970 C.3   196  ARG196      0.0307
    167  CG       -34.8820  -11.0680    2.7750 C.3   196  ARG196      0.0489
    168  CD       -35.3780  -11.5810    4.1000 C.3   196  ARG196      0.2205
    169  NE       -34.6780  -12.6710    4.7550 N.pl3 196  ARG196     -0.0865
    170  CZ       -34.8650  -13.9780    4.5310 C.cat 196  ARG196      0.5346
    171  NH1      -35.7180  -14.3720    3.5950 N.pl3 196  ARG196      0.1354
    172  NH2      -34.2580  -14.8810    5.2630 N.pl3 196  ARG196      0.1354
    173  N        -35.9580  -14.1900   -1.9850 N.3   198  ALA198     -0.1245
    174  CA       -35.4270  -15.5450   -2.0250 C.3   198  ALA198      0.1562
    175  C        -36.2740  -16.4250   -2.9590 C.2   198  ALA198      0.2260
    176  O        -37.4380  -16.1210   -3.2150 O.2   198  ALA198     -0.2867
    177  CB       -35.3580  -16.1340   -0.6760 C.3   198  ALA198      0.0290
    178  N        -37.2930  -20.5130   -3.4810 N.3   200  THR200     -0.1218
    179  CA       -37.2980  -21.8530   -2.8800 C.3   200  THR200      0.1862
    180  C        -37.8870  -22.8950   -3.7890 C.2   200  THR200      0.2287
    181  O        -38.8770  -22.6520   -4.4570 O.2   200  THR200     -0.2866
    182  CB       -38.2080  -21.8690   -1.6240 C.3   200  THR200      0.1770
    183  OG1      -37.6750  -20.9610   -0.6540 O.3   200  THR200     -0.2211
    184  CG2      -38.2580  -23.2510   -0.9950 C.3   200  THR200      0.0375
    185  N        -38.7430  -27.1900   -3.2990 N.3   202  TRP202     -0.1241
    186  CA       -38.7460  -28.3630   -2.4240 C.3   202  TRP202      0.1605
    187  C        -38.6270  -29.6500   -3.2360 C.2   202  TRP202      0.2264
    188  O        -39.3280  -29.8110   -4.2380 O.2   202  TRP202     -0.2867
    189  CB       -40.0410  -28.4150   -1.6100 C.3   202  TRP202      0.0550
    190  CG       -40.1250  -27.3520   -0.5020 C.ar  202  TRP202      0.0003
    191  CD1      -39.6180  -27.4660    0.7480 C.ar  202  TRP202      0.0946
    192  CD2      -40.8060  -26.1040   -0.5550 C.ar  202  TRP202      0.0152
    193  NE1      -39.9190  -26.3400    1.4930 N.ar  202  TRP202     -0.2442
    194  CE2      -40.6500  -25.4920    0.7150 C.ar  202  TRP202      0.0810
    195  CE3      -41.5160  -25.4190   -1.5530 C.ar  202  TRP202      0.0012
    196  CZ2      -41.1710  -24.2390    1.0100 C.ar  202  TRP202      0.0191
    197  CZ3      -42.0600  -24.1960   -1.2380 C.ar  202  TRP202      0.0001
    198  CH2      -41.8710  -23.6130    0.0340 C.ar  202  TRP202      0.0015
@<TRIPOS>BOND
     1    26    27    1
     2    21    20    2
     3    27    28    1
     4    27    30    1
     5    20    19    1
     6    28    29    2
     7   181   180    2
     8   188   187    2
     9   180   179    1
    10    30    31    1
    11   178   179    1
    12   117   116    2
    13   185   186    1
    14   187   186    1
    15   176   175    2
    16    19    22    1
    17    19    18    1
    18    34    35    1
    19   175   174    1
    20    31    32    1
    21   179   182    1
    22   116   115    1
    23    22    23    1
    24    22    24    1
    25   186   189    1
    26    23    25    1
    27   114   115    1
    28   174   173    1
    29   174   177    1
    30    37    36    2
    31    35    36    1
    32    35    38    1
    33   115   118    1
    34   108   109    2
    35   108   107    1
    36   182   184    1
    37   182   183    1
    38   189   190    1
    39   195   197   ar
    40   195   192   ar
    41   197   198   ar
    42   107   106    1
    43   107   110    1
    44    32    33    1
    45   192   190   ar
    46   192   194   ar
    47   190   191   ar
    48   118   119    1
    49    93    94    1
    50    93    92    1
    51   111   110    1
    52   111   113    1
    53   198   196   ar
    54   164   165    2
    55   164   163    1
    56    94    95    1
    57   110   112    1
    58   101   100    1
    59   101   102    2
    60   119   120   ar
    61   119   121   ar
    62   194   196   ar
    63   194   193   ar
    64    89    92    1
    65    89    88    1
    66    89    90    1
    67   191   193   ar
    68   162   163    1
    69   163   166    1
    70   100    99    1
    71   100   103    1
    72   120   122   ar
    73    95    96    2
    74   121   123   ar
    75    39    40    1
    76    12    13    2
    77    12    11    1
    78    97    96    1
    79    90    91    2
    80    42    41    2
    81    96    98    1
    82   105   103    1
    83   122   124   ar
    84    41    40    1
    85   123   124   ar
    86   103   104    1
    87   166   167    1
    88    40    43    1
    89    17    15   ar
    90   124   125    1
    91    11    14    1
    92    11    10    1
    93   167   168    1
    94    14    15    1
    95     1     2    1
    96    45    47   ar
    97    45    44   ar
    98   134   135    1
    99    15    16   ar
   100    47    49   ar
   101   171   170    1
   102    43    44    1
   103   137   136    2
   104    44    46   ar
   105   168   169    1
   106    87    85   ar
   107     2     5    1
   108     2     3    1
   109   170   169    2
   110   170   172    1
   111   136   135    1
   112    49    50    1
   113    49    48   ar
   114   135   138    1
   115   143   141   ar
   116   143   144   ar
   117     5     6    1
   118    85    84    1
   119    85    86   ar
   120   141   139   ar
   121    46    48   ar
   122     3     4    2
   123    84    81    1
   124   144   142   ar
   125    83    82    2
   126   139   138    1
   127   139   140   ar
   128     6     7    1
   129   142   140   ar
   130    60    58   ar
   131    60    61   ar
   132    82    81    1
   133    62    61    1
   134     9     7   am
   135    81    80    1
   136    58    56   ar
   137     7     8    2
   138    61    59   ar
   139   133   131    1
   140   161   159    1
   141   154   153   ar
   142   154   152   ar
   143   160   159    1
   144    72    70   ar
   145    72    71   ar
   146    56    55    1
   147    56    57   ar
   148    80    75   am
   149    59    57   ar
   150   130   131    1
   151   130   127    1
   152   153   151   ar
   153   131   132    1
   154   152   150   ar
   155    55    52    1
   156   159   156    1
   157    70    68   ar
   158    71    69   ar
   159    76    75    2
   160    75    74    1
   161   126   127    1
   162   151   150   ar
   163   127   128    1
   164   150   149    1
   165    52    51    1
   166    52    53    1
   167    68    69   ar
   168    68    67    1
   169   156   155    1
   170   156   157    1
   171    78    77    1
   172    74    77    1
   173    74    73    1
   174   128   129    2
   175   149   146    1
   176    67    64    1
   177   157   158    2
   178    53    54    2
   179    77    79    1
   180    73    65   am
   181    66    65    2
   182    65    64    1
   183   148   147    2
   184   147   146    1
   185   146   145    1
   186    64    63    1
