@<TRIPOS>MOLECULE
tmp/4br0A00.pdb
 176 170 0 0 0
SMALL
GASTEIGER

@<TRIPOS>ATOM
      1  N         21.9460   39.4320   15.1430 N.3    10  ASP10      -0.1239
      2  CA        21.5690   38.3410   16.0240 C.3    10  ASP10       0.1674
      3  C         21.3900   39.0020   17.3900 C.2    10  ASP10       0.2266
      4  O         22.4050   39.3940   18.0300 O.2    10  ASP10      -0.2867
      5  CB        22.7640   37.3960   16.1080 C.3    10  ASP10       0.1410
      6  CG        22.5410   36.2590   17.0650 C.2    10  ASP10       0.3668
      7  OD1       21.6810   36.3740   18.0230 O.co2  10  ASP10      -0.2456
      8  OD2       23.2160   35.2210   16.8400 O.co2  10  ASP10      -0.2456
      9  N         20.6600   38.3710   20.7670 N.3    12  GLY12      -0.1210
     10  CA        20.5550   37.2410   21.6660 C.3    12  GLY12       0.1956
     11  C         20.2010   37.7710   23.0470 C.2    12  GLY12       0.2613
     12  O         20.2010   38.9930   23.2480 O.2    12  GLY12      -0.2717
     13  N         19.8920   36.8710   23.9950 N.am   13  SER13      -0.1938
     14  CA        19.5660   37.3070   25.3670 C.3    13  SER13       0.2055
     15  C         20.7270   38.0910   26.0460 C.2    13  SER13       0.2644
     16  O         20.4800   39.0310   26.7870 O.2    13  SER13      -0.2714
     17  CB        19.1850   36.1140   26.2200 C.3    13  SER13       0.2130
     18  OG        20.3160   35.2540   26.4730 O.3    13  SER13      -0.2179
     19  N         21.9820   37.7340   25.8300 N.am   14  SER14      -0.1935
     20  CA        23.0410   38.4280   26.6350 C.3    14  SER14       0.2055
     21  C         23.8030   39.4690   25.7560 C.2    14  SER14       0.2643
     22  O         24.5900   40.2370   26.2690 O.2    14  SER14      -0.2714
     23  CB        24.0240   37.4100   27.2330 C.3    14  SER14       0.2130
     24  OG        24.7790   36.8010   26.1370 O.3    14  SER14      -0.2179
     25  N         23.5890   39.4640   24.4310 N.am   15  HIS15      -0.1973
     26  CA        24.3440   40.4130   23.5290 C.3    15  HIS15       0.1656
     27  C         23.7720   40.4090   22.1220 C.2    15  HIS15       0.2291
     28  O         23.0770   39.4820   21.7300 O.2    15  HIS15      -0.2864
     29  CB        25.8670   40.0770   23.3960 C.3    15  HIS15       0.0771
     30  CG        26.1410   38.7850   22.6940 C.ar   15  HIS15       0.0820
     31  ND1       26.5640   37.6480   23.3560 N.ar   15  HIS15      -0.2267
     32  CD2       26.0270   38.4350   21.3910 C.ar   15  HIS15       0.1154
     33  CE1       26.7120   36.6600   22.4880 C.ar   15  HIS15       0.1986
     34  NE2       26.3710   37.1070   21.2910 N.ar   15  HIS15      -0.2212
     35  N         16.1240   36.2710   19.9430 N.3    87  THR87      -0.1203
     36  CA        15.9380   34.8980   20.4080 C.3    87  THR87       0.1994
     37  C         15.3480   34.8170   21.8270 C.2    87  THR87       0.2617
     38  O         14.4190   35.5810   22.0980 O.2    87  THR87      -0.2717
     39  CB        17.2070   34.0720   20.1400 C.3    87  THR87       0.1784
     40  OG1       18.3740   34.7440   20.7120 O.3    87  THR87      -0.2211
     41  CG2       17.3600   33.9240   18.6040 C.3    87  THR87       0.0376
     42  N         15.8560   33.9650   22.7350 N.am   88  ALA88      -0.1979
     43  CA        15.0960   33.6590   23.9870 C.3    88  ALA88       0.1597
     44  C         15.0350   34.7990   24.9610 C.2    88  ALA88       0.2287
     45  O         14.1360   34.8720   25.8650 O.2    88  ALA88      -0.2864
     46  CB        15.6710   32.4210   24.6680 C.3    88  ALA88       0.0319
     47  N         15.1960   28.9030   15.4700 N.3   130  GLU130     -0.1245
     48  CA        16.5110   29.1090   16.0090 C.3   130  GLU130      0.1567
     49  C         17.2890   27.8410   15.8060 C.2   130  GLU130      0.2260
     50  O         18.4660   27.8800   15.4130 O.2   130  GLU130     -0.2867
     51  CB        16.3780   29.4930   17.5250 C.3   130  GLU130      0.0388
     52  CG        17.6470   30.0750   18.0610 C.3   130  GLU130      0.1160
     53  CD        17.5020   30.5600   19.5120 C.2   130  GLU130      0.3649
     54  OE1       16.3640   30.5910   20.0670 O.co2 130  GLU130     -0.2457
     55  OE2       18.5690   30.8700   20.0870 O.co2 130  GLU130     -0.2457
     56  N         23.2250   24.1720   20.2310 N.3   166  ASP166     -0.1225
     57  CA        23.4930   25.5950   20.4220 C.3   166  ASP166      0.1805
     58  C         23.2160   25.9290   21.8880 C.2   166  ASP166      0.2598
     59  O         22.0730   25.6890   22.4240 O.2   166  ASP166     -0.2718
     60  CB        22.6250   26.3590   19.4170 C.3   166  ASP166      0.1424
     61  CG        22.7740   27.9150   19.5180 C.2   166  ASP166      0.3668
     62  OD1       23.5350   28.4220   20.3810 O.co2 166  ASP166     -0.2456
     63  OD2       22.0530   28.6270   18.7640 O.co2 166  ASP166     -0.2456
     64  N         24.2400   26.3580   22.6190 N.am  167  LEU167     -0.1966
     65  CA        23.9970   26.7090   24.0280 C.3   167  LEU167      0.1728
     66  C         24.0600   28.2180   24.1250 C.2   167  LEU167      0.2617
     67  O         25.1460   28.8080   24.1210 O.2   167  LEU167     -0.2715
     68  CB        24.9750   26.0520   25.0410 C.3   167  LEU167      0.0311
     69  CG        24.7120   26.4300   26.5310 C.3   167  LEU167      0.0022
     70  CD1       23.2570   26.1480   26.9170 C.3   167  LEU167      0.0001
     71  CD2       25.6840   25.7480   27.5000 C.3   167  LEU167      0.0001
     72  N         22.8830   28.8240   24.1620 N.am  168  GLY168     -0.1940
     73  CA        22.7690   30.2720   24.2320 C.3   168  GLY168      0.2014
     74  C         22.6920   30.6710   25.7220 C.2   168  GLY168      0.2639
     75  O         22.9960   29.8700   26.6070 O.2   168  GLY168     -0.2714
     76  N         22.3220   31.9170   25.9850 N.am  169  GLY169     -0.1939
     77  CA        22.2350   32.3890   27.3490 C.3   169  GLY169      0.2014
     78  C         20.8860   32.0570   28.0050 C.2   169  GLY169      0.2639
     79  O         20.8480   31.8710   29.2240 O.2   169  GLY169     -0.2714
     80  N         19.7960   31.9650   27.2470 N.am  170  ALA170     -0.1963
     81  CA        18.4490   31.7650   27.8670 C.3   170  ALA170      0.1728
     82  C         17.7530   30.5200   27.3230 C.2   170  ALA170      0.2616
     83  O         16.7880   30.0440   27.9460 O.2   170  ALA170     -0.2715
     84  CB        17.5540   32.9850   27.6510 C.3   170  ALA170      0.0334
     85  N         18.1660   29.9910   26.1770 N.am  171  SER171     -0.1950
     86  CA        17.6580   28.6450   25.7590 C.3   171  SER171      0.1924
     87  C         18.7850   27.8090   25.1490 C.2   171  SER171      0.2314
     88  O         19.8880   28.3390   24.8620 O.2   171  SER171     -0.2863
     89  CB        16.4930   28.7230   24.7720 C.3   171  SER171      0.2116
     90  OG        17.0050   29.2590   23.5640 O.3   171  SER171     -0.2180
     91  N         22.7560   29.0220   29.2740 N.3   210  ARG210     -0.1231
     92  CA        23.7550   29.1270   30.2990 C.3   210  ARG210      0.1694
     93  C         23.4240   30.0910   31.4480 C.2   210  ARG210      0.2592
     94  O         23.6120   29.7440   32.6270 O.2   210  ARG210     -0.2718
     95  CB        25.1010   29.5110   29.6380 C.3   210  ARG210      0.0321
     96  CG        26.1770   29.9380   30.6210 C.3   210  ARG210      0.0489
     97  CD        27.3730   30.4450   29.7700 C.3   210  ARG210      0.2205
     98  NE        28.4660   30.8790   30.6410 N.pl3 210  ARG210     -0.0865
     99  CZ        28.4470   31.9800   31.4030 C.cat 210  ARG210      0.5346
    100  NH1       27.4130   32.8260   31.3460 N.pl3 210  ARG210      0.1354
    101  NH2       29.4730   32.2430   32.2230 N.pl3 210  ARG210      0.1354
    102  N         23.0170   31.3170   31.1220 N.am  211  ASP211     -0.1974
    103  CA        22.7940   32.3730   32.1330 C.3   211  ASP211      0.1709
    104  C         21.5240   32.0310   32.9590 C.2   211  ASP211      0.2293
    105  O         21.5010   32.2300   34.1480 O.2   211  ASP211     -0.2864
    106  CB        22.5510   33.6850   31.4490 C.3   211  ASP211      0.1436
    107  CG        23.7790   34.1270   30.5910 C.2   211  ASP211      0.3671
    108  OD1       24.9020   33.7770   30.9400 O.co2 211  ASP211     -0.2456
    109  OD2       23.6300   34.8360   29.5750 O.co2 211  ASP211     -0.2456
    110  N         28.5350   28.0380   20.2770 N.3   304  SER304     -0.1202
    111  CA        28.2000   29.0270   21.2880 C.3   304  SER304      0.2020
    112  C         28.8140   28.6260   22.6440 C.2   304  SER304      0.2618
    113  O         30.0110   28.2820   22.7080 O.2   304  SER304     -0.2717
    114  CB        26.6820   29.2890   21.3260 C.3   304  SER304      0.2103
    115  OG        25.9500   28.0760   21.2740 O.3   304  SER304     -0.2182
    116  N         28.0380   28.6360   23.7320 N.am  305  ALA305     -0.1979
    117  CA        28.6360   28.3170   25.0600 C.3   305  ALA305      0.1597
    118  C         29.1370   26.8970   25.2560 C.2   305  ALA305      0.2287
    119  O         29.9910   26.6460   26.1550 O.2   305  ALA305     -0.2864
    120  CB        27.7400   28.7450   26.2040 C.3   305  ALA305      0.0319
    121  N         32.7500   27.6470   24.0450 N.3   308  TYR308     -0.1227
    122  CA        33.5120   28.4810   24.9910 C.3   308  TYR308      0.1736
    123  C         33.8500   27.7100   26.2770 C.2   308  TYR308      0.2596
    124  O         34.9050   27.8770   26.8030 O.2   308  TYR308     -0.2718
    125  CB        32.7670   29.7690   25.3630 C.3   308  TYR308      0.0548
    126  CG        32.5280   30.6220   24.1560 C.ar  308  TYR308     -0.0200
    127  CD1       33.6280   31.0790   23.4420 C.ar  308  TYR308     -0.0009
    128  CD2       31.2310   30.9910   23.7240 C.ar  308  TYR308     -0.0009
    129  CE1       33.4980   31.8610   22.3250 C.ar  308  TYR308      0.0417
    130  CE2       31.0760   31.7880   22.5460 C.ar  308  TYR308      0.0417
    131  CZ        32.2460   32.1920   21.8670 C.ar  308  TYR308      0.1957
    132  OH        32.3130   32.9880   20.7390 O.3   308  TYR308     -0.2866
    133  N         32.9190   26.9020   26.7840 N.am  309  THR309     -0.1953
    134  CA        33.1840   26.1650   28.0090 C.3   309  THR309      0.1897
    135  C         34.2050   25.0900   27.8430 C.2   309  THR309      0.2313
    136  O         35.1070   24.9600   28.6700 O.2   309  THR309     -0.2863
    137  CB        31.8820   25.5620   28.5860 C.3   309  THR309      0.1794
    138  OG1       30.9620   26.6490   28.7990 O.3   309  THR309     -0.2208
    139  CG2       32.1770   24.8740   29.8890 C.3   309  THR309      0.0378
    140  N         33.0520   35.6290   34.5200 N.3   352  ARG352     -0.1245
    141  CA        32.7000   34.2280   34.2150 C.3   352  ARG352      0.1563
    142  C         33.5170   33.1360   34.9060 C.2   352  ARG352      0.2260
    143  O         33.0700   31.9680   34.8950 O.2   352  ARG352     -0.2867
    144  CB        32.7480   33.9220   32.7070 C.3   352  ARG352      0.0307
    145  CG        31.9870   34.8680   31.8160 C.3   352  ARG352      0.0489
    146  CD        31.7640   34.1290   30.5040 C.3   352  ARG352      0.2205
    147  NE        30.8310   34.8150   29.6020 N.pl3 352  ARG352     -0.0865
    148  CZ        31.2460   35.7820   28.8080 C.cat 352  ARG352      0.5346
    149  NH1       32.5440   36.1200   28.8470 N.pl3 352  ARG352      0.1354
    150  NH2       30.3970   36.3830   27.9840 N.pl3 352  ARG352      0.1354
    151  N         32.5230   28.5300   35.5590 N.3   356  TYR356     -0.1241
    152  CA        32.8670   27.4470   34.6020 C.3   356  TYR356      0.1605
    153  C         32.5530   26.0740   35.0910 C.2   356  TYR356      0.2264
    154  O         32.0730   25.2600   34.3140 O.2   356  TYR356     -0.2867
    155  CB        34.3250   27.4760   34.1100 C.3   356  TYR356      0.0534
    156  CG        34.5600   28.5240   33.0800 C.ar  356  TYR356     -0.0201
    157  CD1       34.1450   28.3310   31.7650 C.ar  356  TYR356     -0.0009
    158  CD2       35.1960   29.7270   33.4210 C.ar  356  TYR356     -0.0009
    159  CE1       34.3270   29.2900   30.8120 C.ar  356  TYR356      0.0417
    160  CE2       35.4190   30.7040   32.4670 C.ar  356  TYR356      0.0417
    161  CZ        34.9770   30.4690   31.1620 C.ar  356  TYR356      0.1957
    162  OH        35.1380   31.4590   30.2130 O.3   356  TYR356     -0.2866
    163  N         22.6430   30.6950   13.9330 N.3   394  TRP394     -0.1241
    164  CA        21.4830   30.6310   13.1440 C.3   394  TRP394      0.1605
    165  C         21.4420   31.7650   12.1140 C.2   394  TRP394      0.2264
    166  O         20.6240   31.6650   11.1800 O.2   394  TRP394     -0.2867
    167  CB        20.1560   30.6680   14.0000 C.3   394  TRP394      0.0550
    168  CG        20.1020   31.9320   14.9550 C.ar  394  TRP394      0.0003
    169  CD1       20.4270   31.9530   16.2460 C.ar  394  TRP394      0.0946
    170  CD2       19.7060   33.2650   14.6030 C.ar  394  TRP394      0.0152
    171  NE1       20.3090   33.2570   16.7690 N.ar  394  TRP394     -0.2442
    172  CE2       19.8400   34.0700   15.7710 C.ar  394  TRP394      0.0810
    173  CE3       19.2310   33.8560   13.4170 C.ar  394  TRP394      0.0012
    174  CZ2       19.4730   35.4000   15.8140 C.ar  394  TRP394      0.0191
    175  CZ3       18.8980   35.2160   13.4450 C.ar  394  TRP394      0.0001
    176  CH2       19.0530   35.9830   14.6290 C.ar  394  TRP394      0.0015
@<TRIPOS>BOND
     1   166   165    2
     2   165   164    1
     3   164   163    1
     4   164   167    1
     5   173   175   ar
     6   173   170   ar
     7   175   176   ar
     8   167   168    1
     9   170   168   ar
    10   170   172   ar
    11   176   174   ar
    12   168   169   ar
    13     1     2    1
    14    50    49    2
    15    47    48    1
    16   172   174   ar
    17   172   171   ar
    18    49    48    1
    19    48    51    1
    20     2     5    1
    21     2     3    1
    22     5     6    1
    23   169   171   ar
    24     8     6   ar
    25     6     7   ar
    26     3     4    2
    27    51    52    1
    28    52    53    1
    29    41    39    1
    30    63    61   ar
    31    60    61    1
    32    60    57    1
    33    53    54   ar
    34    53    55   ar
    35    61    62   ar
    36    35    36    1
    37    39    36    1
    38    39    40    1
    39    56    57    1
    40   110   111    1
    41    36    37    1
    42    57    58    1
    43   132   131    1
    44     9    10    1
    45   115   114    1
    46   111   114    1
    47   111   112    1
    48    34    32   ar
    49    34    33   ar
    50    32    30   ar
    51    10    11    1
    52    28    27    2
    53    37    38    2
    54    37    42   am
    55   131   129   ar
    56   131   130   ar
    57    58    59    2
    58    58    64   am
    59    27    26    1
    60   129   127   ar
    61    33    31   ar
    62   130   128   ar
    63    64    65    1
    64   112   113    2
    65   112   116   am
    66    30    31   ar
    67    30    29    1
    68    42    43    1
    69    11    12    2
    70    11    13   am
    71    29    26    1
    72   127   126   ar
    73    26    25    1
    74    90    89    1
    75   128   126   ar
    76   116   117    1
    77    43    46    1
    78    43    44    1
    79    13    14    1
    80    65    66    1
    81    65    68    1
    82   121   122    1
    83    67    66    2
    84    66    72   am
    85   126   125    1
    86    72    73    1
    87    73    74    1
    88    25    21   am
    89    89    86    1
    90    88    87    2
    91    44    45    2
    92   122   125    1
    93   122   123    1
    94    68    69    1
    95   117   118    1
    96   117   120    1
    97    87    86    1
    98   118   119    2
    99    14    15    1
   100    14    17    1
   101    74    76   am
   102    74    75    2
   103    21    22    2
   104    21    20    1
   105    86    85    1
   106    19    15   am
   107    19    20    1
   108    76    77    1
   109    15    16    2
   110    24    23    1
   111    85    82   am
   112    17    18    1
   113   123   133   am
   114   123   124    2
   115    69    70    1
   116    69    71    1
   117    20    23    1
   118   133   134    1
   119    80    81    1
   120    80    78   am
   121    82    81    1
   122    82    83    2
   123    77    78    1
   124    84    81    1
   125   135   134    1
   126   135   136    2
   127   150   148    1
   128    78    79    2
   129   134   137    1
   130   137   138    1
   131   137   139    1
   132   148   149    1
   133   148   147    2
   134    91    92    1
   135   109   107   ar
   136   147   146    1
   137    95    92    1
   138    95    96    1
   139    97    96    1
   140    97    98    1
   141   162   161    1
   142    92    93    1
   143   146   145    1
   144   107   108   ar
   145   107   106    1
   146    98    99    2
   147   159   161   ar
   148   159   157   ar
   149   102    93   am
   150   102   103    1
   151   161   160   ar
   152   100    99    1
   153    99   101    1
   154    93    94    2
   155   106   103    1
   156   157   156   ar
   157   145   144    1
   158   103   104    1
   159   160   158   ar
   160   144   141    1
   161   104   105    2
   162   156   158   ar
   163   156   155    1
   164   155   152    1
   165   141   140    1
   166   141   142    1
   167   154   153    2
   168   152   153    1
   169   152   151    1
   170   143   142    2
