@<TRIPOS>MOLECULE
tmp/4br2A00.pdb
 178 171 0 0 0
SMALL
GASTEIGER

@<TRIPOS>ATOM
      1  N         21.9790   39.5420   15.1650 N.3    10  ASP10      -0.1239
      2  CA        21.6250   38.4260   15.9970 C.3    10  ASP10       0.1674
      3  C         21.4600   39.0100   17.3650 C.2    10  ASP10       0.2266
      4  O         22.4340   39.3510   18.0220 O.2    10  ASP10      -0.2867
      5  CB        22.7390   37.3630   15.9490 C.3    10  ASP10       0.1410
      6  CG        22.5730   36.2830   16.9740 C.2    10  ASP10       0.3668
      7  OD1       21.7410   36.3980   17.9280 O.co2  10  ASP10      -0.2456
      8  OD2       23.3240   35.2630   16.8430 O.co2  10  ASP10      -0.2456
      9  N         20.6630   38.2810   20.8000 N.3    12  GLY12      -0.1210
     10  CA        20.5570   37.1440   21.6820 C.3    12  GLY12       0.1956
     11  C         20.2010   37.6780   23.0500 C.2    12  GLY12       0.2613
     12  O         20.2080   38.9000   23.2410 O.2    12  GLY12      -0.2717
     13  N         19.9410   36.7780   24.0030 N.am   13  SER13      -0.1938
     14  CA        19.6530   37.2150   25.4110 C.3    13  SER13       0.2055
     15  C         20.8140   38.0300   26.0300 C.2    13  SER13       0.2644
     16  O         20.5530   38.9250   26.8300 O.2    13  SER13      -0.2714
     17  CB        19.3550   36.0000   26.2930 C.3    13  SER13       0.2130
     18  OG        20.5210   35.1480   26.5120 O.3    13  SER13      -0.2179
     19  N         22.0820   37.7280   25.6890 N.am   14  SER14      -0.1935
     20  CA        23.1890   38.3450   26.4140 C.3    14  SER14       0.2055
     21  C         23.9500   39.3940   25.5880 C.2    14  SER14       0.2643
     22  O         24.7130   40.1090   26.1680 O.2    14  SER14      -0.2714
     23  CB        24.2570   37.3360   26.9680 C.3    14  SER14       0.2130
     24  OG        24.9370   36.6450   25.8830 O.3    14  SER14      -0.2179
     25  N         23.7360   39.4780   24.2750 N.am   15  HIS15      -0.1973
     26  CA        24.6320   40.3170   23.4080 C.3    15  HIS15       0.1656
     27  C         23.8760   40.4500   22.1080 C.2    15  HIS15       0.2291
     28  O         23.0630   39.5880   21.7390 O.2    15  HIS15      -0.2864
     29  CB        25.9080   39.4740   23.0140 C.3    15  HIS15       0.0771
     30  CG        25.6210   38.4730   21.9000 C.ar   15  HIS15       0.0820
     31  ND1       24.6870   37.4460   22.0090 N.ar   15  HIS15      -0.2267
     32  CD2       26.0550   38.4270   20.6110 C.ar   15  HIS15       0.1154
     33  CE1       24.5710   36.8110   20.8500 C.ar   15  HIS15       0.1986
     34  NE2       25.4210   37.3540   19.9970 N.ar   15  HIS15      -0.2212
     35  N         16.2360   36.2200   19.9720 N.3    87  THR87      -0.1203
     36  CA        16.0560   34.8500   20.4650 C.3    87  THR87       0.1994
     37  C         15.4460   34.7810   21.8820 C.2    87  THR87       0.2617
     38  O         14.4960   35.5280   22.1420 O.2    87  THR87      -0.2717
     39  CB        17.3460   34.0440   20.2110 C.3    87  THR87       0.1784
     40  OG1       18.5030   34.8230   20.7030 O.3    87  THR87      -0.2211
     41  CG2       17.4640   33.9130   18.6600 C.3    87  THR87       0.0376
     42  N         15.9640   33.9390   22.7910 N.am   88  ALA88      -0.1979
     43  CA        15.2290   33.6470   24.0300 C.3    88  ALA88       0.1597
     44  C         15.2280   34.7820   25.0410 C.2    88  ALA88       0.2287
     45  O         14.3750   34.7700   25.9360 O.2    88  ALA88      -0.2864
     46  CB        15.7470   32.3690   24.6850 C.3    88  ALA88       0.0319
     47  N         15.2960   28.8490   15.4580 N.3   130  GLU130     -0.1245
     48  CA        16.6380   29.0760   15.9220 C.3   130  GLU130      0.1567
     49  C         17.4600   27.7950   15.7960 C.2   130  GLU130      0.2260
     50  O         18.6320   27.8260   15.3820 O.2   130  GLU130     -0.2867
     51  CB        16.5070   29.4900   17.4080 C.3   130  GLU130      0.0388
     52  CG        17.8170   29.9040   18.0330 C.3   130  GLU130      0.1160
     53  CD        17.5850   30.4790   19.4210 C.2   130  GLU130      0.3649
     54  OE1       16.4080   30.4750   19.8910 O.co2 130  GLU130     -0.2457
     55  OE2       18.5700   30.8970   20.0660 O.co2 130  GLU130     -0.2457
     56  N         23.4680   24.1090   20.2800 N.3   166  ASP166     -0.1225
     57  CA        23.7750   25.5850   20.4420 C.3   166  ASP166      0.1805
     58  C         23.4520   25.8480   21.9070 C.2   166  ASP166      0.2598
     59  O         22.2830   25.6480   22.3710 O.2   166  ASP166     -0.2718
     60  CB        22.8570   26.3750   19.4780 C.3   166  ASP166      0.1424
     61  CG        22.9600   27.9250   19.6380 C.2   166  ASP166      0.3668
     62  OD1       23.7760   28.4320   20.4380 O.co2 166  ASP166     -0.2456
     63  OD2       22.2520   28.6060   18.8580 O.co2 166  ASP166     -0.2456
     64  N         24.4630   26.2090   22.6830 N.am  167  LEU167     -0.1966
     65  CA        24.1920   26.5780   24.0860 C.3   167  LEU167      0.1728
     66  C         24.2450   28.1230   24.1460 C.2   167  LEU167      0.2617
     67  O         25.3660   28.7060   24.2500 O.2   167  LEU167     -0.2715
     68  CB        25.2420   26.0170   25.0530 C.3   167  LEU167      0.0311
     69  CG        25.0350   26.3310   26.5650 C.3   167  LEU167      0.0022
     70  CD1       23.5840   26.0520   27.0070 C.3   167  LEU167      0.0001
     71  CD2       26.0620   25.6500   27.4870 C.3   167  LEU167      0.0001
     72  N         23.0950   28.7700   24.1180 N.am  168  GLY168     -0.1940
     73  CA        23.0480   30.2340   24.2410 C.3   168  GLY168      0.2014
     74  C         23.0120   30.6350   25.7180 C.2   168  GLY168      0.2639
     75  O         23.3700   29.8300   26.5800 O.2   168  GLY168     -0.2714
     76  N         22.5730   31.8770   25.9920 N.am  169  GLY169     -0.1939
     77  CA        22.5030   32.3700   27.3590 C.3   169  GLY169      0.2014
     78  C         21.1920   32.0080   28.0200 C.2   169  GLY169      0.2639
     79  O         21.1430   31.8650   29.2290 O.2   169  GLY169     -0.2714
     80  N         20.1100   31.8850   27.2500 N.am  170  ALA170     -0.1963
     81  CA        18.7750   31.7350   27.8730 C.3   170  ALA170      0.1728
     82  C         18.0660   30.4850   27.3740 C.2   170  ALA170      0.2616
     83  O         17.1080   30.0540   28.0260 O.2   170  ALA170     -0.2715
     84  CB        17.8640   32.9610   27.6340 C.3   170  ALA170      0.0334
     85  N         18.4690   29.9400   26.2230 N.am  171  SER171     -0.1950
     86  CA        17.8900   28.6180   25.7790 C.3   171  SER171      0.1924
     87  C         19.0020   27.7710   25.1560 C.2   171  SER171      0.2314
     88  O         20.1320   28.2710   24.8580 O.2   171  SER171     -0.2863
     89  CB        16.7130   28.7970   24.7940 C.3   171  SER171      0.2116
     90  OG        17.2080   29.2360   23.5320 O.3   171  SER171     -0.2180
     91  N         19.4760   24.5920   22.0350 N.3   173  GLN173     -0.1245
     92  CA        18.8370   23.8590   20.9330 C.3   173  GLN173      0.1566
     93  C         19.6240   22.6070   20.5770 C.2   173  GLN173      0.2260
     94  O         20.8660   22.6040   20.6100 O.2   173  GLN173     -0.2867
     95  CB        18.6770   24.7430   19.6790 C.3   173  GLN173      0.0367
     96  CG        17.6480   25.8950   19.8510 C.3   173  GLN173      0.0905
     97  CD        18.1820   26.9920   20.7710 C.2   173  GLN173      0.2608
     98  OE1       17.5800   27.2650   21.8190 O.2   173  GLN173     -0.2717
     99  NE2       19.3250   27.5850   20.4260 N.am  173  GLN173     -0.0878
    100  N         22.9860   29.0490   29.3080 N.3   210  ARG210     -0.1231
    101  CA        24.0080   29.1250   30.3070 C.3   210  ARG210      0.1694
    102  C         23.6760   30.0960   31.4530 C.2   210  ARG210      0.2592
    103  O         23.8750   29.7570   32.6170 O.2   210  ARG210     -0.2718
    104  CB        25.3370   29.4850   29.6470 C.3   210  ARG210      0.0321
    105  CG        26.5180   29.8310   30.6040 C.3   210  ARG210      0.0489
    106  CD        27.7850   30.1780   29.7910 C.3   210  ARG210      0.2205
    107  NE        28.8660   30.6010   30.7030 N.pl3 210  ARG210     -0.0865
    108  CZ        28.8820   31.7710   31.3820 C.cat 210  ARG210      0.5346
    109  NH1       27.9150   32.6640   31.1990 N.pl3 210  ARG210      0.1354
    110  NH2       29.8470   32.0280   32.2720 N.pl3 210  ARG210      0.1354
    111  N         23.2860   31.3310   31.1250 N.am  211  ASP211     -0.1974
    112  CA        23.0030   32.3430   32.1660 C.3   211  ASP211      0.1709
    113  C         21.7760   31.9660   33.0260 C.2   211  ASP211      0.2293
    114  O         21.7460   32.1450   34.2470 O.2   211  ASP211     -0.2864
    115  CB        22.7770   33.6830   31.4970 C.3   211  ASP211      0.1436
    116  CG        24.0480   34.1620   30.7620 C.2   211  ASP211      0.3671
    117  OD1       25.1130   34.1090   31.4110 O.co2 211  ASP211     -0.2456
    118  OD2       23.9980   34.5500   29.5880 O.co2 211  ASP211     -0.2456
    119  N         28.7870   27.8980   20.2920 N.3   305  SER305     -0.1202
    120  CA        28.4350   28.8690   21.3460 C.3   305  SER305      0.2020
    121  C         29.0380   28.4560   22.7020 C.2   305  SER305      0.2618
    122  O         30.2630   28.1010   22.7230 O.2   305  SER305     -0.2717
    123  CB        26.9310   29.2030   21.3010 C.3   305  SER305      0.2103
    124  OG        26.1720   27.9660   21.3080 O.3   305  SER305     -0.2182
    125  N         28.2610   28.3680   23.7920 N.am  306  ALA306     -0.1979
    126  CA        28.8900   28.1000   25.1170 C.3   306  ALA306      0.1597
    127  C         29.3810   26.6470   25.3120 C.2   306  ALA306      0.2287
    128  O         30.1560   26.3740   26.2730 O.2   306  ALA306     -0.2864
    129  CB        28.0560   28.5630   26.2960 C.3   306  ALA306      0.0319
    130  N         32.9430   27.4910   24.1770 N.3   309  TYR309     -0.1241
    131  CA        33.6870   28.3960   25.1270 C.3   309  TYR309      0.1605
    132  C         34.0900   27.6320   26.3900 C.2   309  TYR309      0.2264
    133  O         35.1690   27.8370   26.9060 O.2   309  TYR309     -0.2867
    134  CB        32.8470   29.6380   25.5470 C.3   309  TYR309      0.0534
    135  CG        32.2350   30.4400   24.3960 C.ar  309  TYR309     -0.0201
    136  CD1       32.9860   30.7550   23.2480 C.ar  309  TYR309     -0.0009
    137  CD2       30.9070   30.9320   24.4870 C.ar  309  TYR309     -0.0009
    138  CE1       32.4120   31.4750   22.1780 C.ar  309  TYR309      0.0417
    139  CE2       30.3320   31.6530   23.4540 C.ar  309  TYR309      0.0417
    140  CZ        31.0940   31.9220   22.2950 C.ar  309  TYR309      0.1957
    141  OH        30.5140   32.6680   21.2780 O.3   309  TYR309     -0.2866
    142  N         33.6820   35.2500   34.5300 N.3   353  ARG353     -0.1245
    143  CA        33.2340   33.8700   34.2080 C.3   353  ARG353      0.1563
    144  C         33.9820   32.7720   34.9190 C.2   353  ARG353      0.2260
    145  O         33.5040   31.5980   34.9210 O.2   353  ARG353     -0.2867
    146  CB        33.2930   33.5950   32.6840 C.3   353  ARG353      0.0307
    147  CG        32.5030   34.5700   31.8680 C.3   353  ARG353      0.0489
    148  CD        32.4270   34.0500   30.4410 C.3   353  ARG353      0.2205
    149  NE        31.4560   34.8330   29.6890 N.pl3 353  ARG353     -0.0865
    150  CZ        31.7900   35.8730   28.9550 C.cat 353  ARG353      0.5346
    151  NH1       33.0730   36.2310   28.8890 N.pl3 353  ARG353      0.1354
    152  NH2       30.8570   36.5380   28.2950 N.pl3 353  ARG353      0.1354
    153  N         32.7920   28.2730   35.6210 N.3   357  TYR357     -0.1241
    154  CA        33.1740   27.1510   34.7150 C.3   357  TYR357      0.1605
    155  C         32.7830   25.8090   35.2790 C.2   357  TYR357      0.2264
    156  O         32.2670   24.9860   34.5400 O.2   357  TYR357     -0.2867
    157  CB        34.6740   27.1260   34.2980 C.3   357  TYR357      0.0534
    158  CG        34.9230   28.1470   33.2170 C.ar  357  TYR357     -0.0201
    159  CD1       34.4290   27.9330   31.9400 C.ar  357  TYR357     -0.0009
    160  CD2       35.5890   29.3860   33.5020 C.ar  357  TYR357     -0.0009
    161  CE1       34.6180   28.8690   30.9370 C.ar  357  TYR357      0.0417
    162  CE2       35.7790   30.3240   32.5000 C.ar  357  TYR357      0.0417
    163  CZ        35.2880   30.0280   31.2230 C.ar  357  TYR357      0.1957
    164  OH        35.3700   30.9310   30.2020 O.3   357  TYR357     -0.2866
    165  N         22.7670   30.6940   13.9130 N.3   395  TRP395     -0.1241
    166  CA        21.5780   30.6410   13.1050 C.3   395  TRP395      0.1605
    167  C         21.5680   31.7940   12.1020 C.2   395  TRP395      0.2264
    168  O         20.7950   31.6790   11.1610 O.2   395  TRP395     -0.2867
    169  CB        20.2820   30.6780   13.9720 C.3   395  TRP395      0.0550
    170  CG        20.2170   31.9200   14.9170 C.ar  395  TRP395      0.0003
    171  CD1       20.5470   31.9780   16.2600 C.ar  395  TRP395      0.0946
    172  CD2       19.7600   33.2200   14.5570 C.ar  395  TRP395      0.0152
    173  NE1       20.3270   33.2600   16.7450 N.ar  395  TRP395     -0.2442
    174  CE2       19.8840   34.0540   15.7240 C.ar  395  TRP395      0.0810
    175  CE3       19.3070   33.7910   13.3460 C.ar  395  TRP395      0.0012
    176  CZ2       19.4900   35.3930   15.7400 C.ar  395  TRP395      0.0191
    177  CZ3       18.9450   35.1610   13.3490 C.ar  395  TRP395      0.0001
    178  CH2       19.0830   35.9460   14.5390 C.ar  395  TRP395      0.0015
@<TRIPOS>BOND
     1   168   167    2
     2   167   166    1
     3   166   165    1
     4   166   169    1
     5   175   177   ar
     6   175   172   ar
     7   177   178   ar
     8   169   170    1
     9   178   176   ar
    10   172   170   ar
    11   172   174   ar
    12   170   171   ar
    13     1     2    1
    14    50    49    2
    15    47    48    1
    16   174   176   ar
    17   174   173   ar
    18    49    48    1
    19    48    51    1
    20     5     2    1
    21     5     6    1
    22     2     3    1
    23   171   173   ar
    24     8     6   ar
    25     6     7   ar
    26     3     4    2
    27    51    52    1
    28    52    53    1
    29    41    39    1
    30    63    61   ar
    31    53    54   ar
    32    53    55   ar
    33    60    61    1
    34    60    57    1
    35    61    62   ar
    36    95    96    1
    37    95    92    1
    38    96    97    1
    39    35    36    1
    40    34    32   ar
    41    34    33   ar
    42    39    36    1
    43    39    40    1
    44    56    57    1
    45   119   120    1
    46    99    97   am
    47    57    58    1
    48    36    37    1
    49    93    94    2
    50    93    92    1
    51    32    30   ar
    52    97    98    2
    53     9    10    1
    54    33    31   ar
    55    92    91    1
    56   141   140    1
    57   123   124    1
    58   123   120    1
    59   120   121    1
    60    10    11    1
    61    28    27    2
    62    37    38    2
    63    37    42   am
    64    30    31   ar
    65    30    29    1
    66    58    59    2
    67    58    64   am
    68    27    26    1
    69   138   140   ar
    70   138   136   ar
    71   140   139   ar
    72    64    65    1
    73   121   122    2
    74   121   125   am
    75    42    43    1
    76    29    26    1
    77    11    12    2
    78    11    13   am
    79   136   135   ar
    80    26    25    1
    81   139   137   ar
    82    90    89    1
    83   125   126    1
    84    13    14    1
    85    43    46    1
    86    43    44    1
    87    65    66    1
    88    65    68    1
    89    72    66   am
    90    72    73    1
    91    66    67    2
    92   130   131    1
    93    73    74    1
    94    25    21   am
    95   135   137   ar
    96   135   134    1
    97    89    86    1
    98    88    87    2
    99    44    45    2
   100    68    69    1
   101   126   127    1
   102   126   129    1
   103   131   134    1
   104   131   132    1
   105    87    86    1
   106   127   128    2
   107    14    15    1
   108    14    17    1
   109    21    22    2
   110    21    20    1
   111    19    15   am
   112    19    20    1
   113    74    76   am
   114    74    75    2
   115    86    85    1
   116    24    23    1
   117    76    77    1
   118    15    16    2
   119    85    82   am
   120    17    18    1
   121   132   133    2
   122    20    23    1
   123    69    70    1
   124    69    71    1
   125    80    81    1
   126    80    78   am
   127    77    78    1
   128    82    81    1
   129    82    83    2
   130    84    81    1
   131    78    79    2
   132   152   150    1
   133   151   150    1
   134   150   149    2
   135   100   101    1
   136   118   116   ar
   137   104   101    1
   138   104   105    1
   139   149   148    1
   140   106   105    1
   141   106   107    1
   142   164   163    1
   143   101   102    1
   144   148   147    1
   145   107   108    2
   146   116   117   ar
   147   116   115    1
   148   161   163   ar
   149   161   159   ar
   150   111   102   am
   151   111   112    1
   152   109   108    1
   153   163   162   ar
   154   108   110    1
   155   102   103    2
   156   115   112    1
   157   147   146    1
   158   159   158   ar
   159   112   113    1
   160   162   160   ar
   161   146   143    1
   162   113   114    2
   163   158   160   ar
   164   158   157    1
   165   143   142    1
   166   143   144    1
   167   157   154    1
   168   156   155    2
   169   154   155    1
   170   154   153    1
   171   144   145    2
