@<TRIPOS>MOLECULE
tmp/4br3A00.pdb
 205 200 0 0 0
SMALL
GASTEIGER

@<TRIPOS>ATOM
      1  N        -17.0260  -12.4660   20.6290 N.3    38  ARG38      -0.1231
      2  CA       -16.2000  -13.4400   19.9420 C.3    38  ARG38       0.1694
      3  C        -14.8910  -13.6890   20.7160 C.2    38  ARG38       0.2593
      4  O        -14.1970  -12.7390   21.1080 O.2    38  ARG38      -0.2718
      5  CB       -15.9270  -12.9980   18.4960 C.3    38  ARG38       0.0321
      6  CG       -15.2260  -14.0610   17.6650 C.3    38  ARG38       0.0489
      7  CD       -14.7380  -13.5420   16.3260 C.3    38  ARG38       0.2205
      8  NE       -13.8790  -12.3630   16.4330 N.pl3  38  ARG38      -0.0865
      9  CZ       -14.1890  -11.1630   15.9420 C.cat  38  ARG38       0.5346
     10  NH1      -15.3420  -10.9850   15.3050 N.pl3  38  ARG38       0.1354
     11  NH2      -13.3460  -10.1430   16.0790 N.pl3  38  ARG38       0.1354
     12  N        -14.5780  -14.9700   20.9390 N.am   39  GLY39      -0.1942
     13  CA       -13.3150  -15.3870   21.5580 C.3    39  GLY39       0.2014
     14  C        -12.1650  -15.4460   20.5600 C.2    39  GLY39       0.2639
     15  O        -11.9720  -14.5260   19.7550 O.2    39  GLY39      -0.2714
     16  N        -11.3960  -16.5300   20.6070 N.am   40  GLY40      -0.1954
     17  CA       -10.2400  -16.6880   19.7240 C.3    40  GLY40       0.1869
     18  C         -8.9540  -16.2530   20.3950 C.2    40  GLY40       0.2309
     19  O         -8.9710  -15.6770   21.4820 O.2    40  GLY40      -0.2863
     20  N         -6.9110  -13.9460   19.4280 N.3    42  SER42      -0.1217
     21  CA        -6.6480  -12.5180   19.2250 C.3    42  SER42       0.1889
     22  C         -7.9130  -11.7590   18.8080 C.2    42  SER42       0.2288
     23  O         -8.9470  -12.3700   18.5370 O.2    42  SER42      -0.2866
     24  CB        -5.5200  -12.2960   18.2040 C.3    42  SER42       0.2089
     25  OG        -6.0350  -12.0210   16.9130 O.3    42  SER42      -0.2183
     26  N          4.6520  -12.0770    0.9430 N.3   153  TYR153     -0.1241
     27  CA         4.0970  -13.4080    1.1660 C.3   153  TYR153      0.1605
     28  C          4.7950  -14.4790    0.3450 C.2   153  TYR153      0.2264
     29  O          5.0350  -15.5730    0.8490 O.2   153  TYR153     -0.2867
     30  CB         2.5920  -13.4540    0.9320 C.3   153  TYR153      0.0534
     31  CG         1.8180  -12.7390    1.9910 C.ar  153  TYR153     -0.0201
     32  CD1        2.3070  -12.6540    3.2890 C.ar  153  TYR153     -0.0009
     33  CD2        0.5950  -12.1430    1.7070 C.ar  153  TYR153     -0.0009
     34  CE1        1.6040  -11.9970    4.2780 C.ar  153  TYR153      0.0417
     35  CE2       -0.1200  -11.4830    2.6960 C.ar  153  TYR153      0.0417
     36  CZ         0.3960  -11.4190    3.9820 C.ar  153  TYR153      0.1957
     37  OH        -0.2780  -10.7610    4.9860 O.3   153  TYR153     -0.2866
     38  N         -9.8920   -2.8660    1.2010 N.3   202  ASN202     -0.1225
     39  CA        -9.1100   -4.1170    0.9550 C.3   202  ASN202      0.1785
     40  C         -9.6630   -5.4250    1.5070 C.2   202  ASN202      0.2597
     41  O         -9.0500   -6.4750    1.2950 O.2   202  ASN202     -0.2718
     42  CB        -7.6280   -4.0110    1.3560 C.3   202  ASN202      0.1169
     43  CG        -6.8800   -2.9460    0.5920 C.2   202  ASN202      0.2627
     44  OD1       -7.0120   -2.8350   -0.6230 O.2   202  ASN202     -0.2716
     45  ND2       -6.1030   -2.1320    1.3080 N.am  202  ASN202     -0.0877
     46  N        -10.7960   -5.4020    2.1980 N.am  203  ASP203     -0.1974
     47  CA       -11.3530   -6.6400    2.8270 C.3   203  ASP203      0.1709
     48  C        -12.8900   -6.5000    2.8630 C.2   203  ASP203      0.2293
     49  O        -13.5610   -6.7620    3.8750 O.2   203  ASP203     -0.2864
     50  CB       -10.7590   -6.8490    4.2500 C.3   203  ASP203      0.1436
     51  CG       -11.0750   -8.2250    4.8580 C.2   203  ASP203      0.3671
     52  OD1      -11.4060   -9.2240    4.1410 O.co2 203  ASP203     -0.2456
     53  OD2      -10.9960   -8.2890    6.1070 O.co2 203  ASP203     -0.2456
     54  N        -15.8150   -7.9410    2.5270 N.3   205  GLN205     -0.1245
     55  CA       -16.5440   -9.1990    2.5290 C.3   205  GLN205      0.1566
     56  C        -17.7260   -9.0690    3.5000 C.2   205  GLN205      0.2260
     57  O        -17.7840   -8.1200    4.3130 O.2   205  GLN205     -0.2867
     58  CB       -15.6230  -10.3350    2.9630 C.3   205  GLN205      0.0367
     59  CG       -14.8160   -9.9820    4.2040 C.3   205  GLN205      0.0905
     60  CD       -14.5840  -11.1710    5.1030 C.2   205  GLN205      0.2608
     61  OE1      -15.5320  -11.7680    5.6330 O.2   205  GLN205     -0.2717
     62  NE2      -13.3260  -11.5290    5.2830 N.am  205  GLN205     -0.0878
     63  N         -7.1480   -3.2890    7.4510 N.3   230  TYR230     -0.1241
     64  CA        -6.2250   -3.6180    6.3440 C.3   230  TYR230      0.1605
     65  C         -6.2170   -2.5900    5.2260 C.2   230  TYR230      0.2264
     66  O         -5.5740   -2.7950    4.1960 O.2   230  TYR230     -0.2867
     67  CB        -6.5060   -4.9910    5.7690 C.3   230  TYR230      0.0534
     68  CG        -6.3600   -6.1020    6.7660 C.ar  230  TYR230     -0.0201
     69  CD1       -5.0990   -6.5080    7.2080 C.ar  230  TYR230     -0.0009
     70  CD2       -7.4980   -6.7640    7.2670 C.ar  230  TYR230     -0.0009
     71  CE1       -4.9620   -7.5400    8.1220 C.ar  230  TYR230      0.0417
     72  CE2       -7.3730   -7.8060    8.1730 C.ar  230  TYR230      0.0417
     73  CZ        -6.1000   -8.1860    8.5930 C.ar  230  TYR230      0.1957
     74  OH        -5.9750   -9.2080    9.4980 O.3   230  TYR230     -0.2866
     75  N        -11.8130   -7.7280   -5.5580 N.3   242  ASN242     -0.1240
     76  CA       -11.7640   -8.4920   -4.2990 C.3   242  ASN242      0.1653
     77  C        -13.1670   -8.7130   -3.7670 C.2   242  ASN242      0.2266
     78  O        -13.5190   -9.8330   -3.4210 O.2   242  ASN242     -0.2867
     79  CB       -10.8560   -7.8070   -3.2350 C.3   242  ASN242      0.1155
     80  CG       -10.8400   -8.5370   -1.9050 C.2   242  ASN242      0.2627
     81  OD1      -10.3090   -9.6780   -1.7950 O.2   242  ASN242     -0.2716
     82  ND2      -11.4330   -7.9010   -0.8650 N.am  242  ASN242     -0.0877
     83  N        -15.3510  -12.3890   -3.2860 N.3   246  GLU246     -0.1245
     84  CA       -15.9490  -12.8850   -2.0480 C.3   246  GLU246      0.1567
     85  C        -17.3710  -13.4500   -2.2410 C.2   246  GLU246      0.2260
     86  O        -17.8470  -14.1590   -1.3890 O.2   246  GLU246     -0.2867
     87  CB       -15.9270  -11.8110   -0.9700 C.3   246  GLU246      0.0388
     88  CG       -14.5270  -11.5010   -0.4500 C.3   246  GLU246      0.1160
     89  CD       -13.9410  -12.5460    0.4930 C.2   246  GLU246      0.3649
     90  OE1      -14.6020  -13.5490    0.8080 O.co2 246  GLU246     -0.2457
     91  OE2      -12.7770  -12.3600    0.9460 O.co2 246  GLU246     -0.2457
     92  N        -17.9830  -18.6430    4.6030 N.3   251  TYR251     -0.1241
     93  CA       -17.0920  -18.9170    5.7220 C.3   251  TYR251      0.1605
     94  C        -17.8320  -19.4470    6.9710 C.2   251  TYR251      0.2264
     95  O        -17.2210  -19.6080    8.0380 O.2   251  TYR251     -0.2867
     96  CB       -16.2310  -17.6810    6.0570 C.3   251  TYR251      0.0534
     97  CG       -15.4220  -17.1330    4.8940 C.ar  251  TYR251     -0.0201
     98  CD1      -14.3910  -17.8770    4.3170 C.ar  251  TYR251     -0.0009
     99  CD2      -15.6880  -15.8560    4.3750 C.ar  251  TYR251     -0.0009
    100  CE1      -13.6640  -17.3740    3.2480 C.ar  251  TYR251      0.0417
    101  CE2      -14.9630  -15.3390    3.3170 C.ar  251  TYR251      0.0417
    102  CZ       -13.9600  -16.1050    2.7410 C.ar  251  TYR251      0.1957
    103  OH       -13.2260  -15.5920    1.6840 O.3   251  TYR251     -0.2866
    104  N        -14.1010  -25.7210    6.5480 N.3   258  PHE258     -0.1241
    105  CA       -14.7520  -24.5840    7.2260 C.3   258  PHE258      0.1605
    106  C        -15.0380  -23.4050    6.2810 C.2   258  PHE258      0.2264
    107  O        -15.1960  -22.2400    6.6840 O.2   258  PHE258     -0.2867
    108  CB       -14.0090  -24.1860    8.5260 C.3   258  PHE258      0.0534
    109  CG       -13.8760  -25.3190    9.5210 C.ar  258  PHE258     -0.0203
    110  CD1      -14.8750  -25.5590   10.4650 C.ar  258  PHE258     -0.0042
    111  CD2      -12.7590  -26.1610    9.5040 C.ar  258  PHE258     -0.0042
    112  CE1      -14.7650  -26.6150   11.3710 C.ar  258  PHE258     -0.0003
    113  CE2      -12.6410  -27.2180   10.4030 C.ar  258  PHE258     -0.0003
    114  CZ       -13.6450  -27.4430   11.3400 C.ar  258  PHE258     -0.0000
    115  N         -4.5180  -13.6380   -1.7000 N.3   317  TRP317     -0.1241
    116  CA        -5.0760  -14.3520   -0.5600 C.3   317  TRP317      0.1605
    117  C         -4.7600  -15.8460   -0.6260 C.2   317  TRP317      0.2264
    118  O         -4.7200  -16.5200    0.4120 O.2   317  TRP317     -0.2867
    119  CB        -6.5760  -14.0530   -0.3320 C.3   317  TRP317      0.0550
    120  CG        -6.9170  -12.5780   -0.2250 C.ar  317  TRP317      0.0003
    121  CD1       -7.9490  -11.9390   -0.8330 C.ar  317  TRP317      0.0946
    122  CD2       -6.2220  -11.5760    0.5430 C.ar  317  TRP317      0.0152
    123  NE1       -7.9480  -10.6110   -0.5030 N.ar  317  TRP317     -0.2442
    124  CE2       -6.8990  -10.3600    0.3420 C.ar  317  TRP317      0.0810
    125  CE3       -5.0990  -11.5970    1.3900 C.ar  317  TRP317      0.0012
    126  CZ2       -6.4820   -9.1570    0.9440 C.ar  317  TRP317      0.0191
    127  CZ3       -4.6740  -10.4120    1.9760 C.ar  317  TRP317      0.0001
    128  CH2       -5.3630   -9.2000    1.7500 C.ar  317  TRP317      0.0015
    129  N         -1.3090  -15.6180    1.1220 N.3   320  TRP320     -0.1241
    130  CA        -1.6110  -15.3700    2.5210 C.3   320  TRP320      0.1605
    131  C         -2.0430  -16.6760    3.2240 C.2   320  TRP320      0.2264
    132  O         -1.6000  -16.9870    4.3350 O.2   320  TRP320     -0.2867
    133  CB        -2.7380  -14.3410    2.5880 C.3   320  TRP320      0.0550
    134  CG        -3.2850  -14.0490    3.9580 C.ar  320  TRP320      0.0003
    135  CD1       -2.8070  -13.1290    4.8460 C.ar  320  TRP320      0.0946
    136  CD2       -4.4410  -14.6430    4.5740 C.ar  320  TRP320      0.0152
    137  NE1       -3.5850  -13.1100    5.9750 N.ar  320  TRP320     -0.2442
    138  CE2       -4.5980  -14.0280    5.8400 C.ar  320  TRP320      0.0810
    139  CE3       -5.3540  -15.6270    4.1810 C.ar  320  TRP320      0.0012
    140  CZ2       -5.6310  -14.3770    6.7290 C.ar  320  TRP320      0.0191
    141  CZ3       -6.3790  -15.9890    5.0670 C.ar  320  TRP320      0.0001
    142  CH2       -6.5060  -15.3650    6.3300 C.ar  320  TRP320      0.0015
    143  N         -5.5760  -21.4100   14.1930 N.3   330  ILE330     -0.1231
    144  CA        -7.0380  -21.3720   14.0420 C.3   330  ILE330      0.1692
    145  C         -7.5560  -22.6160   13.3110 C.2   330  ILE330      0.2592
    146  O         -6.9150  -23.1220   12.3970 O.2   330  ILE330     -0.2718
    147  CB        -7.4660  -20.0990   13.2840 C.3   330  ILE330      0.0266
    148  CG1       -7.1890  -18.8480   14.1350 C.3   330  ILE330      0.0019
    149  CG2       -8.9290  -20.1480   12.8780 C.3   330  ILE330      0.0020
    150  CD1       -7.1800  -17.5480   13.3370 C.3   330  ILE330      0.0001
    151  N         -8.7300  -23.0960   13.6850 N.am  331  GLU331     -0.1966
    152  CA        -9.3020  -24.2370   12.9880 C.3   331  GLU331      0.1733
    153  C         -9.9730  -23.7820   11.6860 C.2   331  GLU331      0.2616
    154  O        -11.1280  -23.3680   11.6710 O.2   331  GLU331     -0.2715
    155  CB       -10.2770  -24.9820   13.8870 C.3   331  GLU331      0.0429
    156  CG       -10.6980  -26.3550   13.4040 C.3   331  GLU331      0.1163
    157  CD       -11.7060  -27.0060   14.3410 C.2   331  GLU331      0.3649
    158  OE1      -12.2380  -26.3030   15.2290 O.co2 331  GLU331     -0.2457
    159  OE2      -11.9440  -28.2250   14.2090 O.co2 331  GLU331     -0.2457
    160  N         -9.2140  -23.8560   10.6020 N.am  332  PHE332     -0.1974
    161  CA        -9.6590  -23.4560    9.2780 C.3   332  PHE332      0.1639
    162  C         -8.7470  -24.1800    8.3210 C.2   332  PHE332      0.2290
    163  O         -7.5430  -24.2950    8.5880 O.2   332  PHE332     -0.2864
    164  CB        -9.5020  -21.9440    9.1080 C.3   332  PHE332      0.0560
    165  CG       -10.0590  -21.4150    7.8180 C.ar  332  PHE332     -0.0200
    166  CD1      -11.4230  -21.2220    7.6610 C.ar  332  PHE332     -0.0042
    167  CD2       -9.2160  -21.1000    6.7570 C.ar  332  PHE332     -0.0042
    168  CE1      -11.9370  -20.7390    6.4550 C.ar  332  PHE332     -0.0003
    169  CE2       -9.7190  -20.6100    5.5530 C.ar  332  PHE332     -0.0003
    170  CZ       -11.0810  -20.4260    5.3990 C.ar  332  PHE332     -0.0000
    171  N         -6.7310  -23.8730    5.7940 N.3   334  TYR334     -0.1241
    172  CA        -5.9470  -22.8910    5.0370 C.3   334  TYR334      0.1605
    173  C         -5.3640  -23.3570    3.7140 C.2   334  TYR334      0.2264
    174  O         -5.4650  -22.6510    2.7200 O.2   334  TYR334     -0.2867
    175  CB        -4.8170  -22.3390    5.8960 C.3   334  TYR334      0.0534
    176  CG        -5.2860  -21.3820    6.9400 C.ar  334  TYR334     -0.0201
    177  CD1       -5.7770  -20.1180    6.5880 C.ar  334  TYR334     -0.0009
    178  CD2       -5.2340  -21.7280    8.2850 C.ar  334  TYR334     -0.0009
    179  CE1       -6.2170  -19.2410    7.5590 C.ar  334  TYR334      0.0417
    180  CE2       -5.6670  -20.8500    9.2590 C.ar  334  TYR334      0.0417
    181  CZ        -6.1520  -19.6130    8.8900 C.ar  334  TYR334      0.1957
    182  OH        -6.5690  -18.7510    9.8790 O.3   334  TYR334     -0.2866
    183  N         -8.1190  -23.7070    1.3100 N.3   337  TYR337     -0.1241
    184  CA        -8.5450  -22.3790    0.8770 C.3   337  TYR337      0.1605
    185  C         -7.5640  -21.8270   -0.1700 C.2   337  TYR337      0.2264
    186  O         -7.9900  -21.3220   -1.2050 O.2   337  TYR337     -0.2867
    187  CB        -8.7620  -21.4150    2.0530 C.3   337  TYR337      0.0534
    188  CG        -9.3190  -20.0800    1.6390 C.ar  337  TYR337     -0.0201
    189  CD1      -10.6660  -19.9390    1.3260 C.ar  337  TYR337     -0.0009
    190  CD2       -8.5040  -18.9400    1.5640 C.ar  337  TYR337     -0.0009
    191  CE1      -11.1900  -18.7200    0.9320 C.ar  337  TYR337      0.0417
    192  CE2       -9.0280  -17.7150    1.1720 C.ar  337  TYR337      0.0417
    193  CZ       -10.3750  -17.6190    0.8540 C.ar  337  TYR337      0.1957
    194  OH       -10.9290  -16.4160    0.4680 O.3   337  TYR337     -0.2866
    195  N         -8.4020  -20.7300   -4.0840 N.3   341  ARG341     -0.1245
    196  CA        -8.0900  -19.3870   -4.6240 C.3   341  ARG341      0.1563
    197  C         -7.2710  -19.4880   -5.9040 C.2   341  ARG341      0.2260
    198  O         -7.4600  -18.6790   -6.8240 O.2   341  ARG341     -0.2867
    199  CB        -7.3780  -18.4720   -3.6080 C.3   341  ARG341      0.0307
    200  CG        -8.2030  -18.0920   -2.3630 C.3   341  ARG341      0.0489
    201  CD        -9.6480  -17.6460   -2.6770 C.3   341  ARG341      0.2205
    202  NE        -9.6890  -16.4310   -3.4990 N.pl3 341  ARG341     -0.0865
    203  CZ        -9.9180  -15.2070   -3.0150 C.cat 341  ARG341      0.5346
    204  NH1      -10.1170  -15.0220   -1.7040 N.pl3 341  ARG341      0.1354
    205  NH2       -9.9220  -14.1580   -3.8400 N.pl3 341  ARG341      0.1354
@<TRIPOS>BOND
     1   198   197    2
     2   197   196    1
     3    75    76    1
     4   196   195    1
     5   196   199    1
     6    76    77    1
     7    76    79    1
     8   205   203    1
     9    77    78    2
    10   199   200    1
    11   202   203    2
    12   202   201    1
    13    83    84    1
    14    79    80    1
    15   203   204    1
    16   201   200    1
    17    85    84    1
    18    85    86    2
    19    84    87    1
    20    80    81    2
    21    80    82   am
    22   115   116    1
    23   186   185    2
    24    87    88    1
    25   121   123   ar
    26   121   120   ar
    27   117   116    1
    28   117   118    2
    29    44    43    2
    30   116   119    1
    31   123   124   ar
    32    88    89    1
    33   119   120    1
    34   120   122   ar
    35   185   184    1
    36   124   122   ar
    37   124   126   ar
    38    28    29    2
    39    28    27    1
    40   194   193    1
    41    89    90   ar
    42    89    91   ar
    43   122   125   ar
    44    43    45   am
    45    43    42    1
    46   193   191   ar
    47   193   192   ar
    48   184   183    1
    49   184   187    1
    50   191   189   ar
    51    30    27    1
    52    30    31    1
    53    26    27    1
    54   126   128   ar
    55    39    38    1
    56    39    42    1
    57    39    40    1
    58   129   130    1
    59   192   190   ar
    60    41    40    2
    61   189   188   ar
    62   125   127   ar
    63    40    46   am
    64   190   188   ar
    65   188   187    1
    66   103   102    1
    67    33    31   ar
    68    33    35   ar
    69   128   127   ar
    70    31    32   ar
    71    46    47    1
    72   130   133    1
    73   130   131    1
    74    54    55    1
    75    55    58    1
    76    55    56    1
    77   133   134    1
    78    35    36   ar
    79   174   173    2
    80   102   100   ar
    81   102   101   ar
    82    47    48    1
    83    47    50    1
    84    48    49    2
    85    58    59    1
    86   131   132    2
    87   100    98   ar
    88    32    34   ar
    89   101    99   ar
    90    56    57    2
    91   173   172    1
    92   134   136   ar
    93   134   135   ar
    94    36    34   ar
    95    36    37    1
    96    52    51   ar
    97   139   136   ar
    98   139   141   ar
    99    66    65    2
   100    59    60    1
   101    50    51    1
   102    98    97   ar
   103    99    97   ar
   104   136   138   ar
   105    92    93    1
   106   135   137   ar
   107    51    53   ar
   108    97    96    1
   109   172   171    1
   110   172   175    1
   111   141   142   ar
   112    60    62   am
   113    60    61    2
   114    65    64    1
   115   170   169   ar
   116   170   168   ar
   117   169   167   ar
   118    93    96    1
   119    93    94    1
   120    67    64    1
   121    67    68    1
   122   138   137   ar
   123   138   140   ar
   124   175   176    1
   125   106   107    2
   126   106   105    1
   127   142   140   ar
   128    64    63    1
   129   168   166   ar
   130   104   105    1
   131   177   176   ar
   132   177   179   ar
   133   167   165   ar
   134    68    69   ar
   135    68    70   ar
   136   176   178   ar
   137    94    95    2
   138    69    71   ar
   139   105   108    1
   140    70    72   ar
   141   179   181   ar
   142   166   165   ar
   143   165   164    1
   144    71    73   ar
   145    72    73   ar
   146   178   180   ar
   147   162   163    2
   148   162   161    1
   149   108   109    1
   150    73    74    1
   151   181   180   ar
   152   181   182    1
   153   164   161    1
   154   161   160    1
   155   111   109   ar
   156   111   113   ar
   157   109   110   ar
   158   113   114   ar
   159   110   112   ar
   160   160   153   am
   161   114   112   ar
   162   154   153    2
   163   153   152    1
   164   146   145    2
   165   149   147    1
   166   152   151    1
   167   152   155    1
   168   147   144    1
   169   147   148    1
   170   145   151   am
   171   145   144    1
   172   150   148    1
   173   156   155    1
   174   156   157    1
   175   144   143    1
   176   159   157   ar
   177   157   158   ar
   178    10     9    1
   179     9    11    1
   180     9     8    2
   181     7     8    1
   182     7     6    1
   183    25    24    1
   184     6     5    1
   185    24    21    1
   186     5     2    1
   187    23    22    2
   188    22    21    1
   189    21    20    1
   190    17    18    1
   191    17    16    1
   192    15    14    2
   193     2     1    1
   194     2     3    1
   195    18    19    2
   196    14    16   am
   197    14    13    1
   198     3    12   am
   199     3     4    2
   200    12    13    1
