@<TRIPOS>MOLECULE
tmp/4br3A01.pdb
 140 132 0 0 0
SMALL
GASTEIGER

@<TRIPOS>ATOM
      1  N        -18.4260  -11.6150   22.8580 N.3    37  ILE37      -0.1245
      2  CA       -19.0710  -11.5620   21.5480 C.3    37  ILE37       0.1561
      3  C        -18.3510  -12.5330   20.6170 C.2    37  ILE37       0.2260
      4  O        -18.9810  -13.3180   19.9070 O.2    37  ILE37      -0.2867
      5  CB       -19.0560  -10.1350   20.9590 C.3    37  ILE37       0.0252
      6  CG1      -20.2560   -9.3450   21.4710 C.3    37  ILE37       0.0019
      7  CG2      -19.0630  -10.1640   19.4260 C.3    37  ILE37       0.0019
      8  CD1      -20.1510   -7.8620   21.1860 C.3    37  ILE37       0.0001
      9  N        -13.7660   -9.9010   21.3580 N.3    45  LEU45      -0.1245
     10  CA       -14.8180   -8.9020   21.4700 C.3    45  LEU45       0.1561
     11  C        -15.7010   -9.2070   22.6510 C.2    45  LEU45       0.2260
     12  O        -15.9330  -10.3730   22.9750 O.2    45  LEU45      -0.2867
     13  CB       -15.6540   -8.8250   20.1860 C.3    45  LEU45       0.0270
     14  CG       -14.9680   -8.2700   18.9340 C.3    45  LEU45       0.0019
     15  CD1      -15.9750   -8.0200   17.8250 C.3    45  LEU45       0.0001
     16  CD2      -14.2230   -6.9910   19.2400 C.3    45  LEU45       0.0001
     17  N        -19.2710   -7.4430   24.9020 N.3    47  GLN47      -0.1245
     18  CA       -20.2550   -6.4040   25.1340 C.3    47  GLN47       0.1566
     19  C        -20.2620   -6.0320   26.6070 C.2    47  GLN47       0.2260
     20  O        -20.4450   -6.8860   27.4600 O.2    47  GLN47      -0.2867
     21  CB       -21.6290   -6.9240   24.7630 C.3    47  GLN47       0.0367
     22  CG       -22.6970   -5.8640   24.7440 C.3    47  GLN47       0.0905
     23  CD       -24.0110   -6.4230   24.2640 C.2    47  GLN47       0.2608
     24  OE1      -24.5410   -5.9890   23.2440 O.2    47  GLN47      -0.2717
     25  NE2      -24.5350   -7.4060   24.9810 N.am   47  GLN47      -0.0878
     26  N        -18.8580   -1.8470   23.0440 N.3    65  LEU65      -0.1245
     27  CA       -18.0510   -2.9690   22.6170 C.3    65  LEU65       0.1561
     28  C        -16.6090   -2.8000   23.0980 C.2    65  LEU65       0.2260
     29  O        -15.9760   -1.7600   22.8790 O.2    65  LEU65      -0.2867
     30  CB       -18.1080   -3.0560   21.0950 C.3    65  LEU65       0.0270
     31  CG       -17.4800   -4.2560   20.4120 C.3    65  LEU65       0.0019
     32  CD1      -18.1360   -4.4700   19.0490 C.3    65  LEU65       0.0001
     33  CD2      -15.9790   -4.0190   20.2780 C.3    65  LEU65       0.0001
     34  N        -12.8900   -4.1680   22.4280 N.3    67  ARG67      -0.1245
     35  CA       -12.0370   -4.9370   21.5180 C.3    67  ARG67       0.1563
     36  C        -10.6540   -5.0790   22.1120 C.2    67  ARG67       0.2260
     37  O         -9.9570   -4.0820   22.3010 O.2    67  ARG67      -0.2867
     38  CB       -11.9320   -4.2840   20.1400 C.3    67  ARG67       0.0307
     39  CG       -10.8920   -4.9460   19.2100 C.3    67  ARG67       0.0489
     40  CD       -10.8500   -4.3480   17.8050 C.3    67  ARG67       0.2205
     41  NE       -12.1640   -3.8420   17.4150 N.pl3  67  ARG67      -0.0865
     42  CZ       -12.9990   -4.4470   16.5680 C.cat  67  ARG67       0.5346
     43  NH1      -12.6360   -5.5700   15.9650 N.pl3  67  ARG67       0.1354
     44  NH2      -14.1930   -3.9150   16.3070 N.pl3  67  ARG67       0.1354
     45  N        -18.1640    3.1880   13.8640 N.3    91  PRO91      -0.2116
     46  CA       -18.5520    3.2880   15.2720 C.3    91  PRO91       0.1372
     47  C        -17.7680    4.4050   15.9710 C.2    91  PRO91       0.2244
     48  O        -16.6060    4.6510   15.6190 O.2    91  PRO91      -0.2868
     49  CB       -18.1390    1.9230   15.8550 C.3    91  PRO91       0.0268
     50  CG       -18.0620    1.0070   14.6670 C.3    91  PRO91       0.0207
     51  CD       -17.5440    1.8840   13.5490 C.3    91  PRO91       0.0892
     52  N        -15.5610    0.7740   21.8370 N.3   103  GLU103     -0.1231
     53  CA       -16.2380    1.3590   20.6710 C.3   103  GLU103      0.1699
     54  C        -17.7350    1.3680   20.8880 C.2   103  GLU103      0.2592
     55  O        -18.2530    0.6450   21.7510 O.2   103  GLU103     -0.2718
     56  CB       -15.9700    0.5820   19.3850 C.3   103  GLU103      0.0402
     57  CG       -14.5420    0.1080   19.1740 C.3   103  GLU103      0.1161
     58  CD       -14.4410   -0.8990   18.0200 C.2   103  GLU103      0.3649
     59  OE1      -15.4800   -1.2600   17.4280 O.co2 103  GLU103     -0.2457
     60  OE2      -13.3210   -1.3280   17.6950 O.co2 103  GLU103     -0.2457
     61  N        -18.4170    2.1700   20.0780 N.am  104  GLN104     -0.1966
     62  CA       -19.8580    2.1870   20.0710 C.3   104  GLN104      0.1733
     63  C        -20.3710    0.8170   19.6770 C.2   104  GLN104      0.2616
     64  O        -19.8670    0.1910   18.7440 O.2   104  GLN104     -0.2715
     65  CB       -20.3690    3.2450   19.1010 C.3   104  GLN104      0.0408
     66  CG       -21.8860    3.3370   18.9790 C.3   104  GLN104      0.0908
     67  CD       -22.2950    4.0660   17.7220 C.2   104  GLN104      0.2608
     68  OE1      -21.4450    4.4900   16.9490 O.2   104  GLN104     -0.2717
     69  NE2      -23.5890    4.1990   17.5010 N.am  104  GLN104     -0.0878
     70  N        -21.3580    0.3320   20.4160 N.am  105  PHE105     -0.1960
     71  CA       -22.0150   -0.8960   20.0350 C.3   105  PHE105      0.1771
     72  C        -23.1400   -0.6040   19.0240 C.2   105  PHE105      0.2619
     73  O        -24.0610    0.1280   19.3220 O.2   105  PHE105     -0.2715
     74  CB       -22.5350   -1.6300   21.2640 C.3   105  PHE105      0.0574
     75  CG       -23.2460   -2.8870   20.9300 C.ar  105  PHE105     -0.0200
     76  CD1      -22.5310   -4.0630   20.7150 C.ar  105  PHE105     -0.0042
     77  CD2      -24.6430   -2.8990   20.7900 C.ar  105  PHE105     -0.0042
     78  CE1      -23.1950   -5.2400   20.3780 C.ar  105  PHE105     -0.0003
     79  CE2      -25.3140   -4.0740   20.4640 C.ar  105  PHE105     -0.0003
     80  CZ       -24.5890   -5.2460   20.2540 C.ar  105  PHE105     -0.0000
     81  N        -23.0310   -1.1650   17.8260 N.am  106  ILE106     -0.1977
     82  CA       -24.0270   -0.9910   16.7830 C.3   106  ILE106      0.1596
     83  C        -24.9430   -2.2240   16.7480 C.2   106  ILE106      0.2287
     84  O        -24.5030   -3.3160   16.3560 O.2   106  ILE106     -0.2864
     85  CB       -23.3780   -0.8830   15.3860 C.3   106  ILE106      0.0276
     86  CG1      -22.1060   -0.0030   15.4050 C.3   106  ILE106      0.0022
     87  CG2      -24.4130   -0.4590   14.3350 C.3   106  ILE106      0.0022
     88  CD1      -22.3880    1.4730   15.2510 C.3   106  ILE106      0.0001
     89  N        -27.0910   -4.8950   15.3040 N.3   108  SER108     -0.1202
     90  CA       -26.9620   -5.3710   13.9210 C.3   108  SER108      0.2020
     91  C        -26.6350   -6.8350   13.8770 C.2   108  SER108      0.2619
     92  O        -26.4900   -7.4760   14.9210 O.2   108  SER108     -0.2717
     93  CB       -25.8090   -4.6350   13.2240 C.3   108  SER108      0.2103
     94  OG       -24.5620   -4.9470   13.8270 O.3   108  SER108     -0.2182
     95  N        -26.5170   -7.3460   12.6500 N.am  109  ARG109     -0.1965
     96  CA       -25.8950   -8.6410   12.3540 C.3   109  ARG109      0.1729
     97  C        -24.9750   -8.4640   11.1090 C.2   109  ARG109      0.2616
     98  O        -25.1260   -7.4840   10.3830 O.2   109  ARG109     -0.2715
     99  CB       -26.9860   -9.6940   12.0950 C.3   109  ARG109      0.0348
    100  CG       -27.9010   -9.4250   10.8990 C.3   109  ARG109      0.0492
    101  CD       -28.6670  -10.6950   10.5270 C.3   109  ARG109      0.2205
    102  NE       -29.6160  -10.5870    9.4000 N.pl3 109  ARG109     -0.0865
    103  CZ       -29.2890  -10.6140    8.1030 C.cat 109  ARG109      0.5346
    104  NH1      -28.0120  -10.6790    7.7120 N.pl3 109  ARG109      0.1354
    105  NH2      -30.2470  -10.5460    7.1790 N.pl3 109  ARG109      0.1354
    106  N        -24.0340   -9.3790   10.8670 N.am  110  ARG110     -0.1977
    107  CA       -23.2980   -9.3500    9.5870 C.3   110  ARG110      0.1597
    108  C        -24.2060   -9.8950    8.4800 C.2   110  ARG110      0.2287
    109  O        -25.1990  -10.5820    8.7550 O.2   110  ARG110     -0.2864
    110  CB       -21.9950  -10.1680    9.5880 C.3   110  ARG110      0.0334
    111  CG       -21.3580  -10.5350   10.9270 C.3   110  ARG110      0.0492
    112  CD       -20.6950   -9.3610   11.6150 C.3   110  ARG110      0.2205
    113  NE       -19.2300   -9.3790   11.5800 N.pl3 110  ARG110     -0.0865
    114  CZ       -18.4380   -8.7650   12.4740 C.cat 110  ARG110      0.5346
    115  NH1      -18.9570   -8.1000   13.5010 N.pl3 110  ARG110      0.1354
    116  NH2      -17.1150   -8.8170   12.3400 N.pl3 110  ARG110      0.1354
    117  N        -22.3250   -4.5270    8.0430 N.3   210  LEU210     -0.1245
    118  CA       -23.3500   -4.5990    9.0660 C.3   210  LEU210      0.1561
    119  C        -24.7080   -4.2220    8.5420 C.2   210  LEU210      0.2260
    120  O        -24.8840   -3.1230    7.9910 O.2   210  LEU210     -0.2867
    121  CB       -23.0160   -3.7240   10.2830 C.3   210  LEU210      0.0270
    122  CG       -21.8060   -4.1050   11.1310 C.3   210  LEU210      0.0019
    123  CD1      -21.6800   -3.1600   12.3170 C.3   210  LEU210      0.0001
    124  CD2      -21.8450   -5.5540   11.5940 C.3   210  LEU210      0.0001
    125  N        -17.3400   -2.1360    8.1170 N.3   226  ILE226     -0.1231
    126  CA       -16.5020   -2.0530    9.2750 C.3   226  ILE226      0.1692
    127  C        -15.1830   -2.7550    9.0090 C.2   226  ILE226      0.2592
    128  O        -14.9700   -3.2720    7.9030 O.2   226  ILE226     -0.2718
    129  CB       -17.1920   -2.6660   10.5210 C.3   226  ILE226      0.0266
    130  CG1      -17.6490   -4.1030   10.2420 C.3   226  ILE226      0.0019
    131  CG2      -18.3210   -1.7570   11.0000 C.3   226  ILE226      0.0020
    132  CD1      -17.7170   -4.9590   11.4930 C.3   226  ILE226      0.0001
    133  N        -14.3080   -2.7370   10.0230 N.am  227  ASP227     -0.1974
    134  CA       -13.0560   -3.4990   10.0830 C.3   227  ASP227      0.1709
    135  C        -12.1180   -3.1030    8.9510 C.2   227  ASP227      0.2293
    136  O        -11.7610   -3.8930    8.0730 O.2   227  ASP227     -0.2864
    137  CB       -13.3230   -5.0030   10.2190 C.3   227  ASP227      0.1436
    138  CG       -13.7390   -5.3950   11.6580 C.2   227  ASP227      0.3671
    139  OD1      -13.6540   -4.5300   12.5670 O.co2 227  ASP227     -0.2456
    140  OD2      -14.1470   -6.5480   11.8990 O.co2 227  ASP227     -0.2456
@<TRIPOS>BOND
     1   105   103    1
     2   104   103    1
     3   128   127    2
     4   120   119    2
     5   117   118    1
     6   136   135    2
     7   103   102    2
     8   125   126    1
     9   108   109    2
    10   108   107    1
    11   119   118    1
    12   135   134    1
    13   127   126    1
    14   127   133   am
    15   118   121    1
    16   126   129    1
    17   102   101    1
    18   107   110    1
    19   107   106    1
    20   110   111    1
    21   133   134    1
    22   134   137    1
    23   137   138    1
    24   130   129    1
    25   130   132    1
    26   121   122    1
    27    98    97    2
    28   129   131    1
    29   101   100    1
    30   106    97   am
    31   100    99    1
    32   111   112    1
    33    97    96    1
    34   122   124    1
    35   122   123    1
    36   113   112    1
    37   113   114    2
    38   138   140   ar
    39   138   139   ar
    40    99    96    1
    41   116   114    1
    42    96    95    1
    43   114   115    1
    44    95    91   am
    45    93    94    1
    46    93    90    1
    47    51    45    1
    48    51    50    1
    49    45    46    1
    50    91    90    1
    51    91    92    2
    52    90    89    1
    53    87    85    1
    54    50    49    1
    55    88    86    1
    56    46    49    1
    57    46    47    1
    58    85    86    1
    59    85    82    1
    60    48    47    2
    61    43    42    1
    62    44    42    1
    63    84    83    2
    64    42    41    2
    65    83    82    1
    66    82    81    1
    67    68    67    2
    68    41    40    1
    69    59    58   ar
    70    69    67   am
    71    60    58   ar
    72    67    66    1
    73    40    39    1
    74    15    14    1
    75    81    72   am
    76    58    57    1
    77    64    63    2
    78    14    16    1
    79    14    13    1
    80    66    65    1
    81    72    73    2
    82    72    71    1
    83    32    31    1
    84    65    62    1
    85    57    56    1
    86    39    38    1
    87    56    53    1
    88     7     5    1
    89    63    62    1
    90    63    70   am
    91     4     3    2
    92    71    70    1
    93    71    74    1
    94    62    61    1
    95    61    54   am
    96    38    35    1
    97    13    10    1
    98    80    78   ar
    99    80    79   ar
   100    33    31    1
   101    78    76   ar
   102    31    30    1
   103    79    77   ar
   104     3     2    1
   105    53    54    1
   106    53    52    1
   107    76    75   ar
   108    77    75   ar
   109    54    55    2
   110    75    74    1
   111     5     6    1
   112     5     2    1
   113    30    27    1
   114     8     6    1
   115     9    10    1
   116    10    11    1
   117    35    36    1
   118    35    34    1
   119     2     1    1
   120    36    37    2
   121    27    26    1
   122    27    28    1
   123    11    12    2
   124    29    28    2
   125    24    23    2
   126    23    22    1
   127    23    25   am
   128    22    21    1
   129    21    18    1
   130    17    18    1
   131    18    19    1
   132    19    20    2
