@<TRIPOS>MOLECULE
tmp/4br5A00.pdb
 178 171 0 0 0
SMALL
GASTEIGER

@<TRIPOS>ATOM
      1  N         21.9410   39.3920   15.2620 N.3    10  ASP10      -0.1239
      2  CA        21.5490   38.3070   16.1580 C.3    10  ASP10       0.1674
      3  C         21.3580   38.9790   17.5070 C.2    10  ASP10       0.2266
      4  O         22.3280   39.3370   18.1970 O.2    10  ASP10      -0.2867
      5  CB        22.6750   37.2570   16.1460 C.3    10  ASP10       0.1410
      6  CG        22.5020   36.1590   17.2150 C.2    10  ASP10       0.3668
      7  OD1       21.6720   36.3250   18.1520 O.co2  10  ASP10      -0.2456
      8  OD2       23.2220   35.1280   17.1250 O.co2  10  ASP10      -0.2456
      9  N         20.6920   38.2940   20.7730 N.3    12  GLY12      -0.1210
     10  CA        20.6020   37.1760   21.7030 C.3    12  GLY12       0.1956
     11  C         20.2590   37.6460   23.1200 C.2    12  GLY12       0.2613
     12  O         20.1780   38.8390   23.3970 O.2    12  GLY12      -0.2717
     13  N         20.1370   36.6970   24.0450 N.am   13  SER13      -0.1938
     14  CA        19.6700   37.0560   25.3770 C.3    13  SER13       0.2055
     15  C         20.7360   37.9110   26.0880 C.2    13  SER13       0.2644
     16  O         20.3780   38.7460   26.9340 O.2    13  SER13      -0.2714
     17  CB        19.3450   35.8130   26.2320 C.3    13  SER13       0.2130
     18  OG        20.5490   35.0530   26.4830 O.3    13  SER13      -0.2179
     19  N         22.0240   37.6600   25.8340 N.am   14  SER14      -0.1935
     20  CA        23.1030   38.3340   26.6010 C.3    14  SER14       0.2055
     21  C         23.8850   39.4000   25.7740 C.2    14  SER14       0.2643
     22  O         24.6900   40.1380   26.3410 O.2    14  SER14      -0.2714
     23  CB        24.1430   37.3060   27.1750 C.3    14  SER14       0.2130
     24  OG        24.9070   36.6930   26.1110 O.3    14  SER14      -0.2179
     25  N         23.6340   39.4970   24.4800 N.am   15  HIS15      -0.1973
     26  CA        24.5870   40.2480   23.6020 C.3    15  HIS15       0.1656
     27  C         23.8120   40.3990   22.3100 C.2    15  HIS15       0.2291
     28  O         23.0140   39.5200   21.9880 O.2    15  HIS15      -0.2864
     29  CB        25.8560   39.3450   23.2160 C.3    15  HIS15       0.0771
     30  CG        25.5950   38.3850   22.0520 C.ar   15  HIS15       0.0820
     31  ND1       24.6970   37.3300   22.1240 N.ar   15  HIS15      -0.2267
     32  CD2       26.0530   38.3750   20.7650 C.ar   15  HIS15       0.1154
     33  CE1       24.6150   36.7070   20.9470 C.ar   15  HIS15       0.1986
     34  NE2       25.4420   37.3090   20.1090 N.ar   15  HIS15      -0.2212
     35  N         16.0230   36.1890   20.1160 N.3    87  THR87      -0.1203
     36  CA        15.8510   34.8200   20.5340 C.3    87  THR87       0.1994
     37  C         15.3110   34.7520   21.9630 C.2    87  THR87       0.2617
     38  O         14.3340   35.4730   22.2590 O.2    87  THR87      -0.2717
     39  CB        17.1430   34.0160   20.2870 C.3    87  THR87       0.1784
     40  OG1       18.2630   34.7200   20.9230 O.3    87  THR87      -0.2211
     41  CG2       17.3640   33.9270   18.7340 C.3    87  THR87       0.0376
     42  N         15.8410   33.8520   22.7940 N.am   88  ALA88      -0.1979
     43  CA        15.1260   33.5130   24.0580 C.3    88  ALA88       0.1597
     44  C         15.0580   34.6690   25.0570 C.2    88  ALA88       0.2287
     45  O         14.1290   34.6860   25.9250 O.2    88  ALA88      -0.2864
     46  CB        15.7440   32.2800   24.7300 C.3    88  ALA88       0.0319
     47  N         15.2490   28.8440   15.6150 N.3   130  GLU130     -0.1245
     48  CA        16.5770   28.9680   16.0810 C.3   130  GLU130      0.1567
     49  C         17.3910   27.6710   15.8880 C.2   130  GLU130      0.2260
     50  O         18.5770   27.7540   15.5320 O.2   130  GLU130     -0.2867
     51  CB        16.4630   29.3600   17.6180 C.3   130  GLU130      0.0388
     52  CG        17.6800   29.9990   18.1150 C.3   130  GLU130      0.1160
     53  CD        17.4640   30.5480   19.5260 C.2   130  GLU130      0.3649
     54  OE1       16.3070   30.6090   20.0030 O.co2 130  GLU130     -0.2457
     55  OE2       18.4770   30.8930   20.1510 O.co2 130  GLU130     -0.2457
     56  N         23.3180   24.0370   20.3010 N.3   166  ASP166     -0.1225
     57  CA        23.6210   25.4500   20.5290 C.3   166  ASP166      0.1805
     58  C         23.3070   25.7440   21.9930 C.2   166  ASP166      0.2598
     59  O         22.1520   25.5480   22.4470 O.2   166  ASP166     -0.2718
     60  CB        22.6460   26.2580   19.6690 C.3   166  ASP166      0.1424
     61  CG        22.8320   27.8110   19.7650 C.2   166  ASP166      0.3668
     62  OD1       23.6350   28.3350   20.5820 O.co2 166  ASP166     -0.2456
     63  OD2       22.1090   28.5430   18.9960 O.co2 166  ASP166     -0.2456
     64  N         24.3010   26.1890   22.7560 N.am  167  LEU167     -0.1966
     65  CA        23.9750   26.5260   24.1910 C.3   167  LEU167      0.1728
     66  C         24.0670   28.0440   24.2600 C.2   167  LEU167      0.2617
     67  O         25.1790   28.5940   24.3580 O.2   167  LEU167     -0.2715
     68  CB        24.9710   25.8820   25.1880 C.3   167  LEU167      0.0311
     69  CG        24.7760   26.2660   26.6890 C.3   167  LEU167      0.0022
     70  CD1       23.3130   26.0160   27.0700 C.3   167  LEU167      0.0001
     71  CD2       25.7440   25.4570   27.5490 C.3   167  LEU167      0.0001
     72  N         22.9100   28.7350   24.1680 N.am  168  GLY168     -0.1940
     73  CA        22.8650   30.2000   24.2560 C.3   168  GLY168      0.2014
     74  C         22.7620   30.5940   25.7250 C.2   168  GLY168      0.2639
     75  O         22.9390   29.7460   26.6150 O.2   168  GLY168     -0.2714
     76  N         22.4520   31.8640   25.9740 N.am  169  GLY169     -0.1939
     77  CA        22.3350   32.3820   27.3410 C.3   169  GLY169      0.2014
     78  C         21.0240   32.0130   27.9950 C.2   169  GLY169      0.2639
     79  O         20.9820   31.8370   29.2270 O.2   169  GLY169     -0.2714
     80  N         19.9590   31.8510   27.1980 N.am  170  ALA170     -0.1963
     81  CA        18.6230   31.6180   27.8640 C.3   170  ALA170      0.1728
     82  C         17.8810   30.3790   27.3370 C.2   170  ALA170      0.2616
     83  O         16.9400   29.9160   28.0060 O.2   170  ALA170     -0.2715
     84  CB        17.7320   32.8640   27.7000 C.3   170  ALA170      0.0334
     85  N         18.3040   29.7770   26.2190 N.am  171  SER171     -0.1950
     86  CA        17.6660   28.5220   25.8310 C.3   171  SER171      0.1924
     87  C         18.8070   27.6830   25.2300 C.2   171  SER171      0.2314
     88  O         19.9050   28.2370   24.9490 O.2   171  SER171     -0.2863
     89  CB        16.5350   28.7500   24.7530 C.3   171  SER171      0.2116
     90  OG        17.1210   29.2420   23.5070 O.3   171  SER171     -0.2180
     91  N         19.3080   24.4780   22.1370 N.3   173  GLN173     -0.1245
     92  CA        18.6360   23.7690   21.0330 C.3   173  GLN173      0.1566
     93  C         19.4060   22.5240   20.6290 C.2   173  GLN173      0.2260
     94  O         20.6590   22.5130   20.6460 O.2   173  GLN173     -0.2867
     95  CB        18.5080   24.6750   19.7650 C.3   173  GLN173      0.0367
     96  CG        17.5010   25.8050   19.9550 C.3   173  GLN173      0.0905
     97  CD        18.0130   26.9130   20.8520 C.2   173  GLN173      0.2608
     98  OE1       17.3390   27.1950   21.8580 O.2   173  GLN173     -0.2717
     99  NE2       19.1870   27.5540   20.5210 N.am  173  GLN173     -0.0878
    100  N         22.7870   28.9730   29.2850 N.3   210  ARG210     -0.1231
    101  CA        23.8160   29.0430   30.3410 C.3   210  ARG210      0.1694
    102  C         23.4760   29.9940   31.4620 C.2   210  ARG210      0.2592
    103  O         23.6250   29.6290   32.6490 O.2   210  ARG210     -0.2718
    104  CB        25.1260   29.5600   29.6990 C.3   210  ARG210      0.0321
    105  CG        26.2700   29.6680   30.7340 C.3   210  ARG210      0.0489
    106  CD        27.5320   30.1350   29.9280 C.3   210  ARG210      0.2205
    107  NE        28.5770   30.5320   30.8860 N.pl3 210  ARG210     -0.0865
    108  CZ        28.5750   31.6780   31.5900 C.cat 210  ARG210      0.5346
    109  NH1       27.6720   32.6350   31.3720 N.pl3 210  ARG210      0.1354
    110  NH2       29.5300   31.8920   32.5140 N.pl3 210  ARG210      0.1354
    111  N         23.1010   31.2310   31.1140 N.am  211  ASP211     -0.1974
    112  CA        22.8590   32.2370   32.1840 C.3   211  ASP211      0.1709
    113  C         21.6220   31.8790   33.0370 C.2   211  ASP211      0.2293
    114  O         21.5850   32.1060   34.2440 O.2   211  ASP211     -0.2864
    115  CB        22.6490   33.5900   31.5780 C.3   211  ASP211      0.1436
    116  CG        23.9020   34.0620   30.8280 C.2   211  ASP211      0.3671
    117  OD1       24.9870   34.0360   31.4470 O.co2 211  ASP211     -0.2456
    118  OD2       23.7920   34.4700   29.6690 O.co2 211  ASP211     -0.2456
    119  N         28.6520   27.7800   20.3860 N.3   307  SER307     -0.1202
    120  CA        28.3140   28.7450   21.4720 C.3   307  SER307      0.2020
    121  C         28.8810   28.2970   22.8160 C.2   307  SER307      0.2615
    122  O         30.0760   27.9510   22.8640 O.2   307  SER307     -0.2717
    123  CB        26.8160   29.0760   21.4360 C.3   307  SER307      0.2103
    124  OG        26.0210   27.8820   21.4450 O.3   307  SER307     -0.2182
    125  N         28.0950   28.2560   23.8900 N.am  308  ALA308     -0.2032
    126  CA        28.7240   27.9910   25.2110 C.3   308  ALA308      0.1283
    127  C         29.1940   26.5630   25.4130 C.3   308  ALA308      0.2036
    128  O         29.9950   26.2640   26.3740 O.3   308  ALA308     -0.2185
    129  CB        27.7870   28.4310   26.3320 C.3   308  ALA308      0.0262
    130  N         32.6750   27.3160   24.2440 N.3   311  TYR311     -0.1241
    131  CA        33.4540   28.1650   25.2140 C.3   311  TYR311      0.1605
    132  C         33.8210   27.3790   26.4660 C.2   311  TYR311      0.2264
    133  O         34.9000   27.5730   27.0040 O.2   311  TYR311     -0.2867
    134  CB        32.7080   29.4340   25.6660 C.3   311  TYR311      0.0534
    135  CG        32.1550   30.2870   24.5190 C.ar  311  TYR311     -0.0201
    136  CD1       32.9470   30.6160   23.4500 C.ar  311  TYR311     -0.0009
    137  CD2       30.8250   30.7560   24.5570 C.ar  311  TYR311     -0.0009
    138  CE1       32.4360   31.3680   22.3860 C.ar  311  TYR311      0.0417
    139  CE2       30.3140   31.5150   23.5300 C.ar  311  TYR311      0.0417
    140  CZ        31.1230   31.7920   22.4440 C.ar  311  TYR311      0.1957
    141  OH        30.5930   32.5690   21.4530 O.3   311  TYR311     -0.2866
    142  N         33.3170   35.2500   34.6030 N.3   355  ARG355     -0.1245
    143  CA        32.8490   33.8640   34.3700 C.3   355  ARG355      0.1563
    144  C         33.6220   32.7680   35.0080 C.2   355  ARG355      0.2260
    145  O         33.1550   31.6270   35.0210 O.2   355  ARG355     -0.2867
    146  CB        32.6960   33.5190   32.8590 C.3   355  ARG355      0.0307
    147  CG        32.0180   34.6110   32.0400 C.3   355  ARG355      0.0489
    148  CD        31.7900   34.0370   30.6260 C.3   355  ARG355      0.2205
    149  NE        30.9640   34.8840   29.7780 N.pl3 355  ARG355     -0.0865
    150  CZ        31.4820   35.7830   28.9400 C.cat 355  ARG355      0.5346
    151  NH1       32.8080   35.9430   28.8750 N.pl3 355  ARG355      0.1354
    152  NH2       30.6870   36.5190   28.1560 N.pl3 355  ARG355      0.1354
    153  N         32.5670   28.2490   35.7610 N.3   359  TYR359     -0.1241
    154  CA        32.8540   27.1370   34.8260 C.3   359  TYR359      0.1605
    155  C         32.5030   25.7960   35.3840 C.2   359  TYR359      0.2264
    156  O         32.0510   24.9360   34.6450 O.2   359  TYR359     -0.2867
    157  CB        34.3450   27.0990   34.3560 C.3   359  TYR359      0.0534
    158  CG        34.5310   28.0960   33.2830 C.ar  359  TYR359     -0.0201
    159  CD1       34.0210   27.8370   32.0070 C.ar  359  TYR359     -0.0009
    160  CD2       35.1430   29.3250   33.5380 C.ar  359  TYR359     -0.0009
    161  CE1       34.1650   28.7590   30.9780 C.ar  359  TYR359      0.0417
    162  CE2       35.2920   30.2720   32.5100 C.ar  359  TYR359      0.0417
    163  CZ        34.8030   29.9420   31.2290 C.ar  359  TYR359      0.1957
    164  OH        34.7970   30.8470   30.1780 O.3   359  TYR359     -0.2866
    165  N         22.6010   30.6310   14.1720 N.3   397  TRP397     -0.1241
    166  CA        21.4200   30.5860   13.3100 C.3   397  TRP397      0.1605
    167  C         21.4660   31.6970   12.2660 C.2   397  TRP397      0.2264
    168  O         20.6780   31.6290   11.2960 O.2   397  TRP397     -0.2867
    169  CB        20.0960   30.6770   14.1450 C.3   397  TRP397      0.0550
    170  CG        20.0710   31.9080   15.0700 C.ar  397  TRP397      0.0003
    171  CD1       20.4210   31.9270   16.4190 C.ar  397  TRP397      0.0946
    172  CD2       19.6600   33.2220   14.7330 C.ar  397  TRP397      0.0152
    173  NE1       20.2460   33.2230   16.9370 N.ar  397  TRP397     -0.2442
    174  CE2       19.7950   34.0320   15.9270 C.ar  397  TRP397      0.0810
    175  CE3       19.2030   33.8250   13.5430 C.ar  397  TRP397      0.0012
    176  CZ2       19.4670   35.3810   15.9580 C.ar  397  TRP397      0.0191
    177  CZ3       18.9030   35.1910   13.5650 C.ar  397  TRP397      0.0001
    178  CH2       19.0190   35.9510   14.7610 C.ar  397  TRP397      0.0015
@<TRIPOS>BOND
     1   168   167    2
     2   167   166    1
     3   166   169    1
     4   166   165    1
     5   175   177   ar
     6   175   172   ar
     7   177   178   ar
     8   169   170    1
     9   172   170   ar
    10   172   174   ar
    11   178   176   ar
    12   170   171   ar
    13     1     2    1
    14    50    49    2
    15    47    48    1
    16    49    48    1
    17   174   176   ar
    18   174   173   ar
    19    48    51    1
    20     5     2    1
    21     5     6    1
    22     2     3    1
    23   171   173   ar
    24     8     6   ar
    25     6     7   ar
    26     3     4    2
    27    51    52    1
    28    52    53    1
    29    41    39    1
    30    63    61   ar
    31    53    54   ar
    32    53    55   ar
    33    60    61    1
    34    60    57    1
    35    61    62   ar
    36    95    96    1
    37    95    92    1
    38    96    97    1
    39    34    32   ar
    40    34    33   ar
    41    35    36    1
    42    39    36    1
    43    39    40    1
    44    56    57    1
    45   119   120    1
    46    99    97   am
    47    57    58    1
    48    36    37    1
    49    93    94    2
    50    93    92    1
    51    32    30   ar
    52     9    10    1
    53    97    98    2
    54    33    31   ar
    55    92    91    1
    56   123   124    1
    57   123   120    1
    58   141   140    1
    59   120   121    1
    60    10    11    1
    61    37    38    2
    62    37    42   am
    63    28    27    2
    64    58    59    2
    65    58    64   am
    66    30    31   ar
    67    30    29    1
    68    27    26    1
    69   138   140   ar
    70   138   136   ar
    71   140   139   ar
    72    64    65    1
    73    42    43    1
    74   121   122    2
    75   121   125   am
    76    11    12    2
    77    11    13   am
    78    29    26    1
    79   136   135   ar
    80    90    89    1
    81   139   137   ar
    82    26    25    1
    83   125   126    1
    84    13    14    1
    85    43    46    1
    86    43    44    1
    87    72    73    1
    88    72    66   am
    89    65    66    1
    90    65    68    1
    91   130   131    1
    92    73    74    1
    93    66    67    2
    94    25    21   am
    95   135   137   ar
    96   135   134    1
    97    89    86    1
    98    88    87    2
    99    44    45    2
   100    68    69    1
   101   126   127    1
   102   126   129    1
   103   131   134    1
   104   131   132    1
   105    87    86    1
   106    14    15    1
   107    14    17    1
   108   127   128    1
   109    74    76   am
   110    74    75    2
   111    21    22    2
   112    21    20    1
   113    86    85    1
   114    19    15   am
   115    19    20    1
   116    76    77    1
   117    15    16    2
   118    24    23    1
   119    85    82   am
   120    17    18    1
   121   132   133    2
   122    20    23    1
   123    69    70    1
   124    69    71    1
   125    80    81    1
   126    80    78   am
   127    82    81    1
   128    82    83    2
   129    77    78    1
   130    84    81    1
   131    78    79    2
   132   152   150    1
   133   151   150    1
   134   150   149    2
   135   100   101    1
   136   118   116   ar
   137   104   101    1
   138   104   105    1
   139   149   148    1
   140   106   105    1
   141   106   107    1
   142   164   163    1
   143   101   102    1
   144   148   147    1
   145   116   117   ar
   146   116   115    1
   147   107   108    2
   148   161   163   ar
   149   161   159   ar
   150   111   102   am
   151   111   112    1
   152   163   162   ar
   153   109   108    1
   154   102   103    2
   155   115   112    1
   156   108   110    1
   157   159   158   ar
   158   147   146    1
   159   112   113    1
   160   162   160   ar
   161   146   143    1
   162   113   114    2
   163   158   160   ar
   164   158   157    1
   165   157   154    1
   166   143   142    1
   167   143   144    1
   168   156   155    2
   169   154   155    1
   170   154   153    1
   171   144   145    2
