@<TRIPOS>MOLECULE
tmp/4brbD03.pdb
 96 91 0 0 0
SMALL
GASTEIGER

@<TRIPOS>ATOM
      1  N         11.3750   37.3710  -16.1670 N.3    17  ALA17      -0.1245
      2  CA        11.6480   38.3790  -15.1350 C.3    17  ALA17       0.1562
      3  C         10.3970   38.6740  -14.2960 C.2    17  ALA17       0.2260
      4  O         10.4870   38.9590  -13.0940 O.2    17  ALA17      -0.2867
      5  CB        12.2280   39.6630  -15.7420 C.3    17  ALA17       0.0290
      6  N         10.2910   35.6670  -11.7730 N.3    20  GLN20      -0.1231
      7  CA        11.2300   35.8890  -10.6720 C.3    20  GLN20       0.1698
      8  C         10.7240   36.9630   -9.6950 C.2    20  GLN20       0.2592
      9  O         10.6240   36.7390   -8.4820 O.2    20  GLN20      -0.2718
     10  CB        12.5910   36.2940  -11.2150 C.3    20  GLN20       0.0381
     11  CG        13.4720   36.9320  -10.1660 C.3    20  GLN20       0.0905
     12  CD        14.7980   37.3780  -10.7270 C.2    20  GLN20       0.2608
     13  OE1       15.2320   36.9020  -11.7790 O.2    20  GLN20      -0.2717
     14  NE2       15.4560   38.3000  -10.0270 N.am   20  GLN20      -0.0878
     15  N         10.3730   38.1240  -10.2360 N.am   21  GLU21      -0.1979
     16  CA         9.8290   39.1920   -9.3980 C.3    21  GLU21       0.1602
     17  C          8.5160   38.8050   -8.7150 C.2    21  GLU21       0.2287
     18  O          8.2810   39.1620   -7.5690 O.2    21  GLU21      -0.2864
     19  CB         9.6930   40.4860  -10.2000 C.3    21  GLU21       0.0415
     20  CG        11.0410   41.1320  -10.4640 C.3    21  GLU21       0.1163
     21  CD        11.0790   41.8540  -11.7800 C.2    21  GLU21       0.3649
     22  OE1        9.9990   42.3070  -12.2160 O.co2  21  GLU21      -0.2457
     23  OE2       12.1800   41.9550  -12.3800 O.co2  21  GLU21      -0.2457
     24  N         11.2390   49.9780  -13.3560 N.3    88  VAL88      -0.1231
     25  CA        11.1050   48.7630  -12.5550 C.3    88  VAL88       0.1692
     26  C         12.1720   48.7410  -11.4640 C.2    88  VAL88       0.2591
     27  O         11.8930   48.4570  -10.2920 O.2    88  VAL88      -0.2718
     28  CB        11.2460   47.4930  -13.3980 C.3    88  VAL88       0.0266
     29  CG1       11.1920   46.2390  -12.4810 C.3    88  VAL88       0.0020
     30  CG2       10.1570   47.4400  -14.4880 C.3    88  VAL88       0.0020
     31  N         13.3930   49.0750  -11.8600 N.am   89  LEU89      -0.1980
     32  CA        14.5080   49.0630  -10.9390 C.3    89  LEU89       0.1596
     33  C         14.2890   50.0090   -9.7390 C.2    89  LEU89       0.2287
     34  O         14.5490   49.6320   -8.5740 O.2    89  LEU89      -0.2864
     35  CB        15.8030   49.3810  -11.6830 C.3    89  LEU89       0.0297
     36  CG        17.0180   49.3850  -10.7640 C.3    89  LEU89       0.0022
     37  CD1       17.1730   48.0010  -10.1340 C.3    89  LEU89       0.0001
     38  CD2       18.2790   49.8110  -11.5090 C.3    89  LEU89       0.0001
     39  N         11.7930   48.4140   -7.3330 N.3    92  ILE92      -0.1231
     40  CA        12.3970   47.3740   -6.4990 C.3    92  ILE92       0.1692
     41  C         13.2250   47.9970   -5.3680 C.2    92  ILE92       0.2591
     42  O         13.0130   47.6850   -4.1940 O.2    92  ILE92      -0.2718
     43  CB        13.3100   46.4180   -7.2950 C.3    92  ILE92       0.0266
     44  CG1       12.5350   45.6760   -8.3780 C.3    92  ILE92       0.0019
     45  CG2       13.9710   45.4100   -6.3590 C.3    92  ILE92       0.0020
     46  CD1       13.4540   44.9880   -9.4210 C.3    92  ILE92       0.0001
     47  N         14.1710   48.8640   -5.7330 N.am   93  ILE93      -0.1980
     48  CA        15.0090   49.5710   -4.7610 C.3    93  ILE93       0.1595
     49  C         14.1740   50.2410   -3.6670 C.2    93  ILE93       0.2287
     50  O         14.5650   50.2670   -2.5000 O.2    93  ILE93      -0.2864
     51  CB        15.8700   50.6330   -5.4620 C.3    93  ILE93       0.0276
     52  CG1       16.9920   49.9680   -6.2620 C.3    93  ILE93       0.0022
     53  CG2       16.4700   51.6150   -4.4570 C.3    93  ILE93       0.0022
     54  CD1       17.8970   50.9780   -6.9570 C.3    93  ILE93       0.0001
     55  N         12.9010   47.4900   -1.2940 N.3    96  VAL96      -0.1231
     56  CA        13.9820   47.0750   -0.4040 C.3    96  VAL96       0.1692
     57  C         14.2890   48.1310    0.6900 C.2    96  VAL96       0.2591
     58  O         14.4960   47.7960    1.8750 O.2    96  VAL96      -0.2718
     59  CB        15.2330   46.6690   -1.2060 C.3    96  VAL96       0.0266
     60  CG1       16.4140   46.4810   -0.2850 C.3    96  VAL96       0.0020
     61  CG2       14.9510   45.3650   -1.9930 C.3    96  VAL96       0.0020
     62  N         14.2750   49.4040    0.3080 N.am   97  ILE97      -0.1980
     63  CA        14.4970   50.4760    1.2800 C.3    97  ILE97       0.1595
     64  C         13.3740   50.5410    2.3200 C.2    97  ILE97       0.2287
     65  O         13.6360   50.6190    3.5180 O.2    97  ILE97      -0.2864
     66  CB        14.6740   51.8400    0.5900 C.3    97  ILE97       0.0276
     67  CG1       16.0200   51.8930   -0.1340 C.3    97  ILE97       0.0022
     68  CG2       14.5900   52.9640    1.5920 C.3    97  ILE97       0.0022
     69  CD1       16.2380   53.1880   -0.8890 C.3    97  ILE97       0.0001
     70  N         13.8850   47.7450    4.7260 N.3   100  ALA100     -0.1231
     71  CA        14.9980   48.0040    5.6280 C.3   100  ALA100      0.1694
     72  C         14.5560   48.9500    6.7200 C.2   100  ALA100      0.2591
     73  O         14.6530   48.6160    7.8930 O.2   100  ALA100     -0.2718
     74  CB        16.1980   48.5830    4.8880 C.3   100  ALA100      0.0304
     75  N         14.0610   50.1240    6.3350 N.am  101  ILE101     -0.1980
     76  CA        13.6660   51.1220    7.3260 C.3   101  ILE101      0.1595
     77  C         12.6640   50.5460    8.3210 C.2   101  ILE101      0.2287
     78  O         12.8480   50.6670    9.5270 O.2   101  ILE101     -0.2864
     79  CB        13.0190   52.3760    6.7010 C.3   101  ILE101      0.0276
     80  CG1       13.8900   52.9840    5.5800 C.3   101  ILE101      0.0022
     81  CG2       12.6600   53.3640    7.7900 C.3   101  ILE101      0.0022
     82  CD1       15.3600   53.0500    5.8760 C.3   101  ILE101      0.0001
     83  N         13.9900   47.3080   10.3610 N.3   104  TRP104     -0.1241
     84  CA        15.0850   47.7110   11.2240 C.3   104  TRP104      0.1605
     85  C         14.5940   48.6240   12.3450 C.2   104  TRP104      0.2264
     86  O         15.0840   48.5470   13.4740 O.2   104  TRP104     -0.2867
     87  CB        16.2310   48.3580   10.4420 C.3   104  TRP104      0.0550
     88  CG        17.4750   48.4730   11.2600 C.ar  104  TRP104      0.0003
     89  CD1       18.1170   49.6210   11.6310 C.ar  104  TRP104      0.0946
     90  CD2       18.2110   47.3910   11.8530 C.ar  104  TRP104      0.0152
     91  NE1       19.2180   49.3170   12.4030 N.ar  104  TRP104     -0.2442
     92  CE2       19.2950   47.9560   12.5530 C.ar  104  TRP104      0.0810
     93  CE3       18.0610   46.0010   11.8510 C.ar  104  TRP104      0.0012
     94  CZ2       20.2230   47.1760   13.2440 C.ar  104  TRP104      0.0191
     95  CZ3       18.9810   45.2300   12.5370 C.ar  104  TRP104      0.0001
     96  CH2       20.0470   45.8170   13.2240 C.ar  104  TRP104      0.0015
@<TRIPOS>BOND
     1     1     2    1
     2     5     2    1
     3     2     3    1
     4    30    28    1
     5     3     4    2
     6    28    25    1
     7    28    29    1
     8    24    25    1
     9    25    26    1
    10    23    21   ar
    11    22    21   ar
    12    31    26   am
    13    31    32    1
    14    21    20    1
    15    13    12    2
    16     6     7    1
    17    35    32    1
    18    35    36    1
    19    38    36    1
    20    26    27    2
    21    10     7    1
    22    10    11    1
    23    32    33    1
    24    36    37    1
    25    12    11    1
    26    12    14   am
    27     7     8    1
    28    20    19    1
    29    15     8   am
    30    15    16    1
    31    19    16    1
    32    33    34    2
    33     8     9    2
    34    46    44    1
    35    16    17    1
    36    17    18    2
    37    44    43    1
    38    39    40    1
    39    43    40    1
    40    43    45    1
    41    54    52    1
    42    40    41    1
    43    52    51    1
    44    47    41   am
    45    47    48    1
    46    51    48    1
    47    51    53    1
    48    41    42    2
    49    48    49    1
    50    49    50    2
    51    61    59    1
    52    55    56    1
    53    59    56    1
    54    59    60    1
    55    69    67    1
    56    56    57    1
    57    67    66    1
    58    62    57   am
    59    62    63    1
    60    66    63    1
    61    66    68    1
    62    57    58    2
    63    63    64    1
    64    64    65    2
    65    70    71    1
    66    74    71    1
    67    80    82    1
    68    80    79    1
    69    71    72    1
    70    75    72   am
    71    75    76    1
    72    79    76    1
    73    79    81    1
    74    72    73    2
    75    76    77    1
    76    77    78    2
    77    83    84    1
    78    87    84    1
    79    87    88    1
    80    84    85    1
    81    88    89   ar
    82    88    90   ar
    83    89    91   ar
    84    93    90   ar
    85    93    95   ar
    86    90    92   ar
    87    85    86    2
    88    91    92   ar
    89    95    96   ar
    90    92    94   ar
    91    96    94   ar
