@<TRIPOS>MOLECULE
tmp/4brbA00.pdb
 89 82 0 0 0
SMALL
GASTEIGER

@<TRIPOS>ATOM
      1  N         44.8650   17.7070   17.7540 N.3    25  ALA25      -0.1245
      2  CA        43.9520   17.4020   16.6500 C.3    25  ALA25       0.1562
      3  C         43.1660   18.6280   16.2160 C.2    25  ALA25       0.2260
      4  O         42.9790   18.8560   15.0130 O.2    25  ALA25      -0.2867
      5  CB        42.9930   16.2420   16.9910 C.3    25  ALA25       0.0290
      6  N         45.6420   20.8020   14.2210 N.3    28  GLN28      -0.1231
      7  CA        45.9340   20.2120   12.9150 C.3    28  GLN28       0.1698
      8  C         44.7620   20.3810   11.9470 C.2    28  GLN28       0.2592
      9  O         44.9500   20.6860   10.7610 O.2    28  GLN28      -0.2718
     10  CB        46.3510   18.7540   13.0930 C.3    28  GLN28       0.0381
     11  CG        47.5950   18.6720   13.9980 C.3    28  GLN28       0.0905
     12  CD        48.0530   17.2630   14.2900 C.2    28  GLN28       0.2608
     13  OE1       47.2410   16.3640   14.5040 O.2    28  GLN28      -0.2717
     14  NE2       49.3540   17.0600   14.2950 N.am   28  GLN28      -0.0878
     15  N         43.5590   20.2310   12.4880 N.am   29  GLU29      -0.1979
     16  CA        42.3410   20.5660   11.7760 C.3    29  GLU29       0.1602
     17  C         42.3260   22.0260   11.3050 C.2    29  GLU29       0.2287
     18  O         42.0370   22.3060   10.1320 O.2    29  GLU29      -0.2864
     19  CB        41.1200   20.3210   12.6560 C.3    29  GLU29       0.0415
     20  CG        39.8420   20.1580   11.8370 C.3    29  GLU29       0.1163
     21  CD        38.5900   20.1290   12.6920 C.2    29  GLU29       0.3649
     22  OE1       38.2930   21.1600   13.3320 O.co2  29  GLU29      -0.2457
     23  OE2       37.8980   19.0870   12.7160 O.co2  29  GLU29      -0.2457
     24  N         44.4960   22.5650    8.4730 N.3    32  ALA32      -0.1231
     25  CA        43.9550   22.0460    7.2210 C.3    32  ALA32       0.1694
     26  C         42.9250   23.0270    6.6280 C.2    32  ALA32       0.2591
     27  O         42.8860   23.2580    5.4100 O.2    32  ALA32      -0.2718
     28  CB        43.3490   20.6610    7.4220 C.3    32  ALA32       0.0304
     29  N         42.1100   23.6080    7.5050 N.am   33  VAL33      -0.1980
     30  CA        41.1000   24.5670    7.0940 C.3    33  VAL33       0.1595
     31  C         41.7310   25.8370    6.5570 C.2    33  VAL33       0.2287
     32  O         41.3290   26.3130    5.4950 O.2    33  VAL33      -0.2864
     33  CB        40.1190   24.9040    8.2240 C.3    33  VAL33       0.0276
     34  CG1       39.1440   25.9770    7.7650 C.3    33  VAL33       0.0022
     35  CG2       39.3590   23.6480    8.6270 C.3    33  VAL33       0.0022
     36  N         43.1440   25.1300    3.1750 N.3    36  CYS36      -0.1235
     37  CA        42.0670   25.0160    2.1930 C.3    36  CYS36       0.1677
     38  C         41.5170   26.3670    1.7830 C.2    36  CYS36       0.2270
     39  O         41.2310   26.5990    0.5960 O.2    36  CYS36      -0.2867
     40  CB        40.9290   24.1470    2.7080 C.3    36  CYS36       0.0956
     41  SG        41.3560   22.4280    2.6820 S.3    36  CYS36      -0.0801
     42  N         34.6130   23.7280    4.1120 N.3    57  VAL57      -0.1245
     43  CA        35.5880   23.5930    5.2160 C.3    57  VAL57       0.1561
     44  C         35.2230   24.4840    6.4180 C.2    57  VAL57       0.2260
     45  O         35.4300   24.1140    7.5890 O.2    57  VAL57      -0.2867
     46  CB        37.0550   23.8200    4.7510 C.3    57  VAL57       0.0252
     47  CG1       37.4510   22.7850    3.6620 C.3    57  VAL57       0.0019
     48  CG2       37.2590   25.2540    4.2380 C.3    57  VAL57       0.0019
     49  N         32.7950   22.4720    8.3320 N.3    60  VAL60      -0.1245
     50  CA        33.5680   21.5650    9.1790 C.3    60  VAL60       0.1561
     51  C         33.9550   22.2120   10.5230 C.2    60  VAL60       0.2260
     52  O         33.7490   21.6320   11.6100 O.2    60  VAL60      -0.2867
     53  CB        34.8380   21.1000    8.4700 C.3    60  VAL60       0.0252
     54  CG1       35.7910   20.4720    9.4700 C.3    60  VAL60       0.0019
     55  CG2       34.4730   20.1040    7.3600 C.3    60  VAL60       0.0019
     56  N         32.7250   16.5960    7.5950 N.3   100  ILE100     -0.1245
     57  CA        34.0310   16.3000    6.9960 C.3   100  ILE100      0.1561
     58  C         33.9750   15.5260    5.6660 C.2   100  ILE100      0.2260
     59  O         34.7290   15.8290    4.7240 O.2   100  ILE100     -0.2867
     60  CB        34.9320   15.5670    7.9990 C.3   100  ILE100      0.0252
     61  CG1       35.2130   16.4930    9.1830 C.3   100  ILE100      0.0019
     62  CG2       36.2400   15.1180    7.3410 C.3   100  ILE100      0.0019
     63  CD1       36.3690   16.0540   10.0530 C.3   100  ILE100      0.0001
     64  N         32.8030   17.8070    3.0030 N.3   103  ALA103     -0.1231
     65  CA        33.7970   18.7680    2.5570 C.3   103  ALA103      0.1694
     66  C         34.7510   18.0960    1.5770 C.2   103  ALA103      0.2591
     67  O         35.0510   18.6420    0.4970 O.2   103  ALA103     -0.2718
     68  CB        34.5610   19.3480    3.7270 C.3   103  ALA103      0.0304
     69  N         35.2150   16.9040    1.9550 N.am  104  VAL104     -0.1980
     70  CA        36.1710   16.1710    1.1360 C.3   104  VAL104      0.1595
     71  C         35.6090   15.8820   -0.2440 C.2   104  VAL104      0.2287
     72  O         36.2470   16.1570   -1.2750 O.2   104  VAL104     -0.2864
     73  CB        36.5540   14.8510    1.7920 C.3   104  VAL104      0.0276
     74  CG1       37.5310   14.0950    0.9040 C.3   104  VAL104      0.0022
     75  CG2       37.1840   15.1160    3.1370 C.3   104  VAL104      0.0022
     76  N         35.1690   19.0150   -2.3850 N.3   107  TRP107     -0.1241
     77  CA        36.4400   19.3890   -2.9790 C.3   107  TRP107      0.1605
     78  C         36.8060   18.4900   -4.1490 C.2   107  TRP107      0.2264
     79  O         37.2830   18.9790   -5.1740 O.2   107  TRP107     -0.2867
     80  CB        37.5540   19.4280   -1.9320 C.3   107  TRP107      0.0550
     81  CG        37.5750   20.7360   -1.2500 C.ar  107  TRP107      0.0003
     82  CD1       36.5840   21.2740   -0.4660 C.ar  107  TRP107      0.0946
     83  CD2       38.6180   21.7100   -1.3080 C.ar  107  TRP107      0.0152
     84  NE1       36.9590   22.5220   -0.0290 N.ar  107  TRP107     -0.2442
     85  CE2       38.2040   22.8140   -0.5280 C.ar  107  TRP107      0.0810
     86  CE3       39.8610   21.7630   -1.9460 C.ar  107  TRP107      0.0012
     87  CZ2       39.0000   23.9610   -0.3690 C.ar  107  TRP107      0.0191
     88  CZ3       40.6540   22.8920   -1.7860 C.ar  107  TRP107      0.0001
     89  CH2       40.2250   23.9750   -1.0020 C.ar  107  TRP107      0.0015
@<TRIPOS>BOND
     1    79    78    2
     2    78    77    1
     3    77    76    1
     4    77    80    1
     5    86    88   ar
     6    86    83   ar
     7    80    81    1
     8    88    89   ar
     9    83    81   ar
    10    83    85   ar
    11    72    71    2
    12    81    82   ar
    13    89    87   ar
    14    85    87   ar
    15    85    84   ar
    16    82    84   ar
    17    71    70    1
    18    67    66    2
    19    39    38    2
    20    74    73    1
    21    70    73    1
    22    70    69    1
    23    66    69   am
    24    66    65    1
    25    38    37    1
    26    73    75    1
    27    37    40    1
    28    37    36    1
    29    65    64    1
    30    65    68    1
    31    41    40    1
    32    47    46    1
    33    42    43    1
    34    48    46    1
    35    59    58    2
    36    46    43    1
    37    43    44    1
    38    27    26    2
    39    32    31    2
    40    58    57    1
    41    44    45    2
    42    31    30    1
    43    26    25    1
    44    26    29   am
    45    57    56    1
    46    57    60    1
    47    30    29    1
    48    30    33    1
    49    25    28    1
    50    25    24    1
    51    62    60    1
    52    55    53    1
    53    34    33    1
    54    60    61    1
    55    33    35    1
    56    49    50    1
    57    53    50    1
    58    53    54    1
    59    50    51    1
    60    61    63    1
    61    18    17    2
    62    51    52    2
    63     9     8    2
    64    17    16    1
    65    16    15    1
    66    16    19    1
    67    20    19    1
    68    20    21    1
    69     8    15   am
    70     8     7    1
    71    21    23   ar
    72    21    22   ar
    73     7    10    1
    74     7     6    1
    75    10    11    1
    76    11    12    1
    77    12    14   am
    78    12    13    2
    79     4     3    2
    80     3     2    1
    81     2     5    1
    82     2     1    1
