@<TRIPOS>MOLECULE
tmp/4brcB01.pdb
 213 201 0 0 0
SMALL
GASTEIGER

@<TRIPOS>ATOM
      1  N         84.7210   -0.6530   31.2630 N.3    13  ASP13      -0.1239
      2  CA        83.2610   -0.4980   31.3480 C.3    13  ASP13       0.1674
      3  C         82.7970   -0.2080   29.9050 C.2    13  ASP13       0.2266
      4  O         82.9650    0.9230   29.4450 O.2    13  ASP13      -0.2867
      5  CB        82.9360    0.6760   32.3140 C.3    13  ASP13       0.1410
      6  CG        81.5070    1.1150   32.2860 C.2    13  ASP13       0.3668
      7  OD1       80.6410    0.4400   31.6460 O.co2  13  ASP13      -0.2456
      8  OD2       81.2020    2.1720   32.9210 O.co2  13  ASP13      -0.2456
      9  N         80.0520    0.5940   28.3280 N.3    15  GLY15      -0.1210
     10  CA        78.7260    1.0720   28.6310 C.3    15  GLY15       0.1956
     11  C         77.9630    1.4740   27.4170 C.2    15  GLY15       0.2613
     12  O         78.4930    1.5520   26.2830 O.2    15  GLY15      -0.2717
     13  N         76.7020    1.8180   27.6590 N.am   16  SER16      -0.1938
     14  CA        75.8320    2.0510   26.4980 C.3    16  SER16       0.2055
     15  C         76.1740    3.3140   25.7470 C.2    16  SER16       0.2643
     16  O         75.9690    3.3940   24.4990 O.2    16  SER16      -0.2714
     17  CB        74.3720    2.0550   26.9280 C.3    16  SER16       0.2130
     18  OG        74.0030    3.2780   27.5550 O.3    16  SER16      -0.2179
     19  N         76.7370    4.3420   26.4030 N.am   17  THR17      -0.1950
     20  CA        77.0860    5.6300   25.7130 C.3    17  THR17       0.1897
     21  C         78.5960    5.7800   25.4860 C.2    17  THR17       0.2313
     22  O         79.0020    6.7630   24.8290 O.2    17  THR17      -0.2863
     23  CB        76.5680    6.8710   26.4420 C.3    17  THR17       0.1794
     24  OG1       77.1770    7.0650   27.7330 O.3    17  THR17      -0.2208
     25  CG2       74.9940    6.8250   26.5560 C.3    17  THR17       0.0378
     26  N         84.9550    3.0400   29.0420 N.3    20  ARG20      -0.1245
     27  CA        85.9800    3.6300   29.9720 C.3    20  ARG20       0.1563
     28  C         86.9570    2.5290   30.3560 C.2    20  ARG20       0.2260
     29  O         86.5750    1.5350   31.0090 O.2    20  ARG20      -0.2867
     30  CB        85.2620    4.2050   31.1790 C.3    20  ARG20       0.0307
     31  CG        84.1240    5.1930   30.8320 C.3    20  ARG20       0.0489
     32  CD        82.8040    4.5020   30.8760 C.3    20  ARG20       0.2205
     33  NE        81.7780    5.3120   30.1580 N.pl3  20  ARG20      -0.0865
     34  CZ        80.4810    5.0190   30.1630 C.cat  20  ARG20       0.5346
     35  NH1       79.9900    4.0160   30.8670 N.pl3  20  ARG20       0.1354
     36  NH2       79.6570    5.7710   29.4540 N.pl3  20  ARG20       0.1354
     37  N         77.6900   -3.8240   29.1470 N.3    82  THR82      -0.1203
     38  CA        76.4780   -3.6810   29.9510 C.3    82  THR82       0.1994
     39  C         75.2080   -3.6090   29.0960 C.2    82  THR82       0.2617
     40  O         75.1060   -4.3520   28.0870 O.2    82  THR82      -0.2717
     41  CB        76.5930   -2.5190   30.9490 C.3    82  THR82       0.1784
     42  OG1       76.9280   -1.3180   30.3000 O.3    82  THR82      -0.2211
     43  CG2       77.7320   -2.8620   31.9240 C.3    82  THR82       0.0376
     44  N         74.2430   -2.7580   29.4370 N.am   83  ALA83      -0.1979
     45  CA        72.9180   -2.8790   28.8850 C.3    83  ALA83       0.1597
     46  C         72.8760   -2.5470   27.3760 C.2    83  ALA83       0.2287
     47  O         71.9370   -3.0720   26.6910 O.2    83  ALA83      -0.2864
     48  CB        71.9170   -2.0130   29.6770 C.3    83  ALA83       0.0319
     49  N         76.0730   -6.3650   37.1990 N.3   123  GLU123     -0.1245
     50  CA        76.3560   -4.9580   37.1990 C.3   123  GLU123      0.1567
     51  C         75.8930   -4.3270   38.5270 C.2   123  GLU123      0.2260
     52  O         76.6090   -3.4610   39.0290 O.2   123  GLU123     -0.2867
     53  CB        75.6570   -4.3610   35.9770 C.3   123  GLU123      0.0388
     54  CG        75.9520   -2.9100   35.6650 C.3   123  GLU123      0.1160
     55  CD        75.1990   -2.4840   34.3980 C.2   123  GLU123      0.3649
     56  OE1       74.5320   -3.3220   33.8060 O.co2 123  GLU123     -0.2457
     57  OE2       75.3410   -1.2780   34.0020 O.co2 123  GLU123     -0.2457
     58  N         72.4460    3.1310   40.1770 N.3   150  ASP150     -0.1225
     59  CA        73.2900    3.5250   39.0230 C.3   150  ASP150      0.1805
     60  C         72.3200    3.9370   37.8870 C.2   150  ASP150      0.2598
     61  O         71.5200    3.0930   37.4450 O.2   150  ASP150     -0.2718
     62  CB        74.1970    2.3640   38.6390 C.3   150  ASP150      0.1424
     63  CG        75.1000    2.6400   37.4410 C.2   150  ASP150      0.3668
     64  OD1       74.9690    3.7010   36.7800 O.co2 150  ASP150     -0.2456
     65  OD2       75.9900    1.7490   37.2230 O.co2 150  ASP150     -0.2456
     66  N         72.3920    5.2140   37.5470 N.am  151  MET151     -0.1965
     67  CA        71.5600    5.8160   36.5330 C.3   151  MET151      0.1736
     68  C         72.2690    5.7440   35.1620 C.2   151  MET151      0.2617
     69  O         72.9470    6.7200   34.7780 O.2   151  MET151     -0.2715
     70  CB        71.2990    7.2850   36.9250 C.3   151  MET151      0.0427
     71  CG        70.4190    7.5200   38.1200 C.3   151  MET151      0.0599
     72  SD        69.1480    6.4190   38.4850 S.3   151  MET151     -0.1393
     73  CE        68.4480    7.0160   40.0590 C.3   151  MET151      0.0692
     74  N         72.1520    4.6010   34.4800 N.am  152  GLY152     -0.1940
     75  CA        72.8310    4.4490   33.2190 C.3   152  GLY152      0.2014
     76  C         71.9660    4.8980   32.0270 C.2   152  GLY152      0.2639
     77  O         70.8390    5.3940   32.2030 O.2   152  GLY152     -0.2714
     78  N         72.4710    4.6980   30.8070 N.am  153  GLY153     -0.1939
     79  CA        71.8490    5.0810   29.5020 C.3   153  GLY153      0.2014
     80  C         70.9250    4.0390   28.9980 C.2   153  GLY153      0.2639
     81  O         69.8870    4.4300   28.3590 O.2   153  GLY153     -0.2714
     82  N         71.1550    2.7530   29.2390 N.am  154  ALA154     -0.1963
     83  CA        70.2950    1.6990   28.7760 C.3   154  ALA154      0.1728
     84  C         69.6010    0.9050   29.8090 C.2   154  ALA154      0.2616
     85  O         68.5150    0.4110   29.6090 O.2   154  ALA154     -0.2715
     86  CB        71.0180    0.8060   27.7470 C.3   154  ALA154      0.0334
     87  N         70.1840    0.8300   31.0160 N.am  155  SER155     -0.1950
     88  CA        69.5160    0.2940   32.2010 C.3   155  SER155      0.1924
     89  C         69.7730    1.1380   33.4260 C.2   155  SER155      0.2314
     90  O         70.7380    1.9560   33.4240 O.2   155  SER155     -0.2863
     91  CB        69.9200   -1.1680   32.4590 C.3   155  SER155      0.2116
     92  OG        71.2570   -1.3130   32.8900 O.3   155  SER155     -0.2180
     93  N         70.1920    0.4380   37.7620 N.3   157  GLN157     -0.1245
     94  CA        70.2920   -0.5760   38.8180 C.3   157  GLN157      0.1566
     95  C         69.9230   -0.0040   40.1800 C.2   157  GLN157      0.2260
     96  O         70.2020    1.2240   40.4170 O.2   157  GLN157     -0.2867
     97  CB        71.6850   -1.1860   38.9740 C.3   157  GLN157      0.0367
     98  CG        72.1480   -2.0940   37.8040 C.3   157  GLN157      0.0905
     99  CD        72.3350   -1.3400   36.5140 C.2   157  GLN157      0.2608
    100  OE1       71.5230   -1.4810   35.5500 O.2   157  GLN157     -0.2717
    101  NE2       73.3430   -0.4870   36.4190 N.am  157  GLN157     -0.0878
    102  N         68.5210    6.2820   30.6370 N.3   195  GLN195     -0.1231
    103  CA        68.2210    7.6490   30.1320 C.3   195  GLN195      0.1698
    104  C         67.9370    7.6550   28.6430 C.2   195  GLN195      0.2592
    105  O         66.9910    8.2770   28.1620 O.2   195  GLN195     -0.2718
    106  CB        69.4450    8.5640   30.2750 C.3   195  GLN195      0.0381
    107  CG        69.7310    9.0760   31.6310 C.3   195  GLN195      0.0905
    108  CD        70.7320   10.2300   31.5260 C.2   195  GLN195      0.2608
    109  OE1       71.1330   10.6460   30.4340 O.2   195  GLN195     -0.2717
    110  NE2       71.1270   10.7430   32.6550 N.am  195  GLN195     -0.0878
    111  N         68.8270    7.0510   27.8700 N.am  196  THR196     -0.1953
    112  CA        68.7710    7.1770   26.3830 C.3   196  THR196      0.1897
    113  C         67.5610    6.4140   25.9780 C.2   196  THR196      0.2313
    114  O         66.7570    6.9580   25.1900 O.2   196  THR196     -0.2863
    115  CB        69.9080    6.3670   25.7100 C.3   196  THR196      0.1794
    116  OG1       71.1040    6.8420   26.2550 O.3   196  THR196     -0.2208
    117  CG2       69.8800    6.5990   24.1730 C.3   196  THR196      0.0378
    118  N         76.3130    7.4490   37.9340 N.3   262  GLY262     -0.1210
    119  CA        75.7440    7.5590   36.5690 C.3   262  GLY262      0.1956
    120  C         75.2940    8.9700   36.2700 C.2   262  GLY262      0.2612
    121  O         75.8690    9.9450   36.7950 O.2   262  GLY262     -0.2717
    122  N         74.3300    9.1020   35.3180 N.am  263  GLY263     -0.1956
    123  CA        74.1140   10.4550   34.7470 C.3   263  GLY263      0.1869
    124  C         73.6460   11.4720   35.7460 C.2   263  GLY263      0.2309
    125  O         73.9160   12.6520   35.5570 O.2   263  GLY263     -0.2863
    126  N         76.4200   13.7480   36.9000 N.3   266  ASN266     -0.1225
    127  CA        76.7410   14.7770   35.9060 C.3   266  ASN266      0.1785
    128  C         75.7060   15.9030   35.8870 C.2   266  ASN266      0.2597
    129  O         76.0590   17.0750   35.8370 O.2   266  ASN266     -0.2718
    130  CB        76.9100   14.1800   34.5090 C.3   266  ASN266      0.1169
    131  CG        77.9590   13.0600   34.5180 C.2   266  ASN266      0.2627
    132  OD1       77.6580   11.9160   34.8130 O.2   266  ASN266     -0.2716
    133  ND2       79.1870   13.4200   34.2710 N.am  266  ASN266     -0.0877
    134  N         74.4220   15.5410   35.9210 N.am  267  LEU267     -0.1980
    135  CA        73.3990   16.5990   35.9010 C.3   267  LEU267      0.1596
    136  C         73.5180   17.4610   37.1740 C.2   267  LEU267      0.2287
    137  O         73.4750   18.6830   37.1300 O.2   267  LEU267     -0.2864
    138  CB        71.9980   15.9740   35.8530 C.3   267  LEU267      0.0297
    139  CG        70.7830   16.9230   35.9220 C.3   267  LEU267      0.0022
    140  CD1       69.5610   16.3740   35.2050 C.3   267  LEU267      0.0001
    141  CD2       70.3930   17.1860   37.3750 C.3   267  LEU267      0.0001
    142  N         76.3380   19.9520   37.1450 N.3   270  SER270     -0.1217
    143  CA        76.4040   20.8680   36.0500 C.3   270  SER270      0.1889
    144  C         76.2470   22.3370   36.4420 C.2   270  SER270      0.2288
    145  O         75.9320   22.6490   37.6050 O.2   270  SER270     -0.2866
    146  CB        75.3440   20.4560   35.0380 C.3   270  SER270      0.2089
    147  OG        74.0310   20.8860   35.4710 O.3   270  SER270     -0.2183
    148  N         76.9580   23.1780   27.4590 N.3   308  ASP308     -0.1239
    149  CA        76.5180   21.9010   28.0290 C.3   308  ASP308      0.1674
    150  C         75.6100   21.1230   27.0260 C.2   308  ASP308      0.2266
    151  O         74.4710   21.5270   26.7960 O.2   308  ASP308     -0.2867
    152  CB        75.7900   22.1690   29.3750 C.3   308  ASP308      0.1410
    153  CG        75.4750   20.9220   30.1120 C.2   308  ASP308      0.3668
    154  OD1       75.4160   19.8120   29.5060 O.co2 308  ASP308     -0.2456
    155  OD2       75.2990   20.9860   31.3440 O.co2 308  ASP308     -0.2456
    156  N         74.0220   18.5520   27.2530 N.3   310  TYR310     -0.1241
    157  CA        72.8260   17.9290   27.8870 C.3   310  TYR310      0.1605
    158  C         71.7330   18.9380   28.2220 C.2   310  TYR310      0.2264
    159  O         70.6810   18.5450   28.6870 O.2   310  TYR310     -0.2867
    160  CB        73.2100   17.1100   29.1260 C.3   310  TYR310      0.0534
    161  CG        73.8450   15.8080   28.7970 C.ar  310  TYR310     -0.0201
    162  CD1       75.1940   15.7280   28.5130 C.ar  310  TYR310     -0.0009
    163  CD2       73.0490   14.6610   28.6800 C.ar  310  TYR310     -0.0009
    164  CE1       75.7700   14.4980   28.1770 C.ar  310  TYR310      0.0417
    165  CE2       73.5760   13.4140   28.3620 C.ar  310  TYR310      0.0417
    166  CZ        74.9400   13.3480   28.0700 C.ar  310  TYR310      0.1957
    167  OH        75.4440   12.1260   27.7130 O.3   310  TYR310     -0.2866
    168  N         67.5960   18.6290   30.1970 N.3   314  TYR314     -0.1241
    169  CA        67.5360   18.6850   31.6380 C.3   314  TYR314      0.1605
    170  C         66.1360   18.7880   32.2240 C.2   314  TYR314      0.2264
    171  O         65.9860   18.3830   33.3980 O.2   314  TYR314     -0.2867
    172  CB        68.4440   19.8110   32.1810 C.3   314  TYR314      0.0534
    173  CG        69.9330   19.5520   32.1500 C.ar  314  TYR314     -0.0201
    174  CD1       70.4750   18.2700   32.2580 C.ar  314  TYR314     -0.0009
    175  CD2       70.8100   20.6290   32.0720 C.ar  314  TYR314     -0.0009
    176  CE1       71.8690   18.0160   32.3080 C.ar  314  TYR314      0.0417
    177  CE2       72.2050   20.4320   32.1820 C.ar  314  TYR314      0.0417
    178  CZ        72.7160   19.1360   32.2480 C.ar  314  TYR314      0.1957
    179  OH        74.0840   18.8540   32.2930 O.3   314  TYR314     -0.2866
    180  N         65.2310   15.0690   32.0990 N.3   317  LEU317     -0.1245
    181  CA        66.0400   14.1920   32.9520 C.3   317  LEU317      0.1561
    182  C         65.7390   14.4470   34.4590 C.2   317  LEU317      0.2260
    183  O         65.6480   13.4380   35.1910 O.2   317  LEU317     -0.2867
    184  CB        67.5340   14.3560   32.6720 C.3   317  LEU317      0.0270
    185  CG        67.9780   13.7980   31.3090 C.3   317  LEU317      0.0019
    186  CD1       69.4850   14.0870   31.1040 C.3   317  LEU317      0.0001
    187  CD2       67.6370   12.2890   31.1800 C.3   317  LEU317      0.0001
    188  N         64.4060   11.4120   36.7390 N.3   321  TYR321     -0.1241
    189  CA        65.0400   10.9090   37.9980 C.3   321  TYR321      0.1605
    190  C         64.0620   10.8850   39.1480 C.2   321  TYR321      0.2264
    191  O         64.0380    9.9290   39.9260 O.2   321  TYR321     -0.2867
    192  CB        66.2600   11.7280   38.3210 C.3   321  TYR321      0.0534
    193  CG        67.4380   11.6070   37.3500 C.ar  321  TYR321     -0.0201
    194  CD1       67.8970   10.4160   36.8600 C.ar  321  TYR321     -0.0009
    195  CD2       68.1370   12.7950   37.0180 C.ar  321  TYR321     -0.0009
    196  CE1       69.0270   10.4100   35.8970 C.ar  321  TYR321      0.0417
    197  CE2       69.1990   12.8540   36.1760 C.ar  321  TYR321      0.0417
    198  CZ        69.5950   11.6550   35.5840 C.ar  321  TYR321      0.1957
    199  OH        70.6490   11.7370   34.6820 O.3   321  TYR321     -0.2866
    200  N         81.2430    0.9180   38.2490 N.3   348  TRP348     -0.1241
    201  CA        81.1510   -0.4080   38.8150 C.3   348  TRP348      0.1605
    202  C         82.4530   -1.2520   38.6440 C.2   348  TRP348      0.2264
    203  O         82.5540   -2.3350   39.2470 O.2   348  TRP348     -0.2867
    204  CB        79.8760   -1.1210   38.3160 C.3   348  TRP348      0.0550
    205  CG        79.8560   -1.1580   36.8060 C.ar  348  TRP348      0.0003
    206  CD1       79.1060   -0.3120   36.0520 C.ar  348  TRP348      0.0946
    207  CD2       80.5630   -2.0340   35.9210 C.ar  348  TRP348      0.0152
    208  NE1       79.3280   -0.5740   34.7140 N.ar  348  TRP348     -0.2442
    209  CE2       80.2290   -1.6200   34.5870 C.ar  348  TRP348      0.0810
    210  CE3       81.4450   -3.1070   36.0670 C.ar  348  TRP348      0.0012
    211  CZ2       80.7550   -2.2370   33.4510 C.ar  348  TRP348      0.0191
    212  CZ3       81.9850   -3.7270   34.8940 C.ar  348  TRP348      0.0001
    213  CH2       81.6490   -3.2870   33.6080 C.ar  348  TRP348      0.0015
@<TRIPOS>BOND
     1   117   115    1
     2    16    15    2
     3    22    21    2
     4   114   113    2
     5    21    20    1
     6   115   116    1
     7   115   112    1
     8    20    19    1
     9    20    23    1
    10    15    19   am
    11    15    14    1
    12   113   112    1
    13    12    11    2
    14   112   111    1
    15    23    25    1
    16    23    24    1
    17    14    17    1
    18    14    13    1
    19    47    46    2
    20   151   150    2
    21    17    18    1
    22   150   149    1
    23   156   157    1
    24    46    45    1
    25    11    13   am
    26    11    10    1
    27   148   149    1
    28   167   166    1
    29    86    83    1
    30   111   104   am
    31   157   158    1
    32   157   160    1
    33   149   152    1
    34   166   164   ar
    35   166   165   ar
    36    40    39    2
    37   105   104    2
    38   164   162   ar
    39   158   159    2
    40     9    10    1
    41    81    80    2
    42   165   163   ar
    43   162   161   ar
    44   104   103    1
    45   163   161   ar
    46    83    82    1
    47    83    84    1
    48   161   160    1
    49    45    44    1
    50    45    48    1
    51    80    82   am
    52    80    79    1
    53    26    27    1
    54    39    44   am
    55    39    38    1
    56    37    38    1
    57   152   153    1
    58     4     3    2
    59    36    34    1
    60    79    78    1
    61   154   153   ar
    62    85    84    2
    63    84    87   am
    64     3     2    1
    65    38    41    1
    66    27    28    1
    67    27    30    1
    68   153   155   ar
    69   103   106    1
    70   103   102    1
    71    33    34    2
    72    33    32    1
    73    34    35    1
    74   168   169    1
    75   106   107    1
    76    42    41    1
    77    28    29    2
    78   109   108    2
    79    78    76   am
    80    31    32    1
    81    31    30    1
    82    41    43    1
    83    87    88    1
    84   186   185    1
    85   187   185    1
    86     1     2    1
    87   185   184    1
    88     2     5    1
    89   108   107    1
    90   108   110   am
    91   169   172    1
    92   169   170    1
    93     7     6   ar
    94    76    77    2
    95    76    75    1
    96   175   173   ar
    97   175   177   ar
    98   180   181    1
    99   173   172    1
   100   173   174   ar
   101   177   178   ar
   102    88    91    1
   103    88    89    1
   104   170   171    2
   105   178   179    1
   106   178   176   ar
   107   174   176   ar
   108     6     5    1
   109     6     8   ar
   110    91    92    1
   111   184   181    1
   112   181   182    1
   113    75    74    1
   114    90    89    2
   115   211   213   ar
   116   211   209   ar
   117   213   212   ar
   118    56    55   ar
   119    57    55   ar
   120   133   131   am
   121    55    54    1
   122   182   183    2
   123    74    68   am
   124   130   131    1
   125   130   127    1
   126   131   132    2
   127   209   208   ar
   128   209   207   ar
   129   199   198    1
   130   208   206   ar
   131   123   122    1
   132   123   124    1
   133    69    68    2
   134   212   210   ar
   135   146   147    1
   136   146   143    1
   137    68    67    1
   138   140   139    1
   139   122   120   am
   140   100    99    2
   141   125   124    2
   142   198   196   ar
   143   198   197   ar
   144    54    53    1
   145   129   128    2
   146   138   135    1
   147   138   139    1
   148   128   127    1
   149   128   134   am
   150   196   194   ar
   151   135   134    1
   152   135   136    1
   153   127   126    1
   154   207   210   ar
   155   207   205   ar
   156   139   141    1
   157    53    50    1
   158   143   144    1
   159   143   142    1
   160   206   205   ar
   161   197   195   ar
   162   120   119    1
   163   120   121    2
   164   101    99   am
   165   144   145    2
   166    99    98    1
   167    67    70    1
   168    67    66    1
   169   119   118    1
   170   188   189    1
   171    64    63   ar
   172   205   204    1
   173   194   193   ar
   174    70    71    1
   175   195   193   ar
   176   137   136    2
   177    50    49    1
   178    50    51    1
   179    65    63   ar
   180   193   192    1
   181    63    62    1
   182    61    60    2
   183    66    60   am
   184    93    94    1
   185    98    97    1
   186    60    59    1
   187   189   192    1
   188   189   190    1
   189    71    72    1
   190   200   201    1
   191   204   201    1
   192    72    73    1
   193    51    52    2
   194    62    59    1
   195   202   201    1
   196   202   203    2
   197    94    97    1
   198    94    95    1
   199    59    58    1
   200   190   191    2
   201    95    96    2
