@<TRIPOS>MOLECULE
tmp/4breB01.pdb
 145 137 0 0 0
SMALL
GASTEIGER

@<TRIPOS>ATOM
      1  N         79.6900    0.3470   28.5910 N.3    15  GLY15      -0.1210
      2  CA        78.3370    0.8060   28.7820 C.3    15  GLY15       0.1956
      3  C         77.5960    1.2540   27.5460 C.2    15  GLY15       0.2613
      4  O         78.1480    1.3250   26.3990 O.2    15  GLY15      -0.2717
      5  N         76.3400    1.6390   27.7420 N.am   16  SER16      -0.1938
      6  CA        75.4730    1.9790   26.6100 C.3    16  SER16       0.2055
      7  C         75.9470    3.2470   25.9080 C.2    16  SER16       0.2643
      8  O         75.7330    3.4110   24.6860 O.2    16  SER16      -0.2714
      9  CB        74.0130    2.0120   27.1110 C.3    16  SER16       0.2130
     10  OG        73.7640    3.1670   27.8030 O.3    16  SER16      -0.2179
     11  N         76.5350    4.1970   26.6260 N.am   17  THR17      -0.1950
     12  CA        76.9590    5.4750   25.9940 C.3    17  THR17       0.1897
     13  C         78.4720    5.6010   25.8000 C.2    17  THR17       0.2313
     14  O         78.9350    6.5770   25.1770 O.2    17  THR17      -0.2863
     15  CB        76.4860    6.7180   26.8030 C.3    17  THR17       0.1794
     16  OG1       77.1250    6.7010   28.0740 O.3    17  THR17      -0.2208
     17  CG2       74.9040    6.7460   26.9460 C.3    17  THR17       0.0378
     18  N         84.7590    2.5640   29.3060 N.3    20  ARG20      -0.1245
     19  CA        85.7700    3.1480   30.2370 C.3    20  ARG20       0.1563
     20  C         86.7540    2.0360   30.6340 C.2    20  ARG20       0.2260
     21  O         86.3750    1.0170   31.2310 O.2    20  ARG20      -0.2867
     22  CB        85.0310    3.6580   31.5010 C.3    20  ARG20       0.0307
     23  CG        83.9010    4.6650   31.1430 C.3    20  ARG20       0.0489
     24  CD        82.5660    3.9300   31.0690 C.3    20  ARG20       0.2205
     25  NE        81.6120    4.8040   30.3910 N.pl3  20  ARG20      -0.0865
     26  CZ        80.3000    4.5410   30.3740 C.cat  20  ARG20       0.5346
     27  NH1       79.8880    3.4670   31.0320 N.pl3  20  ARG20       0.1354
     28  NH2       79.4780    5.3500   29.7600 N.pl3  20  ARG20       0.1354
     29  N         83.7770    7.2770   23.4610 N.3    46  LYS46      -0.1245
     30  CA        82.3780    7.1530   23.0060 C.3    46  LYS46       0.1561
     31  C         82.4280    6.7660   21.5200 C.2    46  LYS46       0.2260
     32  O         83.4770    6.9530   20.9040 O.2    46  LYS46      -0.2867
     33  CB        81.6830    8.5170   23.1390 C.3    46  LYS46       0.0271
     34  CG        81.5480    8.9790   24.5840 C.3    46  LYS46       0.0035
     35  CD        80.4650   10.0630   24.6550 C.3    46  LYS46       0.0206
     36  CE        80.7200   11.0650   25.7670 C.3    46  LYS46       0.1093
     37  NZ        81.6580   12.0910   25.2200 N.3    46  LYS46      -0.1314
     38  N         72.2660    2.9010   40.3690 N.3   150  ASP150     -0.1225
     39  CA        73.1780    3.2450   39.2640 C.3   150  ASP150      0.1805
     40  C         72.2580    3.6370   38.1390 C.2   150  ASP150      0.2598
     41  O         71.4350    2.8260   37.7110 O.2   150  ASP150     -0.2718
     42  CB        74.0550    2.0200   38.8960 C.3   150  ASP150      0.1424
     43  CG        74.9110    2.2290   37.6270 C.2   150  ASP150      0.3668
     44  OD1       74.5800    3.1300   36.8150 O.co2 150  ASP150     -0.2456
     45  OD2       75.9050    1.4790   37.4690 O.co2 150  ASP150     -0.2456
     46  N         72.3420    4.9070   37.7230 N.am  151  MET151     -0.1965
     47  CA        71.5070    5.5050   36.6460 C.3   151  MET151      0.1736
     48  C         72.2210    5.4460   35.3190 C.2   151  MET151      0.2617
     49  O         73.1100    6.2490   35.1020 O.2   151  MET151     -0.2715
     50  CB        71.1720    6.9800   37.0260 C.3   151  MET151      0.0427
     51  CG        70.7410    7.1160   38.5130 C.3   151  MET151      0.0599
     52  SD        69.1810    6.2560   38.6480 S.3   151  MET151     -0.1393
     53  CE        68.7580    6.9340   40.3050 C.3   151  MET151      0.0692
     54  N         71.9190    4.4280   34.4740 N.am  152  GLY152     -0.1940
     55  CA        72.6680    4.2350   33.1970 C.3   152  GLY152      0.2014
     56  C         71.7750    4.7540   32.0640 C.2   152  GLY152      0.2639
     57  O         70.7130    5.3340   32.2550 O.2   152  GLY152     -0.2714
     58  N         72.3500    4.5430   30.8710 N.am  153  GLY153     -0.1954
     59  CA        71.7150    5.0520   29.5670 C.3   153  GLY153      0.1869
     60  C         70.6390    4.0930   29.1400 C.2   153  GLY153      0.2309
     61  O         69.6280    4.5290   28.5770 O.2   153  GLY153     -0.2863
     62  N         68.3420    6.3320   30.8750 N.3   195  GLN195     -0.1231
     63  CA        68.0350    7.7200   30.4360 C.3   195  GLN195      0.1698
     64  C         67.7090    7.7590   28.9430 C.2   195  GLN195      0.2592
     65  O         66.7800    8.4220   28.5130 O.2   195  GLN195     -0.2718
     66  CB        69.3320    8.5400   30.6680 C.3   195  GLN195      0.0381
     67  CG        69.3050    9.9630   30.1750 C.3   195  GLN195      0.0905
     68  CD        70.5820   10.7080   30.5590 C.2   195  GLN195      0.2608
     69  OE1       71.1250   10.5080   31.6280 O.2   195  GLN195     -0.2717
     70  NE2       71.0510   11.5670   29.6660 N.am  195  GLN195     -0.0878
     71  N         68.5380    7.0990   28.1670 N.am  196  THR196     -0.1953
     72  CA        68.4390    7.2330   26.6730 C.3   196  THR196      0.1897
     73  C         67.1610    6.5240   26.2460 C.2   196  THR196      0.2313
     74  O         66.3140    7.0700   25.5400 O.2   196  THR196     -0.2863
     75  CB        69.5620    6.4920   25.9710 C.3   196  THR196      0.1794
     76  OG1       70.8080    7.0550   26.4000 O.3   196  THR196     -0.2208
     77  CG2       69.4900    6.6630   24.4750 C.3   196  THR196      0.0378
     78  N         76.3480    7.1370   38.2440 N.3   262  GLY262     -0.1210
     79  CA        75.7810    7.2500   36.8760 C.3   262  GLY262      0.1956
     80  C         75.3610    8.6810   36.5720 C.2   262  GLY262      0.2612
     81  O         75.8590    9.6440   37.1830 O.2   262  GLY262     -0.2717
     82  N         74.4160    8.8400   35.6600 N.am  263  GLY263     -0.1956
     83  CA        74.0930   10.1520   35.1250 C.3   263  GLY263      0.1869
     84  C         73.6640   11.2150   36.0910 C.2   263  GLY263      0.2309
     85  O         73.8840   12.3990   35.8440 O.2   263  GLY263     -0.2863
     86  N         76.4190   13.5120   37.1880 N.3   266  ASN266     -0.1225
     87  CA        76.7310   14.5430   36.2060 C.3   266  ASN266      0.1785
     88  C         75.7230   15.6900   36.2040 C.2   266  ASN266      0.2597
     89  O         76.1190   16.8760   36.2150 O.2   266  ASN266     -0.2718
     90  CB        76.8730   13.9660   34.8180 C.3   266  ASN266      0.1169
     91  CG        77.8330   12.7940   34.7760 C.2   266  ASN266      0.2627
     92  OD1       77.4190   11.6730   34.9790 O.2   266  ASN266     -0.2716
     93  ND2       79.0830   13.0510   34.5660 N.am  266  ASN266     -0.0877
     94  N         74.4390   15.3350   36.2760 N.am  267  LEU267     -0.1980
     95  CA        73.4080   16.3510   36.3230 C.3   267  LEU267      0.1596
     96  C         73.5690   17.1990   37.6000 C.2   267  LEU267      0.2287
     97  O         73.5270   18.4770   37.5220 O.2   267  LEU267     -0.2864
     98  CB        72.0030   15.7480   36.2260 C.3   267  LEU267      0.0297
     99  CG        70.8240   16.7020   36.4320 C.3   267  LEU267      0.0022
    100  CD1       69.5670   16.1140   35.8320 C.3   267  LEU267      0.0001
    101  CD2       70.4710   16.9870   37.9120 C.3   267  LEU267      0.0001
    102  N         73.6730   18.4270   27.5070 N.3   310  TYR310     -0.1241
    103  CA        72.5300   17.8260   28.1740 C.3   310  TYR310      0.1605
    104  C         71.4510   18.8530   28.5520 C.2   310  TYR310      0.2264
    105  O         70.3320   18.4830   28.9920 O.2   310  TYR310     -0.2867
    106  CB        73.0300   17.0870   29.4350 C.3   310  TYR310      0.0534
    107  CG        73.6940   15.7530   29.0900 C.ar  310  TYR310     -0.0201
    108  CD1       75.0610   15.6730   28.8090 C.ar  310  TYR310     -0.0009
    109  CD2       72.9280   14.5920   29.0860 C.ar  310  TYR310     -0.0009
    110  CE1       75.6510   14.4320   28.5040 C.ar  310  TYR310      0.0417
    111  CE2       73.4960   13.3690   28.7980 C.ar  310  TYR310      0.0417
    112  CZ        74.8320   13.3070   28.4710 C.ar  310  TYR310      0.1957
    113  OH        75.3190   12.0510   28.1720 O.3   310  TYR310     -0.2866
    114  N         67.3240   18.5870   30.6240 N.3   314  TYR314     -0.1241
    115  CA        67.3690   18.6400   32.0910 C.3   314  TYR314      0.1605
    116  C         66.0000   18.7370   32.7270 C.2   314  TYR314      0.2264
    117  O         65.8580   18.2650   33.8780 O.2   314  TYR314     -0.2867
    118  CB        68.2410   19.7970   32.6240 C.3   314  TYR314      0.0534
    119  CG        69.7290   19.5590   32.5550 C.ar  314  TYR314     -0.0201
    120  CD1       70.2780   18.2660   32.6920 C.ar  314  TYR314     -0.0009
    121  CD2       70.5940   20.6520   32.4240 C.ar  314  TYR314     -0.0009
    122  CE1       71.6770   18.0800   32.6510 C.ar  314  TYR314      0.0417
    123  CE2       71.9570   20.4940   32.4040 C.ar  314  TYR314      0.0417
    124  CZ        72.4850   19.2240   32.5120 C.ar  314  TYR314      0.1957
    125  OH        73.8520   19.0710   32.4860 O.3   314  TYR314     -0.2866
    126  N         65.1100   15.0280   32.6410 N.3   317  LEU317     -0.1245
    127  CA        65.9660   14.1790   33.5610 C.3   317  LEU317      0.1561
    128  C         65.6140   14.4270   35.0000 C.2   317  LEU317      0.2260
    129  O         65.4900   13.4550   35.7510 O.2   317  LEU317     -0.2867
    130  CB        67.4400   14.4360   33.2840 C.3   317  LEU317      0.0270
    131  CG        67.8500   13.9260   31.8880 C.3   317  LEU317      0.0019
    132  CD1       69.3610   14.2560   31.6650 C.3   317  LEU317      0.0001
    133  CD2       67.6100   12.4190   31.7590 C.3   317  LEU317      0.0001
    134  N         64.3270   11.2890   37.2230 N.3   321  TYR321     -0.1241
    135  CA        64.9470   10.8390   38.5110 C.3   321  TYR321      0.1605
    136  C         63.9690   10.8030   39.6670 C.2   321  TYR321      0.2264
    137  O         63.9730    9.8620   40.4810 O.2   321  TYR321     -0.2867
    138  CB        66.1830   11.6600   38.9220 C.3   321  TYR321      0.0534
    139  CG        67.3510   11.6340   37.9660 C.ar  321  TYR321     -0.0201
    140  CD1       67.8400   10.4250   37.4430 C.ar  321  TYR321     -0.0009
    141  CD2       67.9700   12.8030   37.5450 C.ar  321  TYR321     -0.0009
    142  CE1       68.9230   10.3950   36.5610 C.ar  321  TYR321      0.0417
    143  CE2       69.0490   12.7620   36.6360 C.ar  321  TYR321      0.0417
    144  CZ        69.5230   11.5670   36.1300 C.ar  321  TYR321      0.1957
    145  OH        70.5800   11.5130   35.1900 O.3   321  TYR321     -0.2866
@<TRIPOS>BOND
     1    32    31    2
     2    31    30    1
     3    30    33    1
     4    30    29    1
     5    33    34    1
     6    77    75    1
     7    34    35    1
     8    35    36    1
     9     8     7    2
    10    14    13    2
    11    37    36    1
    12    74    73    2
    13    13    12    1
    14     7     6    1
    15     7    11   am
    16    75    76    1
    17    75    72    1
    18    12    11    1
    19    12    15    1
    20    73    72    1
    21     4     3    2
    22     6     9    1
    23     6     5    1
    24    72    71    1
    25    15    17    1
    26    15    16    1
    27     9    10    1
    28   102   103    1
    29     3     5   am
    30     3     2    1
    31    71    64   am
    32   113   112    1
    33   103   104    1
    34   103   106    1
    35   112   110   ar
    36   112   111   ar
    37   110   108   ar
    38    65    64    2
    39   104   105    2
    40    61    60    2
    41     1     2    1
    42   111   109   ar
    43   108   107   ar
    44    64    63    1
    45   109   107   ar
    46   107   106    1
    47    60    59    1
    48    18    19    1
    49    59    58    1
    50    70    68   am
    51    28    26    1
    52    67    68    1
    53    67    66    1
    54    19    20    1
    55    19    22    1
    56    26    25    2
    57    26    27    1
    58    25    24    1
    59    63    66    1
    60    63    62    1
    61    68    69    2
    62   114   115    1
    63    20    21    2
    64    58    56   am
    65    24    23    1
    66    23    22    1
    67   132   131    1
    68   133   131    1
    69   131   130    1
    70    56    57    2
    71    56    55    1
    72   115   118    1
    73   115   116    1
    74   123   121   ar
    75   123   124   ar
    76   121   119   ar
    77   125   124    1
    78   124   122   ar
    79   119   118    1
    80   119   120   ar
    81   126   127    1
    82   122   120   ar
    83   116   117    2
    84    55    54    1
    85   130   127    1
    86   127   128    1
    87    54    48   am
    88    93    91   am
    89    91    90    1
    90    91    92    2
    91    90    87    1
    92   128   129    2
    93    49    48    2
    94    83    82    1
    95    83    84    1
    96   145   144    1
    97    48    47    1
    98    82    80   am
    99   100    99    1
   100    85    84    2
   101   144   142   ar
   102   144   143   ar
   103    88    87    1
   104    88    89    2
   105    88    94   am
   106    87    86    1
   107    98    95    1
   108    98    99    1
   109    94    95    1
   110    95    96    1
   111    99   101    1
   112   142   140   ar
   113    80    79    1
   114    80    81    2
   115   143   141   ar
   116    47    50    1
   117    47    46    1
   118    44    43   ar
   119    79    78    1
   120    50    51    1
   121   134   135    1
   122   140   139   ar
   123    45    43   ar
   124    97    96    2
   125   141   139   ar
   126    43    42    1
   127    41    40    2
   128    46    40   am
   129   139   138    1
   130    40    39    1
   131   135   138    1
   132   135   136    1
   133    51    52    1
   134    52    53    1
   135    42    39    1
   136    39    38    1
   137   136   137    2
