@<TRIPOS>MOLECULE
tmp/4brgB01.pdb
 204 192 0 0 0
SMALL
GASTEIGER

@<TRIPOS>ATOM
      1  N         83.3930   -1.1180   31.7180 N.3    15  ASP15      -0.1239
      2  CA        81.9340   -0.9490   31.8130 C.3    15  ASP15       0.1674
      3  C         81.4730   -0.5440   30.4440 C.2    15  ASP15       0.2266
      4  O         81.7080    0.6280   30.0200 O.2    15  ASP15      -0.2867
      5  CB        81.6510    0.1140   32.8490 C.3    15  ASP15       0.1410
      6  CG        80.1960    0.6980   32.8030 C.2    15  ASP15       0.3668
      7  OD1       79.3310    0.1940   32.1000 O.co2  15  ASP15      -0.2456
      8  OD2       80.0050    1.6950   33.5380 O.co2  15  ASP15      -0.2456
      9  N         78.6360    0.4350   28.8090 N.3    17  GLY17      -0.1210
     10  CA        77.2670    0.9020   29.0880 C.3    17  GLY17       0.1956
     11  C         76.5530    1.3650   27.8310 C.2    17  GLY17       0.2613
     12  O         77.1140    1.4560   26.7050 O.2    17  GLY17      -0.2717
     13  N         75.2770    1.7090   27.9880 N.am   18  SER18      -0.1938
     14  CA        74.4920    2.0540   26.8260 C.3    18  SER18       0.2055
     15  C         74.9840    3.3360   26.1410 C.2    18  SER18       0.2643
     16  O         74.8020    3.4480   24.9360 O.2    18  SER18      -0.2714
     17  CB        72.9760    2.1240   27.1660 C.3    18  SER18       0.2130
     18  OG        72.7620    3.2800   27.9790 O.3    18  SER18      -0.2179
     19  N         75.6030    4.2890   26.8820 N.am   19  THR19      -0.1950
     20  CA        75.9320    5.5680   26.2880 C.3    19  THR19       0.1897
     21  C         77.4320    5.6920   26.0400 C.2    19  THR19       0.2313
     22  O         77.8640    6.6770   25.4640 O.2    19  THR19      -0.2863
     23  CB        75.4690    6.8090   27.1510 C.3    19  THR19       0.1794
     24  OG1       76.1500    6.8530   28.3810 O.3    19  THR19      -0.2208
     25  CG2       73.9200    6.8020   27.4480 C.3    19  THR19       0.0378
     26  N         83.7490    2.6340   29.6320 N.3    22  ARG22      -0.1245
     27  CA        84.7310    3.1700   30.5700 C.3    22  ARG22       0.1563
     28  C         85.6960    2.0770   30.9680 C.2    22  ARG22       0.2260
     29  O         85.3260    1.0740   31.5440 O.2    22  ARG22      -0.2867
     30  CB        84.0550    3.7260   31.8150 C.3    22  ARG22       0.0307
     31  CG        82.9610    4.7560   31.5040 C.3    22  ARG22       0.0489
     32  CD        81.6270    4.0490   31.3870 C.3    22  ARG22       0.2205
     33  NE        80.7030    4.8970   30.6500 N.pl3  22  ARG22      -0.0865
     34  CZ        79.3670    4.6500   30.6070 C.cat  22  ARG22       0.5346
     35  NH1       78.8420    3.5850   31.2600 N.pl3  22  ARG22       0.1354
     36  NH2       78.5970    5.4590   29.9400 N.pl3  22  ARG22       0.1354
     37  N         82.7530    7.5480   24.0660 N.3    48  LYS48      -0.1245
     38  CA        81.4020    7.4490   23.5550 C.3    48  LYS48       0.1561
     39  C         81.5000    7.1600   22.0570 C.2    48  LYS48       0.2260
     40  O         82.4840    7.4700   21.4280 O.2    48  LYS48      -0.2867
     41  CB        80.6470    8.7580   23.7660 C.3    48  LYS48       0.0271
     42  CG        80.4420    9.1120   25.2280 C.3    48  LYS48       0.0035
     43  CD        79.8660   10.4960   25.2700 C.3    48  LYS48       0.0206
     44  CE        79.6270   10.9260   26.6700 C.3    48  LYS48       0.1093
     45  NZ        79.2780   12.3610   26.6010 N.3    48  LYS48      -0.1314
     46  N         76.3630   -3.8950   29.4980 N.3    84  THR84      -0.1203
     47  CA        75.1480   -3.7600   30.3100 C.3    84  THR84       0.1994
     48  C         73.9500   -3.5430   29.3850 C.2    84  THR84       0.2617
     49  O         73.7900   -4.2460   28.3690 O.2    84  THR84      -0.2717
     50  CB        75.3110   -2.7150   31.4520 C.3    84  THR84       0.1784
     51  OG1       75.6820   -1.4380   30.9090 O.3    84  THR84      -0.2211
     52  CG2       76.4130   -3.2020   32.4320 C.3    84  THR84       0.0376
     53  N         73.0400   -2.6420   29.7700 N.am   85  ALA85      -0.1979
     54  CA        71.7070   -2.6350   29.1600 C.3    85  ALA85       0.1597
     55  C         71.7220   -2.3430   27.6610 C.2    85  ALA85       0.2287
     56  O         70.8010   -2.7190   26.9620 O.2    85  ALA85      -0.2864
     57  CB        70.8070   -1.6680   29.9630 C.3    85  ALA85       0.0319
     58  N         74.6930   -6.6370   37.5020 N.3   125  GLU125     -0.1245
     59  CA        75.0930   -5.2160   37.5100 C.3   125  GLU125      0.1567
     60  C         74.6860   -4.5800   38.8420 C.2   125  GLU125      0.2260
     61  O         75.4400   -3.8070   39.4460 O.2   125  GLU125     -0.2867
     62  CB        74.3930   -4.5680   36.3850 C.3   125  GLU125      0.0388
     63  CG        74.7230   -3.0990   36.0800 C.3   125  GLU125      0.1160
     64  CD        74.0170   -2.6370   34.8190 C.2   125  GLU125      0.3649
     65  OE1       73.1770   -3.4030   34.2620 O.co2 125  GLU125     -0.2457
     66  OE2       74.1810   -1.4520   34.3790 O.co2 125  GLU125     -0.2457
     67  N         71.2630    2.7170   40.7400 N.3   152  ASP152     -0.1225
     68  CA        72.0900    3.1510   39.6160 C.3   152  ASP152      0.1805
     69  C         71.1420    3.6030   38.5130 C.2   152  ASP152      0.2598
     70  O         70.3530    2.7980   37.9860 O.2   152  ASP152     -0.2718
     71  CB        72.9980    1.9880   39.1520 C.3   152  ASP152      0.1424
     72  CG        73.9080    2.3080   37.9810 C.2   152  ASP152      0.3668
     73  OD1       73.7510    3.3540   37.3050 O.co2 152  ASP152     -0.2456
     74  OD2       74.8050    1.4440   37.6540 O.co2 152  ASP152     -0.2456
     75  N         71.2280    4.8940   38.1710 N.am  153  MET153     -0.1965
     76  CA        70.2980    5.5280   37.2420 C.3   153  MET153      0.1736
     77  C         70.9360    5.6300   35.8690 C.2   153  MET153      0.2617
     78  O         71.5410    6.6590   35.5070 O.2   153  MET153     -0.2715
     79  CB        69.9960    6.9420   37.8140 C.3   153  MET153      0.0427
     80  CG        69.3790    6.8590   39.2110 C.3   153  MET153      0.0599
     81  SD        67.8020    5.9820   39.1980 S.3   153  MET153     -0.1393
     82  CE        67.0980    6.6370   40.7280 C.3   153  MET153      0.0692
     83  N         70.9130    4.5330   35.1080 N.am  154  GLY154     -0.1940
     84  CA        71.5630    4.4780   33.8160 C.3   154  GLY154      0.2014
     85  C         70.7640    4.9690   32.6330 C.2   154  GLY154      0.2639
     86  O         69.6390    5.5090   32.7920 O.2   154  GLY154     -0.2714
     87  N         71.3440    4.8620   31.4490 N.am  155  GLY155     -0.1939
     88  CA        70.7090    5.3510   30.2300 C.3   155  GLY155      0.2014
     89  C         69.6890    4.3660   29.6990 C.2   155  GLY155      0.2639
     90  O         68.7030    4.7850   29.0710 O.2   155  GLY155     -0.2714
     91  N         69.8510    3.0470   29.9020 N.am  156  ALA156     -0.1963
     92  CA        68.9290    2.0660   29.3200 C.3   156  ALA156      0.1728
     93  C         68.2520    1.2100   30.4020 C.2   156  ALA156      0.2616
     94  O         67.0860    0.8160   30.2110 O.2   156  ALA156     -0.2715
     95  CB        69.6170    1.2140   28.2510 C.3   156  ALA156      0.0334
     96  N         68.9000    0.9630   31.5130 N.am  157  SER157     -0.1950
     97  CA        68.2520    0.3050   32.6390 C.3   157  SER157      0.1924
     98  C         68.5190    1.1390   33.9080 C.2   157  SER157      0.2314
     99  O         69.4640    1.9840   33.9640 O.2   157  SER157     -0.2863
    100  CB        68.7310   -1.0970   32.8690 C.3   157  SER157      0.2116
    101  OG        70.0880   -1.1570   33.2680 O.3   157  SER157     -0.2180
    102  N         68.9910    0.2030   38.2380 N.3   159  GLN159     -0.1245
    103  CA        69.0790   -0.8860   39.1980 C.3   159  GLN159      0.1566
    104  C         68.7190   -0.3490   40.5820 C.2   159  GLN159      0.2260
    105  O         68.9960    0.8330   40.8930 O.2   159  GLN159     -0.2867
    106  CB        70.5170   -1.4490   39.3090 C.3   159  GLN159      0.0367
    107  CG        70.8930   -2.3350   38.1200 C.3   159  GLN159      0.0905
    108  CD        71.0710   -1.4960   36.8510 C.2   159  GLN159      0.2608
    109  OE1       70.2860   -1.6230   35.9030 O.2   159  GLN159     -0.2717
    110  NE2       72.1280   -0.6390   36.8050 N.am  159  GLN159     -0.0878
    111  N         67.2130    6.4340   31.4230 N.3   197  GLN197     -0.1231
    112  CA        66.7540    7.7560   31.0090 C.3   197  GLN197      0.1698
    113  C         66.5480    7.8650   29.5120 C.2   197  GLN197      0.2592
    114  O         65.5440    8.4820   29.0530 O.2   197  GLN197     -0.2718
    115  CB        67.6790    8.8180   31.6400 C.3   197  GLN197      0.0381
    116  CG        68.8010    9.3620   30.8820 C.3   197  GLN197      0.0905
    117  CD        69.3360   10.6420   31.4960 C.2   197  GLN197      0.2608
    118  OE1       69.6760   10.7270   32.7210 O.2   197  GLN197     -0.2717
    119  NE2       69.4090   11.6410   30.6540 N.am  197  GLN197     -0.0878
    120  N         67.4360    7.2560   28.7010 N.am  198  THR198     -0.1953
    121  CA        67.2880    7.4050   27.2610 C.3   198  THR198      0.1897
    122  C         66.0830    6.6870   26.7620 C.2   198  THR198      0.2313
    123  O         65.2640    7.2360   26.0240 O.2   198  THR198     -0.2863
    124  CB        68.5100    6.8290   26.5410 C.3   198  THR198      0.1794
    125  OG1       69.6630    7.4940   27.0670 O.3   198  THR198     -0.2208
    126  CG2       68.4470    7.0040   25.0050 C.3   198  THR198      0.0378
    127  N         75.1810    6.9460   38.5510 N.3   264  GLY264     -0.1210
    128  CA        74.6210    7.1150   37.2220 C.3   264  GLY264      0.1956
    129  C         74.2480    8.5520   36.9250 C.2   264  GLY264      0.2612
    130  O         74.7600    9.5230   37.5200 O.2   264  GLY264     -0.2717
    131  N         73.2880    8.6910   36.0210 N.am  265  GLY265     -0.1956
    132  CA        72.9590    9.9800   35.4290 C.3   265  GLY265      0.1869
    133  C         72.4580   11.0650   36.3420 C.2   265  GLY265      0.2309
    134  O         72.6360   12.2730   36.0750 O.2   265  GLY265     -0.2863
    135  N         74.8290   13.8000   37.3040 N.3   268  ASN268     -0.1225
    136  CA        75.0340   14.8910   36.3460 C.3   268  ASN268      0.1785
    137  C         73.9280   15.9150   36.4000 C.2   268  ASN268      0.2597
    138  O         74.1770   17.1100   36.2700 O.2   268  ASN268     -0.2718
    139  CB        75.1650   14.3510   34.9610 C.3   268  ASN268      0.1169
    140  CG        76.3040   13.3880   34.8500 C.2   268  ASN268      0.2627
    141  OD1       76.1410   12.1710   34.9780 O.2   268  ASN268     -0.2716
    142  ND2       77.4710   13.9300   34.7190 N.am  268  ASN268     -0.0877
    143  N         72.6890   15.4710   36.6310 N.am  269  LEU269     -0.1980
    144  CA        71.5510   16.3780   36.6510 C.3   269  LEU269      0.1596
    145  C         71.6920   17.2480   37.9080 C.2   269  LEU269      0.2287
    146  O         71.5680   18.4920   37.8490 O.2   269  LEU269     -0.2864
    147  CB        70.2490   15.5440   36.6660 C.3   269  LEU269      0.0297
    148  CG        68.9290   16.3220   36.8580 C.3   269  LEU269      0.0022
    149  CD1       68.6360   17.2070   35.6540 C.3   269  LEU269      0.0001
    150  CD2       67.7230   15.4390   37.2330 C.3   269  LEU269      0.0001
    151  N         74.9680   23.6660   27.8320 N.3   310  ASP310     -0.1239
    152  CA        74.4020   22.4630   28.3810 C.3   310  ASP310      0.1674
    153  C         73.4890   21.7720   27.3670 C.2   310  ASP310      0.2266
    154  O         72.3360   22.2060   27.1560 O.2   310  ASP310     -0.2867
    155  CB        73.6370   22.7080   29.7070 C.3   310  ASP310      0.1410
    156  CG        73.4620   21.3810   30.5100 C.2   310  ASP310      0.3668
    157  OD1       73.5090   20.3150   29.8270 O.co2 310  ASP310     -0.2456
    158  OD2       73.3260   21.3580   31.7840 O.co2 310  ASP310     -0.2456
    159  N         72.1520   19.0690   27.6020 N.3   312  TYR312     -0.1241
    160  CA        71.2320   18.2000   28.2630 C.3   312  TYR312      0.1605
    161  C         70.0390   18.9770   28.8030 C.2   312  TYR312      0.2264
    162  O         68.9870   18.3890   29.1990 O.2   312  TYR312     -0.2867
    163  CB        71.9510   17.4010   29.3660 C.3   312  TYR312      0.0534
    164  CG        73.1670   16.5550   28.8150 C.ar  312  TYR312     -0.0201
    165  CD1       74.4490   17.1030   28.6660 C.ar  312  TYR312     -0.0009
    166  CD2       72.9970   15.2580   28.4210 C.ar  312  TYR312     -0.0009
    167  CE1       75.5100   16.3480   28.1510 C.ar  312  TYR312      0.0417
    168  CE2       74.0240   14.4930   27.8910 C.ar  312  TYR312      0.0417
    169  CZ        75.2910   15.0340   27.7630 C.ar  312  TYR312      0.1957
    170  OH        76.3670   14.2700   27.2630 O.3   312  TYR312     -0.2866
    171  N         65.6620   18.5530   31.2390 N.3   316  TYR316     -0.1241
    172  CA        65.6900   18.6000   32.6980 C.3   316  TYR316      0.1605
    173  C         64.3030   18.6320   33.3570 C.2   316  TYR316      0.2264
    174  O         64.2020   18.1560   34.4920 O.2   316  TYR316     -0.2867
    175  CB        66.5130   19.7810   33.1870 C.3   316  TYR316      0.0534
    176  CG        68.0040   19.6150   33.0390 C.ar  316  TYR316     -0.0201
    177  CD1       68.5760   18.4120   32.6440 C.ar  316  TYR316     -0.0009
    178  CD2       68.8320   20.6990   33.2440 C.ar  316  TYR316     -0.0009
    179  CE1       69.9780   18.2790   32.5610 C.ar  316  TYR316      0.0417
    180  CE2       70.2180   20.5750   33.1560 C.ar  316  TYR316      0.0417
    181  CZ        70.7680   19.3590   32.7970 C.ar  316  TYR316      0.1957
    182  OH        72.1130   19.2490   32.6820 O.3   316  TYR316     -0.2866
    183  N         63.4990   14.9020   33.1560 N.3   319  LEU319     -0.1245
    184  CA        64.3190   14.0650   34.0320 C.3   319  LEU319      0.1561
    185  C         63.9980   14.2540   35.4870 C.2   319  LEU319      0.2260
    186  O         63.9450   13.2950   36.2340 O.2   319  LEU319     -0.2867
    187  CB        65.8280   14.3360   33.7780 C.3   319  LEU319      0.0270
    188  CG        66.2940   13.8670   32.4130 C.3   319  LEU319      0.0019
    189  CD1       67.7750   14.2080   32.2640 C.3   319  LEU319      0.0001
    190  CD2       66.0390   12.3970   32.1140 C.3   319  LEU319      0.0001
    191  N         80.0340    0.8150   38.5510 N.3   350  TRP350     -0.1241
    192  CA        80.0010   -0.4240   39.2980 C.3   350  TRP350      0.1605
    193  C         81.2920   -1.2720   39.1940 C.2   350  TRP350      0.2264
    194  O         81.3430   -2.3530   39.8040 O.2   350  TRP350     -0.2867
    195  CB        78.7650   -1.2390   38.9100 C.3   350  TRP350      0.0550
    196  CG        78.6400   -1.3220   37.4100 C.ar  350  TRP350      0.0003
    197  CD1       77.8500   -0.5040   36.6080 C.ar  350  TRP350      0.0946
    198  CD2       79.3920   -2.1680   36.4640 C.ar  350  TRP350      0.0152
    199  NE1       77.9690   -0.8140   35.2780 N.ar  350  TRP350     -0.2442
    200  CE2       78.9190   -1.8230   35.1200 C.ar  350  TRP350      0.0810
    201  CE3       80.3450   -3.1940   36.6160 C.ar  350  TRP350      0.0012
    202  CZ2       79.3990   -2.4480   33.9750 C.ar  350  TRP350      0.0191
    203  CZ3       80.8620   -3.7940   35.4830 C.ar  350  TRP350      0.0001
    204  CH2       80.4120   -3.4260   34.1370 C.ar  350  TRP350      0.0015
@<TRIPOS>BOND
     1    40    39    2
     2    39    38    1
     3    38    41    1
     4    38    37    1
     5    41    42    1
     6    16    15    2
     7   126   124    1
     8    42    43    1
     9    43    44    1
    10    22    21    2
    11   123   122    2
    12    21    20    1
    13    15    14    1
    14    15    19   am
    15    20    19    1
    16    20    23    1
    17   124   125    1
    18   124   121    1
    19    45    44    1
    20    12    11    2
    21   122   121    1
    22    14    17    1
    23    14    13    1
    24    56    55    2
    25    23    25    1
    26    23    24    1
    27   154   153    2
    28    17    18    1
    29   121   120    1
    30   170   169    1
    31   153   152    1
    32   159   160    1
    33    55    54    1
    34   169   168   ar
    35   169   167   ar
    36    11    13   am
    37    11    10    1
    38   151   152    1
    39   168   166   ar
    40   167   165   ar
    41    95    92    1
    42   160   161    1
    43   160   163    1
    44    49    48    2
    45   152   155    1
    46   166   164   ar
    47   165   164   ar
    48   120   113   am
    49   161   162    2
    50     9    10    1
    51   164   163    1
    52   114   113    2
    53    90    89    2
    54    54    53    1
    55    54    57    1
    56    92    91    1
    57    92    93    1
    58    48    53   am
    59    48    47    1
    60    46    47    1
    61   113   112    1
    62    26    27    1
    63    89    91   am
    64    89    88    1
    65   155   156    1
    66   157   156   ar
    67    36    34    1
    68     4     3    2
    69    94    93    2
    70    88    87    1
    71    47    50    1
    72    93    96   am
    73     3     2    1
    74   156   158   ar
    75    27    28    1
    76    27    30    1
    77    34    33    2
    78    34    35    1
    79    33    32    1
    80   119   117   am
    81   116   117    1
    82   116   115    1
    83    51    50    1
    84    28    29    2
    85   112   111    1
    86   112   115    1
    87   171   172    1
    88    32    31    1
    89    87    85   am
    90    50    52    1
    91   117   118    2
    92    31    30    1
    93    96    97    1
    94     1     2    1
    95     2     5    1
    96     7     6   ar
    97   190   188    1
    98   189   188    1
    99   188   187    1
   100   179   177   ar
   101   179   181   ar
   102    85    86    2
   103    85    84    1
   104    97   100    1
   105    97    98    1
   106   177   176   ar
   107   182   181    1
   108   172   175    1
   109   172   173    1
   110   181   180   ar
   111     6     5    1
   112     6     8   ar
   113   100   101    1
   114   176   175    1
   115   176   178   ar
   116   180   178   ar
   117   183   184    1
   118   173   174    2
   119   187   184    1
   120    84    83    1
   121    98    99    2
   122   202   204   ar
   123   202   200   ar
   124   184   185    1
   125   204   203   ar
   126    65    64   ar
   127    66    64   ar
   128   142   140   am
   129    64    63    1
   130   140   139    1
   131   140   141    2
   132   139   136    1
   133    83    77   am
   134   200   199   ar
   135   200   198   ar
   136   199   197   ar
   137   132   131    1
   138   132   133    1
   139   203   201   ar
   140   185   186    2
   141    78    77    2
   142   149   148    1
   143    77    76    1
   144   109   108    2
   145   131   129   am
   146   134   133    2
   147    63    62    1
   148   138   137    2
   149   136   137    1
   150   136   135    1
   151    62    59    1
   152   137   143   am
   153   198   201   ar
   154   198   196   ar
   155   197   196   ar
   156   143   144    1
   157   144   147    1
   158   144   145    1
   159   147   148    1
   160   110   108   am
   161   108   107    1
   162   148   150    1
   163   129   128    1
   164   129   130    2
   165   128   127    1
   166    76    79    1
   167    76    75    1
   168    73    72   ar
   169   196   195    1
   170    58    59    1
   171    59    60    1
   172    74    72   ar
   173    79    80    1
   174   146   145    2
   175    72    71    1
   176    70    69    2
   177   107   106    1
   178    75    69   am
   179   102   103    1
   180    69    68    1
   181   191   192    1
   182    60    61    2
   183   195   192    1
   184    71    68    1
   185   193   192    1
   186   193   194    2
   187   103   106    1
   188   103   104    1
   189    81    80    1
   190    81    82    1
   191    68    67    1
   192   104   105    2
