@<TRIPOS>MOLECULE
tmp/4brhA00.pdb
 133 126 0 0 0
SMALL
GASTEIGER

@<TRIPOS>ATOM
      1  N         65.0740    6.3910    7.6960 N.3    18  GLY18      -0.1210
      2  CA        64.3120    5.8380    8.8190 C.3    18  GLY18       0.1956
      3  C         65.1790    5.4030    9.9760 C.2    18  GLY18       0.2613
      4  O         66.4270    5.4380    9.9150 O.2    18  GLY18      -0.2717
      5  N         64.5270    5.0090   11.0580 N.am   19  SER19      -0.1938
      6  CA        65.2630    4.6660   12.2650 C.3    19  SER19       0.2055
      7  C         66.1210    3.4400   12.0730 C.2    19  SER19       0.2643
      8  O         67.1810    3.3330   12.7250 O.2    19  SER19      -0.2714
      9  CB        64.2900    4.4620   13.4520 C.3    19  SER19       0.2130
     10  OG        63.5250    3.2870   13.2520 O.3    19  SER19      -0.2179
     11  N         65.7360    2.5300   11.1700 N.am   20  THR20      -0.1950
     12  CA        66.5430    1.3110   11.0200 C.3    20  THR20       0.1897
     13  C         67.4250    1.3140    9.7650 C.2    20  THR20       0.2313
     14  O         68.2480    0.3690    9.5830 O.2    20  THR20      -0.2863
     15  CB        65.6560    0.0330   11.0430 C.3    20  THR20       0.1794
     16  OG1       64.8170   -0.0070    9.8940 O.3    20  THR20      -0.2208
     17  CG2       64.7530   -0.0150   12.2990 C.3    20  THR20       0.0378
     18  N         66.6800    4.5410    2.6630 N.3    23  ARG23      -0.1245
     19  CA        66.2520    3.9240    1.3840 C.3    23  ARG23       0.1563
     20  C         66.1960    5.0220    0.3470 C.2    23  ARG23       0.2260
     21  O         65.3780    5.9670    0.4570 O.2    23  ARG23      -0.2867
     22  CB        64.9120    3.2470    1.4980 C.3    23  ARG23       0.0307
     23  CG        64.8650    2.2510    2.6630 C.3    23  ARG23       0.0489
     24  CD        64.1600    2.8330    3.8500 C.3    23  ARG23       0.2205
     25  NE        64.4980    1.9890    5.0110 N.pl3  23  ARG23      -0.0865
     26  CZ        63.9740    2.1890    6.2330 C.cat  23  ARG23       0.5346
     27  NH1       63.1400    3.1930    6.4320 N.pl3  23  ARG23       0.1354
     28  NH2       64.3290    1.3870    7.2650 N.pl3  23  ARG23       0.1354
     29  N         51.3760    2.9260    9.3420 N.3   153  ASP153     -0.1225
     30  CA        52.7820    2.6410    9.0600 C.3   153  ASP153      0.1805
     31  C         53.4350    2.2710   10.3810 C.2   153  ASP153      0.2598
     32  O         53.4680    3.0690   11.3170 O.2   153  ASP153     -0.2718
     33  CB        53.4150    3.9290    8.4570 C.3   153  ASP153      0.1424
     34  CG        54.9150    3.8400    8.2240 C.2   153  ASP153      0.3668
     35  OD1       55.6170    3.0620    8.8780 O.co2 153  ASP153     -0.2456
     36  OD2       55.4320    4.6740    7.4240 O.co2 153  ASP153     -0.2456
     37  N         53.9180    1.0350   10.4080 N.am  154  MET154     -0.1965
     38  CA        54.5700    0.4670   11.5450 C.3   154  MET154      0.1736
     39  C         56.0760    0.5880   11.3970 C.2   154  MET154      0.2617
     40  O         56.6640   -0.2040   10.6890 O.2   154  MET154     -0.2715
     41  CB        54.1720   -1.0120   11.6280 C.3   154  MET154      0.0427
     42  CG        52.6600   -1.1940   11.5700 C.3   154  MET154      0.0599
     43  SD        51.7920   -0.4410   12.9570 S.3   154  MET154     -0.1393
     44  CE        50.1310   -1.1910   12.7700 C.3   154  MET154      0.0692
     45  N         56.7110    1.5470   12.0970 N.am  155  GLY155     -0.1940
     46  CA        58.1650    1.7860   11.9420 C.3   155  GLY155      0.2014
     47  C         58.9290    1.2940   13.1810 C.2   155  GLY155      0.2639
     48  O         58.3430    0.7140   14.1220 O.2   155  GLY155     -0.2714
     49  N         60.2230    1.5260   13.1530 N.am  156  GLY156     -0.1954
     50  CA        61.1180    1.1080   14.2640 C.3   156  GLY156      0.1869
     51  C         60.9840    1.9900   15.4800 C.2   156  GLY156      0.2309
     52  O         61.1170    1.4730   16.6090 O.2   156  GLY156     -0.2863
     53  N         58.4940   -0.4360   16.7600 N.3   198  GLN198     -0.1231
     54  CA        58.7850   -1.7670   17.3240 C.3   198  GLN198      0.1698
     55  C         60.0610   -1.8240   18.1180 C.2   198  GLN198      0.2592
     56  O         60.1390   -2.5280   19.1460 O.2   198  GLN198     -0.2718
     57  CB        58.7050   -2.8490   16.2400 C.3   198  GLN198      0.0381
     58  CG        59.7660   -2.8300   15.1840 C.3   198  GLN198      0.0905
     59  CD        59.7130   -4.1070   14.3140 C.2   198  GLN198      0.2608
     60  OE1       59.1340   -4.0450   13.2420 O.2   198  GLN198     -0.2717
     61  NE2       60.2700   -5.2290   14.7900 N.am  198  GLN198     -0.0878
     62  N         61.1040   -1.1310   17.6620 N.am  199  THR199     -0.1953
     63  CA        62.3550   -1.1830   18.4200 C.3   199  THR199      0.1897
     64  C         62.2140   -0.5130   19.7800 C.2   199  THR199      0.2313
     65  O         62.6200   -1.0870   20.8100 O.2   199  THR199     -0.2863
     66  CB        63.4610   -0.4180   17.6730 C.3   199  THR199      0.1794
     67  OG1       63.5360   -0.8810   16.3200 O.3   199  THR199     -0.2208
     68  CG2       64.8350   -0.6120   18.3860 C.3   199  THR199      0.0378
     69  N         55.2190   -1.3480    6.6400 N.3   265  GLY265     -0.1210
     70  CA        56.2150   -1.4550    7.7440 C.3   265  GLY265      0.1956
     71  C         56.3880   -2.8640    8.2680 C.2   265  GLY265      0.2612
     72  O         56.0700   -3.8700    7.6000 O.2   265  GLY265     -0.2717
     73  N         56.8960   -2.9710    9.5040 N.am  266  GLY266     -0.1956
     74  CA        57.2690   -4.2850   10.0300 C.3   266  GLY266      0.1869
     75  C         56.1990   -5.3260   10.0620 C.2   266  GLY266      0.2309
     76  O         56.4660   -6.5180   10.0340 O.2   266  GLY266     -0.2863
     77  N         56.4680   -7.7300    7.2240 N.3   269  ASN269     -0.1225
     78  CA        57.4960   -8.7520    7.3720 C.3   269  ASN269      0.1785
     79  C         57.0540   -9.8380    8.3240 C.2   269  ASN269      0.2597
     80  O         57.2980  -11.0280    8.0500 O.2   269  ASN269     -0.2718
     81  CB        58.7550   -8.1100    7.9360 C.3   269  ASN269      0.1169
     82  CG        59.2570   -7.0220    7.0780 C.2   269  ASN269      0.2627
     83  OD1       58.6750   -5.9250    7.0430 O.2   269  ASN269     -0.2716
     84  ND2       60.3580   -7.3020    6.3370 N.am  269  ASN269     -0.0877
     85  N         56.4010   -9.4760    9.4580 N.am  270  LEU270     -0.1980
     86  CA        55.9250  -10.4840   10.4070 C.3   270  LEU270      0.1596
     87  C         54.9260  -11.4260    9.7170 C.2   270  LEU270      0.2287
     88  O         55.0860  -12.6520    9.7670 O.2   270  LEU270     -0.2864
     89  CB        55.2720   -9.8340   11.6940 C.3   270  LEU270      0.0297
     90  CG        54.7280  -10.7970   12.7750 C.3   270  LEU270      0.0022
     91  CD1       55.8950  -11.5000   13.4630 C.3   270  LEU270      0.0001
     92  CD2       53.8260  -10.1340   13.8490 C.3   270  LEU270      0.0001
     93  N         65.2510  -13.3520   11.0900 N.3   312  GLU312     -0.1231
     94  CA        66.1670  -12.5740   11.9740 C.3   312  GLU312      0.1699
     95  C         65.5070  -12.0970   13.2910 C.2   312  GLU312      0.2592
     96  O         66.1510  -12.0210   14.3550 O.2   312  GLU312     -0.2718
     97  CB        66.6170  -11.3330   11.2400 C.3   312  GLU312      0.0402
     98  CG        67.6530  -10.5370   12.0100 C.3   312  GLU312      0.1161
     99  CD        68.0460   -9.2580   11.2810 C.2   312  GLU312      0.3649
    100  OE1       67.5820   -9.0650   10.1250 O.co2 312  GLU312     -0.2457
    101  OE2       68.8140   -8.4520   11.8690 O.co2 312  GLU312     -0.2457
    102  N         64.2310  -11.7280   13.1810 N.am  313  TYR313     -0.1976
    103  CA        63.4780  -11.1320   14.3050 C.3   313  TYR313      0.1639
    104  C         62.6450  -12.2170   15.0140 C.2   313  TYR313      0.2290
    105  O         61.8480  -11.8690   15.8870 O.2   313  TYR313     -0.2864
    106  CB        62.5560   -9.9920   13.8090 C.3   313  TYR313      0.0560
    107  CG        63.1870   -8.6240   13.6020 C.ar  313  TYR313     -0.0198
    108  CD1       63.9320   -8.3210   12.4360 C.ar  313  TYR313     -0.0009
    109  CD2       62.9850   -7.6120   14.5660 C.ar  313  TYR313     -0.0009
    110  CE1       64.5110   -7.0390   12.2970 C.ar  313  TYR313      0.0417
    111  CE2       63.5480   -6.3460   14.4280 C.ar  313  TYR313      0.0417
    112  CZ        64.2870   -6.0580   13.2920 C.ar  313  TYR313      0.1957
    113  OH        64.8000   -4.7460   13.2040 O.3   313  TYR313     -0.2866
    114  N         58.9340  -12.6340   17.8170 N.3   317  TYR317     -0.1241
    115  CA        57.6170  -12.8300   17.1850 C.3   317  TYR317      0.1605
    116  C         56.4480  -12.9610   18.1610 C.2   317  TYR317      0.2264
    117  O         55.3170  -12.5750   17.8270 O.2   317  TYR317     -0.2867
    118  CB        57.6070  -14.0760   16.2820 C.3   317  TYR317      0.0534
    119  CG        58.2890  -13.8850   14.9390 C.ar  317  TYR317     -0.0201
    120  CD1       59.0670  -12.7420   14.6180 C.ar  317  TYR317     -0.0009
    121  CD2       58.0950  -14.8840   13.9670 C.ar  317  TYR317     -0.0009
    122  CE1       59.6570  -12.6190   13.3280 C.ar  317  TYR317      0.0417
    123  CE2       58.6580  -14.7610   12.7060 C.ar  317  TYR317      0.0417
    124  CZ        59.4630  -13.6360   12.4370 C.ar  317  TYR317      0.1957
    125  OH        60.0250  -13.5200   11.1620 O.3   317  TYR317     -0.2866
    126  N         55.8580   -9.3460   19.0950 N.3   320  LEU320     -0.1245
    127  CA        55.3830   -8.4590   18.0240 C.3   320  LEU320      0.1561
    128  C         53.9290   -8.7940   17.7270 C.2   320  LEU320      0.2260
    129  O         53.1400   -7.9050   17.4750 O.2   320  LEU320     -0.2867
    130  CB        56.2330   -8.6430   16.7720 C.3   320  LEU320      0.0270
    131  CG        57.6420   -8.0490   16.8900 C.3   320  LEU320      0.0019
    132  CD1       58.4780   -8.5280   15.6730 C.3   320  LEU320      0.0001
    133  CD2       57.6630   -6.5450   17.1090 C.3   320  LEU320      0.0001
@<TRIPOS>BOND
     1    20    21    2
     2    20    19    1
     3    19    22    1
     4    19    18    1
     5    22    23    1
     6    23    24    1
     7    24    25    1
     8    25    26    2
     9    26    27    1
    10    26    28    1
    11    84    82   am
    12    69    70    1
    13    83    82    2
    14    82    81    1
    15    77    78    1
    16    78    81    1
    17    78    79    1
    18    36    34   ar
    19    72    71    2
    20     1     2    1
    21    70    71    1
    22    80    79    2
    23    34    33    1
    24    34    35   ar
    25    71    73   am
    26    79    85   am
    27    33    30    1
    28     2     3    1
    29    30    29    1
    30    30    31    1
    31    85    86    1
    32    73    74    1
    33    14    13    2
    34    87    88    2
    35    87    86    1
    36    13    12    1
    37    16    15    1
    38     4     3    2
    39     3     5   am
    40    74    75    1
    41    76    75    2
    42   100    99   ar
    43    31    37   am
    44    31    32    2
    45    86    89    1
    46    37    38    1
    47    40    39    2
    48    12    15    1
    49    12    11    1
    50    15    17    1
    51     5     6    1
    52    93    94    1
    53   125   124    1
    54    11     7   am
    55    97    94    1
    56    97    98    1
    57    99   101   ar
    58    99    98    1
    59    39    38    1
    60    39    45   am
    61    38    41    1
    62    42    41    1
    63    42    43    1
    64    89    90    1
    65    46    45    1
    66    46    47    1
    67    94    95    1
    68     7     6    1
    69     7     8    2
    70     6     9    1
    71   110   108   ar
    72   110   112   ar
    73   108   107   ar
    74   124   123   ar
    75   124   122   ar
    76   123   121   ar
    77    44    43    1
    78    90    91    1
    79    90    92    1
    80    49    47   am
    81    49    50    1
    82   102    95   am
    83   102   103    1
    84    47    48    2
    85   113   112    1
    86    60    59    2
    87    10     9    1
    88    95    96    2
    89   112   111   ar
    90   122   120   ar
    91   107   106    1
    92   107   109   ar
    93   106   103    1
    94   121   119   ar
    95    50    51    1
    96   103   104    1
    97    59    61   am
    98    59    58    1
    99   111   109   ar
   100   120   119   ar
   101   119   118    1
   102   104   105    2
   103    58    57    1
   104    51    52    2
   105   132   131    1
   106    57    54    1
   107   118   115    1
   108    67    66    1
   109    53    54    1
   110   130   131    1
   111   130   127    1
   112   131   133    1
   113   115   114    1
   114   115   116    1
   115    54    55    1
   116   129   128    2
   117    62    55   am
   118    62    63    1
   119    66    68    1
   120    66    63    1
   121   128   127    1
   122   117   116    2
   123   127   126    1
   124    55    56    2
   125    63    64    1
   126    64    65    2
