@<TRIPOS>MOLECULE
tmp/4brhB01.pdb
 207 196 0 0 0
SMALL
GASTEIGER

@<TRIPOS>ATOM
      1  N         83.9570   -1.1950   32.0770 N.3    14  ASP14      -0.1239
      2  CA        82.4750   -1.0540   32.1600 C.3    14  ASP14       0.1674
      3  C         82.0590   -0.6310   30.7620 C.2    14  ASP14       0.2266
      4  O         82.2750    0.5590   30.3300 O.2    14  ASP14      -0.2867
      5  CB        82.2010    0.0330   33.2180 C.3    14  ASP14       0.1410
      6  CG        80.7710    0.6070   33.1760 C.2    14  ASP14       0.3668
      7  OD1       79.9120    0.1660   32.4040 O.co2  14  ASP14      -0.2456
      8  OD2       80.5230    1.4740   34.0060 O.co2  14  ASP14      -0.2456
      9  N         79.1170    0.3160   29.1590 N.3    16  GLY16      -0.1210
     10  CA        77.7400    0.8050   29.4110 C.3    16  GLY16       0.1956
     11  C         77.0270    1.2330   28.1340 C.2    16  GLY16       0.2613
     12  O         77.6190    1.3220   27.0260 O.2    16  GLY16      -0.2717
     13  N         75.7370    1.5250   28.2580 N.am   17  SER17      -0.1938
     14  CA        74.9400    1.9070   27.1070 C.3    17  SER17       0.2055
     15  C         75.4270    3.2030   26.4610 C.2    17  SER17       0.2643
     16  O         75.2990    3.3570   25.2640 O.2    17  SER17      -0.2714
     17  CB        73.4450    1.9620   27.4960 C.3    17  SER17       0.2130
     18  OG        73.1980    3.1150   28.3770 O.3    17  SER17      -0.2179
     19  N         76.0310    4.1080   27.2430 N.am   18  THR18      -0.1950
     20  CA        76.4530    5.3820   26.6700 C.3    18  THR18       0.1897
     21  C         77.9450    5.5570   26.4920 C.2    18  THR18       0.2313
     22  O         78.3730    6.5780   25.8910 O.2    18  THR18      -0.2863
     23  CB        75.9040    6.6020   27.4510 C.3    18  THR18       0.1794
     24  OG1       76.5100    6.6600   28.7380 O.3    18  THR18      -0.2208
     25  CG2       74.4040    6.4420   27.6500 C.3    18  THR18       0.0378
     26  N         84.2680    2.4990   29.9300 N.3    21  ARG21      -0.1245
     27  CA        85.1850    3.1080   30.9300 C.3    21  ARG21       0.1563
     28  C         86.1970    2.0470   31.3360 C.2    21  ARG21       0.2260
     29  O         85.8400    1.0460   31.9580 O.2    21  ARG21      -0.2867
     30  CB        84.4010    3.6030   32.1610 C.3    21  ARG21       0.0307
     31  CG        83.3270    4.6280   31.7340 C.3    21  ARG21       0.0489
     32  CD        82.0520    3.8340   31.6530 C.3    21  ARG21       0.2205
     33  NE        81.0530    4.6640   30.9910 N.pl3  21  ARG21      -0.0865
     34  CZ        79.7350    4.3980   31.0110 C.cat  21  ARG21       0.5346
     35  NH1       79.2370    3.3370   31.6350 N.pl3  21  ARG21       0.1354
     36  NH2       78.9220    5.2280   30.3580 N.pl3  21  ARG21       0.1354
     37  N         87.7530    7.1010   29.6330 N.3    45  LYS45      -0.1245
     38  CA        86.2830    6.9950   29.3570 C.3    45  LYS45       0.1561
     39  C         86.1450    7.3580   27.9130 C.2    45  LYS45       0.2260
     40  O         86.6740    8.4260   27.4990 O.2    45  LYS45      -0.2867
     41  CB        85.4790    7.9730   30.2220 C.3    45  LYS45       0.0271
     42  CG        85.4770    7.6530   31.7010 C.3    45  LYS45       0.0035
     43  CD        84.8540    8.7560   32.5360 C.3    45  LYS45       0.0206
     44  CE        83.3170    8.7780   32.4890 C.3    45  LYS45       0.1093
     45  NZ        82.7860    9.8650   33.3900 N.3    45  LYS45      -0.1314
     46  N         76.9230   -3.9540   29.9820 N.3    83  THR83      -0.1203
     47  CA        75.7050   -3.8960   30.7490 C.3    83  THR83       0.1994
     48  C         74.4790   -3.6380   29.8170 C.2    83  THR83       0.2617
     49  O         74.3660   -4.3490   28.8170 O.2    83  THR83      -0.2717
     50  CB        75.8010   -2.8940   31.9160 C.3    83  THR83       0.1784
     51  OG1       76.2230   -1.6430   31.4100 O.3    83  THR83      -0.2211
     52  CG2       76.8950   -3.3640   32.8770 C.3    83  THR83       0.0376
     53  N         73.5740   -2.7090   30.1740 N.am   84  ALA84      -0.1979
     54  CA        72.2280   -2.7100   29.5600 C.3    84  ALA84       0.1597
     55  C         72.2440   -2.4260   28.0520 C.2    84  ALA84       0.2287
     56  O         71.3430   -2.9240   27.3710 O.2    84  ALA84      -0.2864
     57  CB        71.2920   -1.7170   30.2860 C.3    84  ALA84       0.0319
     58  N         75.1380   -6.6160   37.8690 N.3   124  GLU124     -0.1245
     59  CA        75.5380   -5.1970   37.8220 C.3   124  GLU124      0.1567
     60  C         75.1280   -4.5750   39.1470 C.2   124  GLU124      0.2260
     61  O         75.9160   -3.8540   39.7460 O.2   124  GLU124     -0.2867
     62  CB        74.8160   -4.5600   36.6390 C.3   124  GLU124      0.0388
     63  CG        75.1760   -3.0970   36.3870 C.3   124  GLU124      0.1160
     64  CD        74.4320   -2.5730   35.1710 C.2   124  GLU124      0.3649
     65  OE1       73.6450   -3.3530   34.5480 O.co2 124  GLU124     -0.2457
     66  OE2       74.6410   -1.4000   34.7540 O.co2 124  GLU124     -0.2457
     67  N         71.7810    2.7100   40.9920 N.3   151  ASP151     -0.1225
     68  CA        72.6180    3.0990   39.8750 C.3   151  ASP151      0.1805
     69  C         71.7110    3.5060   38.7220 C.2   151  ASP151      0.2598
     70  O         70.8620    2.7130   38.2470 O.2   151  ASP151     -0.2718
     71  CB        73.5330    1.8890   39.5080 C.3   151  ASP151      0.1424
     72  CG        74.3290    2.0800   38.2130 C.2   151  ASP151      0.3668
     73  OD1       73.9590    2.9040   37.3190 O.co2 151  ASP151     -0.2456
     74  OD2       75.3020    1.3230   38.0550 O.co2 151  ASP151     -0.2456
     75  N         71.8420    4.7790   38.3400 N.am  152  MET152     -0.1965
     76  CA        70.9770    5.3590   37.3050 C.3   152  MET152      0.1736
     77  C         71.6950    5.3480   35.9620 C.2   152  MET152      0.2617
     78  O         72.5940    6.1640   35.7050 O.2   152  MET152     -0.2715
     79  CB        70.6550    6.8210   37.7070 C.3   152  MET152      0.0427
     80  CG        70.0630    6.9700   39.0940 C.3   152  MET152      0.0599
     81  SD        68.5010    6.0490   39.2690 S.3   152  MET152     -0.1393
     82  CE        67.9980    6.6780   40.8960 C.3   152  MET152      0.0692
     83  N         71.3640    4.3840   35.0960 N.am  153  GLY153     -0.1940
     84  CA        72.0530    4.2380   33.7980 C.3   153  GLY153      0.2014
     85  C         71.2450    4.7580   32.6180 C.2   153  GLY153      0.2639
     86  O         70.1150    5.2730   32.7780 O.2   153  GLY153     -0.2714
     87  N         71.8540    4.6310   31.4460 N.am  154  GLY154     -0.1939
     88  CA        71.2130    5.0710   30.1780 C.3   154  GLY154      0.2014
     89  C         70.0990    4.1570   29.7740 C.2   154  GLY154      0.2639
     90  O         69.0900    4.6090   29.2080 O.2   154  GLY154     -0.2714
     91  N         70.2500    2.8740   30.0460 N.am  155  ALA155     -0.1963
     92  CA        69.2190    1.9070   29.5820 C.3   155  ALA155      0.1728
     93  C         68.5560    1.1040   30.7130 C.2   155  ALA155      0.2616
     94  O         67.3710    0.7070   30.5870 O.2   155  ALA155     -0.2715
     95  CB        69.7720    1.0070   28.4790 C.3   155  ALA155      0.0334
     96  N         69.3110    0.8570   31.7850 N.am  156  SER156     -0.1950
     97  CA        68.7270    0.2380   32.9810 C.3   156  SER156      0.1924
     98  C         68.9910    1.0320   34.2450 C.2   156  SER156      0.2314
     99  O         69.9130    1.8860   34.2870 O.2   156  SER156     -0.2863
    100  CB        69.3070   -1.1900   33.1880 C.3   156  SER156      0.2116
    101  OG        70.6860   -1.1530   33.5880 O.3   156  SER156     -0.2180
    102  N         67.7720    6.3390   31.5850 N.3   196  GLN196     -0.1231
    103  CA        67.2990    7.6520   31.1390 C.3   196  GLN196      0.1698
    104  C         67.1090    7.7890   29.6500 C.2   196  GLN196      0.2592
    105  O         66.1310    8.4230   29.2270 O.2   196  GLN196     -0.2718
    106  CB        68.1610    8.7700   31.7250 C.3   196  GLN196      0.0381
    107  CG        69.5250    8.8470   31.1640 C.3   196  GLN196      0.0905
    108  CD        70.2390   10.1540   31.6000 C.2   196  GLN196      0.2608
    109  OE1       71.0250   10.0620   32.4870 O.2   196  GLN196     -0.2717
    110  NE2       69.9780   11.2980   30.9650 N.am  196  GLN196     -0.0878
    111  N         67.9470    7.1440   28.8310 N.am  197  THR197     -0.1953
    112  CA        67.7900    7.2410   27.3710 C.3   197  THR197      0.1897
    113  C         66.5420    6.5210   26.9830 C.2   197  THR197      0.2313
    114  O         65.6700    7.0660   26.2800 O.2   197  THR197     -0.2863
    115  CB        68.9800    6.5320   26.6890 C.3   197  THR197      0.1794
    116  OG1       70.1890    7.1110   27.1930 O.3   197  THR197     -0.2208
    117  CG2       68.8620    6.6600   25.1390 C.3   197  THR197      0.0378
    118  N         75.6160    7.3230   38.7320 N.3   263  GLY263     -0.1210
    119  CA        74.9990    7.4110   37.3740 C.3   263  GLY263      0.1956
    120  C         74.5610    8.8270   37.0600 C.2   263  GLY263      0.2612
    121  O         75.1250    9.8210   37.6080 O.2   263  GLY263     -0.2717
    122  N         73.5900    8.9350   36.1570 N.am  264  GLY264     -0.1956
    123  CA        73.2050   10.2240   35.5760 C.3   264  GLY264      0.1869
    124  C         72.7300   11.2200   36.6130 C.2   264  GLY264      0.2309
    125  O         72.7850   12.4540   36.3940 O.2   264  GLY264     -0.2863
    126  N         75.3110   13.6860   37.6240 N.3   267  ASN267     -0.1225
    127  CA        75.5450   14.7570   36.6360 C.3   267  ASN267      0.1785
    128  C         74.4660   15.8110   36.7320 C.2   267  ASN267      0.2597
    129  O         74.7810   17.0180   36.7060 O.2   267  ASN267     -0.2718
    130  CB        75.6180   14.1930   35.2240 C.3   267  ASN267      0.1169
    131  CG        76.6580   13.1080   35.1210 C.2   267  ASN267      0.2627
    132  OD1       76.4850   12.0090   35.6350 O.2   267  ASN267     -0.2716
    133  ND2       77.7350   13.4160   34.4640 N.am  267  ASN267     -0.0877
    134  N         73.2060   15.3930   36.8810 N.am  268  LEU268     -0.1980
    135  CA        72.1110   16.3680   36.9370 C.3   268  LEU268      0.1596
    136  C         72.1630   17.2110   38.2180 C.2   268  LEU268      0.2287
    137  O         71.9360   18.4410   38.1680 O.2   268  LEU268     -0.2864
    138  CB        70.7480   15.6750   36.7880 C.3   268  LEU268      0.0297
    139  CG        69.5150   16.5050   37.1540 C.3   268  LEU268      0.0022
    140  CD1       68.3070   15.7600   36.6290 C.3   268  LEU268      0.0001
    141  CD2       69.4050   16.6690   38.6640 C.3   268  LEU268      0.0001
    142  N         75.4530   22.8760   28.4200 N.3   309  ASP309     -0.1239
    143  CA        74.9660   21.6670   29.0230 C.3   309  ASP309      0.1674
    144  C         74.1110   20.9510   28.0400 C.2   309  ASP309      0.2266
    145  O         72.9950   21.4030   27.7890 O.2   309  ASP309     -0.2867
    146  CB        74.1440   22.0050   30.2420 C.3   309  ASP309      0.1410
    147  CG        73.9340   20.8280   31.0940 C.2   309  ASP309      0.3668
    148  OD1       73.8900   19.6920   30.5020 O.co2 309  ASP309     -0.2456
    149  OD2       73.8350   21.0450   32.3500 O.co2 309  ASP309     -0.2456
    150  N         72.4700   18.3110   28.0890 N.3   311  TYR311     -0.1241
    151  CA        71.2130   17.7150   28.5360 C.3   311  TYR311      0.1605
    152  C         70.1780   18.7380   29.0180 C.2   311  TYR311      0.2264
    153  O         69.1330   18.3280   29.5060 O.2   311  TYR311     -0.2867
    154  CB        71.4730   16.6460   29.6510 C.3   311  TYR311      0.0534
    155  CG        72.0460   15.3310   29.1540 C.ar  311  TYR311     -0.0201
    156  CD1       73.4370   15.1830   28.9480 C.ar  311  TYR311     -0.0009
    157  CD2       71.2160   14.2490   28.8860 C.ar  311  TYR311     -0.0009
    158  CE1       73.9450   13.9740   28.4930 C.ar  311  TYR311      0.0417
    159  CE2       71.7190   13.0370   28.4310 C.ar  311  TYR311      0.0417
    160  CZ        73.0800   12.9050   28.2480 C.ar  311  TYR311      0.1957
    161  OH        73.5340   11.6720   27.7930 O.3   311  TYR311     -0.2866
    162  N         66.0780   18.6060   31.2660 N.3   315  TYR315     -0.1241
    163  CA        66.1870   18.6760   32.7640 C.3   315  TYR315      0.1605
    164  C         64.8170   18.6530   33.4510 C.2   315  TYR315      0.2264
    165  O         64.7100   18.2040   34.6070 O.2   315  TYR315     -0.2867
    166  CB        66.9690   19.8760   33.2520 C.3   315  TYR315      0.0534
    167  CG        68.4530   19.7240   33.1220 C.ar  315  TYR315     -0.0201
    168  CD1       69.0120   18.5230   32.7160 C.ar  315  TYR315     -0.0009
    169  CD2       69.2790   20.7920   33.3400 C.ar  315  TYR315     -0.0009
    170  CE1       70.4100   18.4090   32.6100 C.ar  315  TYR315      0.0417
    171  CE2       70.6530   20.6880   33.2510 C.ar  315  TYR315      0.0417
    172  CZ        71.2060   19.5020   32.9280 C.ar  315  TYR315      0.1957
    173  OH        72.6090   19.4180   32.8500 O.3   315  TYR315     -0.2866
    174  N         64.0180   14.9470   33.3430 N.3   318  LEU318     -0.1245
    175  CA        64.8950   14.1450   34.2260 C.3   318  LEU318      0.1561
    176  C         64.5730   14.3170   35.6910 C.2   318  LEU318      0.2260
    177  O         64.5320   13.3260   36.4170 O.2   318  LEU318     -0.2867
    178  CB        66.3630   14.3560   33.9240 C.3   318  LEU318      0.0270
    179  CG        66.7910   13.9560   32.4780 C.3   318  LEU318      0.0019
    180  CD1       68.2470   14.4370   32.1910 C.3   318  LEU318      0.0001
    181  CD2       66.7090   12.4310   32.4710 C.3   318  LEU318      0.0001
    182  N         63.4260   11.1010   37.9580 N.3   322  TYR322     -0.1241
    183  CA        64.0730   10.5430   39.1370 C.3   322  TYR322      0.1605
    184  C         63.0710   10.5000   40.2940 C.2   322  TYR322      0.2264
    185  O         63.1070    9.5520   41.0620 O.2   322  TYR322     -0.2867
    186  CB        65.3080   11.3570   39.4930 C.3   322  TYR322      0.0534
    187  CG        66.4510   11.0860   38.5270 C.ar  322  TYR322     -0.0201
    188  CD1       66.9030    9.7790   38.3180 C.ar  322  TYR322     -0.0009
    189  CD2       67.0670   12.1320   37.8080 C.ar  322  TYR322     -0.0009
    190  CE1       67.9300    9.5130   37.4060 C.ar  322  TYR322      0.0417
    191  CE2       68.0980   11.8690   36.9280 C.ar  322  TYR322      0.0417
    192  CZ        68.5180   10.5560   36.7530 C.ar  322  TYR322      0.1957
    193  OH        69.4820   10.2570   35.8130 O.3   322  TYR322     -0.2866
    194  N         80.6000    0.5240   38.9180 N.3   349  TRP349     -0.1241
    195  CA        80.5340   -0.7370   39.6910 C.3   349  TRP349      0.1605
    196  C         81.8260   -1.5760   39.5580 C.2   349  TRP349      0.2264
    197  O         81.8760   -2.6740   40.0410 O.2   349  TRP349     -0.2867
    198  CB        79.2970   -1.5480   39.2290 C.3   349  TRP349      0.0550
    199  CG        79.1700   -1.5610   37.6740 C.ar  349  TRP349      0.0003
    200  CD1       78.3840   -0.7340   36.9200 C.ar  349  TRP349      0.0946
    201  CD2       79.9170   -2.3520   36.7750 C.ar  349  TRP349      0.0152
    202  NE1       78.5330   -1.0320   35.5770 N.ar  349  TRP349     -0.2442
    203  CE2       79.5030   -1.9960   35.4590 C.ar  349  TRP349      0.0810
    204  CE3       80.8560   -3.4040   36.9280 C.ar  349  TRP349      0.0012
    205  CZ2       80.0080   -2.6050   34.3120 C.ar  349  TRP349      0.0191
    206  CZ3       81.3780   -4.0140   35.7660 C.ar  349  TRP349      0.0001
    207  CH2       80.9810   -3.6120   34.4720 C.ar  349  TRP349      0.0015
@<TRIPOS>BOND
     1   117   115    1
     2    16    15    2
     3    22    21    2
     4   114   113    2
     5    15    14    1
     6    15    19   am
     7    21    20    1
     8    20    19    1
     9    20    23    1
    10   115   116    1
    11   115   112    1
    12   113   112    1
    13    12    11    2
    14    14    17    1
    15    14    13    1
    16   112   111    1
    17    56    55    2
    18    23    25    1
    19    23    24    1
    20    17    18    1
    21    40    39    2
    22   145   144    2
    23   161   160    1
    24    39    38    1
    25   144   143    1
    26    55    54    1
    27   150   151    1
    28    11    13   am
    29    11    10    1
    30   160   159   ar
    31   160   158   ar
    32   142   143    1
    33   159   157   ar
    34    95    92    1
    35   158   156   ar
    36   151   152    1
    37   151   154    1
    38    49    48    2
    39   111   104   am
    40   157   155   ar
    41   156   155   ar
    42   152   153    2
    43   143   146    1
    44   155   154    1
    45     9    10    1
    46    90    89    2
    47   105   104    2
    48    38    37    1
    49    38    41    1
    50    54    53    1
    51    54    57    1
    52    92    91    1
    53    92    93    1
    54   104   103    1
    55    89    91   am
    56    89    88    1
    57    48    53   am
    58    48    47    1
    59    26    27    1
    60    46    47    1
    61    88    87    1
    62    41    42    1
    63   146   147    1
    64     4     3    2
    65    36    34    1
    66   148   147   ar
    67    94    93    2
    68    93    96   am
    69    47    50    1
    70     3     2    1
    71    27    28    1
    72    27    30    1
    73   110   108   am
    74    33    34    2
    75    33    32    1
    76    34    35    1
    77   147   149   ar
    78   103   102    1
    79   103   106    1
    80   107   108    1
    81   107   106    1
    82   162   163    1
    83    28    29    2
    84    51    50    1
    85    87    85   am
    86   108   109    2
    87    32    31    1
    88    42    43    1
    89    31    30    1
    90    96    97    1
    91    50    52    1
    92     1     2    1
    93     2     5    1
    94   180   179    1
    95     7     6   ar
    96   181   179    1
    97   179   178    1
    98    44    43    1
    99    44    45    1
   100   170   168   ar
   101   170   172   ar
   102    85    86    2
   103    85    84    1
   104   168   167   ar
   105   163   166    1
   106   163   164    1
   107   173   172    1
   108   172   171   ar
   109    97   100    1
   110    97    98    1
   111   167   166    1
   112   167   169   ar
   113     6     5    1
   114     6     8   ar
   115   100   101    1
   116   171   169   ar
   117   174   175    1
   118   164   165    2
   119    84    83    1
   120   178   175    1
   121   175   176    1
   122    98    99    2
   123   205   207   ar
   124   205   203   ar
   125   133   131   am
   126   207   206   ar
   127    65    64   ar
   128    66    64   ar
   129    83    77   am
   130   131   130    1
   131   131   132    2
   132    64    63    1
   133   130   127    1
   134   203   202   ar
   135   203   201   ar
   136   123   122    1
   137   123   124    1
   138   202   200   ar
   139   176   177    2
   140    78    77    2
   141   206   204   ar
   142   193   192    1
   143    77    76    1
   144   122   120   am
   145    63    62    1
   146   125   124    2
   147   140   139    1
   148   127   128    1
   149   127   126    1
   150    62    59    1
   151   129   128    2
   152   128   134   am
   153   192   191   ar
   154   192   190   ar
   155   201   204   ar
   156   201   199   ar
   157   138   135    1
   158   138   139    1
   159   134   135    1
   160   200   199   ar
   161   191   189   ar
   162   135   136    1
   163   120   119    1
   164   120   121    2
   165   139   141    1
   166    76    79    1
   167    76    75    1
   168    73    72   ar
   169   119   118    1
   170   190   188   ar
   171   199   198    1
   172    79    80    1
   173   189   187   ar
   174    59    58    1
   175    59    60    1
   176   182   183    1
   177    74    72   ar
   178   137   136    2
   179    72    71    1
   180    70    69    2
   181   188   187   ar
   182    75    69   am
   183   187   186    1
   184    69    68    1
   185   194   195    1
   186    80    81    1
   187   183   186    1
   188   183   184    1
   189    60    61    2
   190   198   195    1
   191    81    82    1
   192    71    68    1
   193   196   195    1
   194   196   197    2
   195    68    67    1
   196   184   185    2
