@<TRIPOS>MOLECULE
tmp/4brkA00.pdb
 210 199 0 0 0
SMALL
GASTEIGER

@<TRIPOS>ATOM
      1  N         11.2180   -4.1960   -1.7710 N.3    14  ASP14      -0.1239
      2  CA        10.5750   -3.9520   -0.4750 C.3    14  ASP14       0.1674
      3  C          9.0920   -3.6990   -0.7590 C.2    14  ASP14       0.2266
      4  O          8.7150   -2.6100   -1.2010 O.2    14  ASP14      -0.2867
      5  CB        11.2430   -2.7060    0.1630 C.3    14  ASP14       0.1410
      6  CG        10.4920   -2.1550    1.3950 C.2    14  ASP14       0.3668
      7  OD1        9.5390   -2.8120    1.8600 O.co2  14  ASP14      -0.2456
      8  OD2       10.8910   -1.0620    1.8360 O.co2  14  ASP14      -0.2456
      9  N          6.3190   -2.9300    0.9260 N.3    16  GLY16      -0.1210
     10  CA         5.9710   -2.4100    2.2560 C.3    16  GLY16       0.1956
     11  C          4.4970   -1.9970    2.3370 C.2    16  GLY16       0.2613
     12  O          3.7470   -2.0320    1.2900 O.2    16  GLY16      -0.2717
     13  N          4.0560   -1.6510    3.5570 N.am   17  SER17      -0.1938
     14  CA         2.6420   -1.4390    3.7410 C.3    17  SER17       0.2055
     15  C          2.1040   -0.2390    2.9050 C.2    17  SER17       0.2643
     16  O          0.9460   -0.2470    2.5310 O.2    17  SER17      -0.2714
     17  CB         2.3070   -1.2610    5.2320 C.3    17  SER17       0.2130
     18  OG         2.7870    0.0050    5.7100 O.3    17  SER17      -0.2179
     19  N          2.9270    0.7800    2.6380 N.am   18  THR18      -0.1950
     20  CA         2.4280    2.0110    1.9420 C.3    18  THR18       0.1897
     21  C          2.8670    2.0700    0.4850 C.2    18  THR18       0.2313
     22  O          2.4520    2.9560   -0.2640 O.2    18  THR18      -0.2863
     23  CB         2.8410    3.3100    2.6490 C.3    18  THR18       0.1794
     24  OG1        4.2590    3.4820    2.5730 O.3    18  THR18      -0.2208
     25  CG2        2.4030    3.3130    4.1430 C.3    18  THR18       0.0378
     26  N          9.1060   -0.8040   -3.3910 N.3    21  ARG21      -0.1245
     27  CA        10.3390   -0.1810   -3.9070 C.3    21  ARG21       0.1563
     28  C         11.1940   -1.2470   -4.5120 C.2    21  ARG21       0.2260
     29  O         11.6640   -2.1590   -3.8310 O.2    21  ARG21      -0.2867
     30  CB        11.1210    0.5610   -2.8380 C.3    21  ARG21       0.0307
     31  CG        10.2450    1.5820   -2.0540 C.3    21  ARG21       0.0489
     32  CD         9.6630    0.8970   -0.8140 C.3    21  ARG21       0.2205
     33  NE         8.4930    1.6800   -0.2810 N.pl3  21  ARG21      -0.0865
     34  CZ         7.9270    1.5110    0.9070 C.cat  21  ARG21       0.5346
     35  NH1        8.3960    0.5400    1.7360 N.pl3  21  ARG21       0.1354
     36  NH2        6.8510    2.2520    1.2340 N.pl3  21  ARG21       0.1354
     37  N          9.9470    3.5530   -6.9620 N.3    45  LYS45      -0.1245
     38  CA         8.9940    3.4830   -5.8350 C.3    45  LYS45       0.1561
     39  C          7.6290    3.7010   -6.3940 C.2    45  LYS45       0.2260
     40  O          7.4190    4.6330   -7.1930 O.2    45  LYS45      -0.2867
     41  CB         9.2920    4.5540   -4.7750 C.3    45  LYS45       0.0271
     42  CG        10.7200    4.4510   -4.2320 C.3    45  LYS45       0.0035
     43  CD        11.2410    5.6190   -3.3330 C.3    45  LYS45       0.0206
     44  CE        10.4590    5.7980   -2.0730 C.3    45  LYS45       0.1093
     45  NZ        11.1240    6.8100   -1.2140 N.3    45  LYS45      -0.1314
     46  N          3.1950    3.4310   -5.2880 N.3    47  LYS47      -0.1245
     47  CA         2.1250    3.3950   -4.2680 C.3    47  LYS47       0.1561
     48  C          0.8540    2.8780   -4.9510 C.2    47  LYS47       0.2260
     49  O          0.7210    3.0060   -6.1770 O.2    47  LYS47      -0.2867
     50  CB         1.8810    4.7900   -3.6680 C.3    47  LYS47       0.0271
     51  CG         3.0960    5.3680   -2.9170 C.3    47  LYS47       0.0035
     52  CD         2.8110    6.7150   -2.2440 C.3    47  LYS47       0.0206
     53  CE         2.7870    7.7720   -3.2800 C.3    47  LYS47       0.1093
     54  NZ         2.9160    9.0740   -2.5880 N.3    47  LYS47      -0.1314
     55  N          6.2720   -6.9910    3.7350 N.3    83  THR83      -0.1203
     56  CA         6.4000   -6.7690    5.1630 C.3    83  THR83       0.1994
     57  C          5.0110   -6.6350    5.8420 C.2    83  THR83       0.2617
     58  O          4.1060   -7.4670    5.5180 O.2    83  THR83      -0.2717
     59  CB         7.3750   -5.6260    5.4460 C.3    83  THR83       0.1784
     60  OG1        6.9390   -4.4450    4.7450 O.3    83  THR83      -0.2211
     61  CG2        8.7610   -6.0030    4.9660 C.3    83  THR83       0.0376
     62  N          4.8370   -5.7000    6.8000 N.am   84  ALA84      -0.1979
     63  CA         3.7090   -5.7490    7.6960 C.3    84  ALA84       0.1597
     64  C          2.3620   -5.5360    7.0130 C.2    84  ALA84       0.2287
     65  O          1.3580   -6.0050    7.5470 O.2    84  ALA84      -0.2864
     66  CB         3.8510   -4.7190    8.8170 C.3    84  ALA84       0.0319
     67  N         12.8470   -9.0770    8.9680 N.3   124  GLU124     -0.1245
     68  CA        12.8260   -7.6660    8.5900 C.3   124  GLU124      0.1567
     69  C         13.8010   -6.8570    9.5100 C.2   124  GLU124      0.2260
     70  O         14.5990   -6.0330    9.0460 O.2   124  GLU124     -0.2867
     71  CB        11.3750   -7.1560    8.6230 C.3   124  GLU124      0.0388
     72  CG        11.2150   -5.7070    8.1460 C.3   124  GLU124      0.1160
     73  CD         9.7660   -5.3080    8.1910 C.2   124  GLU124      0.3649
     74  OE1        8.9370   -6.0930    8.7750 O.co2 124  GLU124     -0.2457
     75  OE2        9.3940   -4.1700    7.7960 O.co2 124  GLU124     -0.2457
     76  N         13.3890    0.7020   12.8330 N.3   151  ASP151     -0.1225
     77  CA        12.7860    1.0070   11.5350 C.3   151  ASP151      0.1805
     78  C         11.3080    1.3680   11.8110 C.2   151  ASP151      0.2598
     79  O         10.5050    0.5510   12.3140 O.2   151  ASP151     -0.2718
     80  CB        12.8520   -0.2620   10.6340 C.3   151  ASP151      0.1424
     81  CG        12.2340   -0.0760    9.2210 C.2   151  ASP151      0.3668
     82  OD1       11.5320    0.9350    8.9730 O.co2 151  ASP151     -0.2456
     83  OD2       12.3980   -1.0380    8.3830 O.co2 151  ASP151     -0.2456
     84  N         10.9950    2.6480   11.5360 N.am  152  MET152     -0.1965
     85  CA         9.7240    3.2400   11.8400 C.3   152  MET152      0.1736
     86  C          8.7950    3.1800   10.6320 C.2   152  MET152      0.2617
     87  O          8.6700    4.1770    9.8960 O.2   152  MET152     -0.2715
     88  CB        10.0300    4.6970   12.2730 C.3   152  MET152      0.0427
     89  CG        10.9280    4.8350   13.5260 C.3   152  MET152      0.0599
     90  SD        10.1940    3.9740   14.8990 S.3   152  MET152     -0.1393
     91  CE        11.1750    4.6880   16.2600 C.3   152  MET152      0.0692
     92  N          8.1970    2.0120   10.3970 N.am  153  GLY153     -0.1940
     93  CA         7.4120    1.7960    9.1320 C.3   153  GLY153      0.2014
     94  C          5.9350    2.1860    9.3490 C.2   153  GLY153      0.2639
     95  O          5.5340    2.7550   10.3980 O.2   153  GLY153     -0.2714
     96  N          5.1250    1.8730    8.3470 N.am  154  GLY154     -0.1939
     97  CA         3.7310    2.2290    8.2910 C.3   154  GLY154      0.2014
     98  C          2.8320    1.2820    9.0250 C.2   154  GLY154      0.2639
     99  O          1.7570    1.7360    9.5180 O.2   154  GLY154     -0.2714
    100  N          3.1530   -0.0320    9.0420 N.am  155  ALA155     -0.1963
    101  CA         2.2510   -1.0110    9.6900 C.3   155  ALA155      0.1728
    102  C          2.9360   -1.7180   10.8460 C.2   155  ALA155      0.2616
    103  O          2.2560   -2.0950   11.8050 O.2   155  ALA155     -0.2715
    104  CB         1.6590   -2.0190    8.6920 C.3   155  ALA155      0.0334
    105  N          4.2740   -1.8790   10.8240 N.am  156  SER156     -0.1950
    106  CA         4.9660   -2.3500   12.0150 C.3   156  SER156      0.1924
    107  C          6.2130   -1.4490   12.2430 C.2   156  SER156      0.2314
    108  O          6.6140   -0.6340   11.3660 O.2   156  SER156     -0.2863
    109  CB         5.4450   -3.8350   11.8800 C.3   156  SER156      0.2116
    110  OG         6.4770   -3.9610   10.8660 O.3   156  SER156     -0.2180
    111  N         10.2820   -1.9600   13.8960 N.3   158  GLN158     -0.1245
    112  CA        11.2660   -2.9510   14.3530 C.3   158  GLN158      0.1566
    113  C         12.2660   -2.2230   15.2570 C.2   158  GLN158      0.2260
    114  O         12.6410   -1.0490   15.0100 O.2   158  GLN158     -0.2867
    115  CB        12.0330   -3.6190   13.2040 C.3   158  GLN158      0.0367
    116  CG        11.2500   -4.5980   12.3340 C.3   158  GLN158      0.0905
    117  CD        10.1490   -3.8810   11.5630 C.2   158  GLN158      0.2608
    118  OE1        8.9500   -4.0430   11.8680 O.2   158  GLN158     -0.2717
    119  NE2       10.5450   -3.0540   10.5760 N.am  158  GLN158     -0.0878
    120  N          3.1250    3.6720   11.7010 N.3   196  GLN196     -0.1231
    121  CA         2.4400    4.9560   11.7750 C.3   196  GLN196      0.1698
    122  C          0.9940    4.9400   11.2170 C.2   196  GLN196      0.2592
    123  O          0.1290    5.6150   11.7810 O.2   196  GLN196     -0.2718
    124  CB         3.2710    6.1150   11.1870 C.3   196  GLN196      0.0381
    125  CG         3.6370    6.0130    9.7820 C.3   196  GLN196      0.0905
    126  CD         4.1190    7.3760    9.2910 C.2   196  GLN196      0.2608
    127  OE1        5.3420    7.7540    9.3910 O.2   196  GLN196     -0.2717
    128  NE2        3.1550    8.1480    8.7700 N.am  196  GLN196     -0.0878
    129  N          0.7190    4.2050   10.1270 N.am  197  THR197     -0.1953
    130  CA        -0.6050    4.2810    9.5350 C.3   197  THR197      0.1897
    131  C         -1.5770    3.5900   10.4580 C.2   197  THR197      0.2313
    132  O         -2.6780    4.1170   10.7530 O.2   197  THR197     -0.2863
    133  CB        -0.6540    3.6170    8.1230 C.3   197  THR197      0.1794
    134  OG1        0.3890    4.2050    7.3450 O.3   197  THR197     -0.2208
    135  CG2       -2.0240    3.8260    7.5280 C.3   197  THR197      0.0378
    136  N         13.0940    4.0740    7.9490 N.3   263  GLY263     -0.1210
    137  CA        11.6610    4.1550    7.6830 C.3   263  GLY263      0.1956
    138  C         11.1790    5.5940    7.6180 C.2   263  GLY263      0.2612
    139  O         11.9460    6.6000    7.4360 O.2   263  GLY263     -0.2717
    140  N          9.8690    5.7340    7.7880 N.am  264  GLY264     -0.1956
    141  CA         9.1760    6.9880    7.4690 C.3   264  GLY264      0.1869
    142  C          9.5760    8.1400    8.3510 C.2   264  GLY264      0.2309
    143  O          9.3620    9.3270    7.9810 O.2   264  GLY264     -0.2863
    144  N         11.4970   11.0430    6.7260 N.3   267  TYR267     -0.1241
    145  CA        10.7910   12.1070    5.9980 C.3   267  TYR267      0.1605
    146  C         10.3550   13.2120    6.9640 C.2   267  TYR267      0.2264
    147  O         10.5230   14.4030    6.6780 O.2   267  TYR267     -0.2867
    148  CB         9.5460   11.5690    5.3210 C.3   267  TYR267      0.0534
    149  CG         9.7510   10.5070    4.2870 C.ar  267  TYR267     -0.0201
    150  CD1       10.4900   10.7040    3.1130 C.ar  267  TYR267     -0.0009
    151  CD2        9.1980    9.2080    4.5260 C.ar  267  TYR267     -0.0009
    152  CE1       10.6260    9.6470    2.1580 C.ar  267  TYR267      0.0417
    153  CE2        9.3250    8.1800    3.5960 C.ar  267  TYR267      0.0417
    154  CZ        10.0590    8.3950    2.4270 C.ar  267  TYR267      0.1957
    155  OH        10.1360    7.3450    1.5050 O.3   267  TYR267     -0.2866
    156  N          1.9290   15.8510    3.7570 N.3   311  TYR311     -0.1241
    157  CA         2.1310   15.0310    4.9900 C.3   311  TYR311      0.1605
    158  C          2.1050   15.8920    6.2400 C.2   311  TYR311      0.2264
    159  O          1.9210   15.3960    7.3690 O.2   311  TYR311     -0.2867
    160  CB         3.4940   14.3050    4.9400 C.3   311  TYR311      0.0534
    161  CG         3.4980   13.3300    3.7820 C.ar  311  TYR311     -0.0201
    162  CD1        2.7630   12.1710    3.8470 C.ar  311  TYR311     -0.0009
    163  CD2        4.2540   13.5910    2.6390 C.ar  311  TYR311     -0.0009
    164  CE1        2.7280   11.3210    2.7750 C.ar  311  TYR311      0.0417
    165  CE2        4.2430   12.7320    1.5550 C.ar  311  TYR311      0.0417
    166  CZ         3.4820   11.5870    1.6420 C.ar  311  TYR311      0.1957
    167  OH         3.4470   10.6750    0.6100 O.3   311  TYR311     -0.2866
    168  N         -0.1620   15.7170    9.5670 N.3   314  GLN314     -0.1231
    169  CA        -0.0180   14.6440   10.5390 C.3   314  GLN314      0.1698
    170  C          1.1910   14.8130   11.4420 C.2   314  GLN314      0.2592
    171  O          1.4570   13.9520   12.2890 O.2   314  GLN314     -0.2718
    172  CB         0.0350   13.2970    9.8300 C.3   314  GLN314      0.0381
    173  CG        -0.8260   12.3170   10.5690 C.3   314  GLN314      0.0905
    174  CD        -0.9130   10.9610    9.9070 C.2   314  GLN314      0.2608
    175  OE1        0.0910   10.4240    9.4710 O.2   314  GLN314     -0.2717
    176  NE2       -2.1050   10.3990    9.8680 N.am  314  GLN314     -0.0878
    177  N          1.9090   15.9450   11.3140 N.am  315  TYR315     -0.1976
    178  CA         3.2230   16.0830   12.0680 C.3   315  TYR315      0.1639
    179  C          3.0510   16.2670   13.5630 C.2   315  TYR315      0.2290
    180  O          3.9810   15.9160   14.3090 O.2   315  TYR315     -0.2864
    181  CB         4.0590   17.2410   11.5210 C.3   315  TYR315      0.0560
    182  CG         4.6910   16.9890   10.1550 C.ar  315  TYR315     -0.0198
    183  CD1        4.5510   15.7620    9.4610 C.ar  315  TYR315     -0.0009
    184  CD2        5.4610   18.0100    9.5380 C.ar  315  TYR315     -0.0009
    185  CE1        5.1680   15.5550    8.2440 C.ar  315  TYR315      0.0417
    186  CE2        6.0780   17.8180    8.3100 C.ar  315  TYR315      0.0417
    187  CZ         5.9240   16.6050    7.6730 C.ar  315  TYR315      0.1957
    188  OH         6.5030   16.4250    6.4490 O.3   315  TYR315     -0.2866
    189  N          2.5470   12.6550   14.5840 N.3   318  LEU318     -0.1245
    190  CA         3.7330   11.8090   14.4150 C.3   318  LEU318      0.1561
    191  C          4.8490   12.1650   15.4160 C.2   318  LEU318      0.2260
    192  O          5.5320   11.2400   15.9790 O.2   318  LEU318     -0.2867
    193  CB         4.2760   11.8130   13.0000 C.3   318  LEU318      0.0270
    194  CG         3.3250   11.2250   11.9590 C.3   318  LEU318      0.0019
    195  CD1        4.0830   11.2330   10.6510 C.3   318  LEU318      0.0001
    196  CD2        2.8840    9.7870   12.3310 C.3   318  LEU318      0.0001
    197  N         15.6930   -1.8250    4.3470 N.3   349  TRP349     -0.1241
    198  CA        16.3460   -3.0710    4.7540 C.3   349  TRP349      0.1605
    199  C         16.8710   -3.9410    3.6210 C.2   349  TRP349      0.2264
    200  O         17.4770   -5.0200    3.8830 O.2   349  TRP349     -0.2867
    201  CB        15.4020   -3.8900    5.6890 C.3   349  TRP349      0.0550
    202  CG        13.9920   -3.9950    5.0980 C.ar  349  TRP349      0.0003
    203  CD1       12.9060   -3.1600    5.3810 C.ar  349  TRP349      0.0946
    204  CD2       13.5600   -4.8720    4.0410 C.ar  349  TRP349      0.0152
    205  NE1       11.7990   -3.5410    4.6140 N.ar  349  TRP349     -0.2442
    206  CE2       12.1560   -4.5660    3.7630 C.ar  349  TRP349      0.0810
    207  CE3       14.2000   -5.9090    3.2800 C.ar  349  TRP349      0.0012
    208  CZ2       11.4170   -5.2840    2.7950 C.ar  349  TRP349      0.0191
    209  CZ3       13.4230   -6.6400    2.3220 C.ar  349  TRP349      0.0001
    210  CH2       12.0760   -6.2990    2.0670 C.ar  349  TRP349      0.0015
@<TRIPOS>BOND
     1    40    39    2
     2    37    38    1
     3    39    38    1
     4    49    48    2
     5    38    41    1
     6    46    47    1
     7    48    47    1
     8    41    42    1
     9    28    27    1
    10    28    29    2
    11    47    50    1
    12    42    43    1
    13    27    26    1
    14    27    30    1
    15    50    51    1
    16    43    44    1
    17    53    54    1
    18    53    52    1
    19    51    52    1
    20    30    31    1
    21    44    45    1
    22    31    32    1
    23     1     2    1
    24     4     3    2
    25    32    33    1
    26     3     2    1
    27     2     5    1
    28    33    34    2
    29    22    21    2
    30     5     6    1
    31    21    20    1
    32   167   166    1
    33    34    36    1
    34    34    35    1
    35     9    10    1
    36    12    11    2
    37     6     8   ar
    38     6     7   ar
    39   155   154    1
    40   165   166   ar
    41   165   163   ar
    42   166   164   ar
    43    20    19    1
    44    20    23    1
    45   210   209   ar
    46   210   208   ar
    47   152   154   ar
    48   152   150   ar
    49    10    11    1
    50   209   207   ar
    51    11    13   am
    52   154   153   ar
    53    16    15    2
    54    24    23    1
    55    19    15   am
    56   163   161   ar
    57    23    25    1
    58   164   162   ar
    59   208   206   ar
    60    15    14    1
    61   150   149   ar
    62   207   204   ar
    63    13    14    1
    64   153   151   ar
    65   199   200    2
    66   199   198    1
    67    55    56    1
    68    14    17    1
    69   156   157    1
    70   206   204   ar
    71   206   205   ar
    72   161   162   ar
    73   161   160    1
    74   204   202   ar
    75   149   151   ar
    76   149   148    1
    77   197   198    1
    78   205   203   ar
    79    60    59    1
    80   198   201    1
    81   160   157    1
    82    61    59    1
    83   157   158    1
    84   202   203   ar
    85   202   201    1
    86    56    59    1
    87    56    57    1
    88    17    18    1
    89   148   145    1
    90    58    57    2
    91    57    62   am
    92   145   144    1
    93   145   146    1
    94   158   159    2
    95   188   187    1
    96   147   146    2
    97    62    63    1
    98    64    65    2
    99    64    63    1
   100   134   133    1
   101   139   138    2
   102   141   140    1
   103   141   142    1
   104   135   133    1
   105   138   137    1
   106   138   140   am
   107   187   185   ar
   108   187   186   ar
   109   137   136    1
   110    63    66    1
   111    75    73   ar
   112   143   142    2
   113   133   130    1
   114    72    73    1
   115    72    71    1
   116    73    74   ar
   117   185   183   ar
   118    97    96    1
   119    97    98    1
   120   186   184   ar
   121    96    94   am
   122    83    81   ar
   123    68    71    1
   124    68    67    1
   125    68    69    1
   126   104   101    1
   127   128   126   am
   128    82    81   ar
   129    98   100   am
   130    98    99    2
   131   100   101    1
   132    70    69    2
   133    93    94    1
   134    93    92    1
   135    81    80    1
   136   126   127    2
   137   126   125    1
   138    94    95    2
   139   183   182   ar
   140   175   174    2
   141   130   129    1
   142   130   131    1
   143   184   182   ar
   144   168   169    1
   145   101   102    1
   146   125   124    1
   147   172   169    1
   148   172   173    1
   149   176   174   am
   150    87    86    2
   151   174   173    1
   152   129   122   am
   153   182   181    1
   154    92    86   am
   155   131   132    2
   156   169   170    1
   157   119   117   am
   158    86    85    1
   159    80    77    1
   160   195   194    1
   161   105   102   am
   162   105   106    1
   163   102   103    2
   164   110   109    1
   165   124   121    1
   166   122   121    1
   167   122   123    2
   168   177   170   am
   169   177   178    1
   170   108   107    2
   171   170   171    2
   172   181   178    1
   173    77    78    1
   174    77    76    1
   175    84    78   am
   176    84    85    1
   177   117   118    2
   178   117   116    1
   179   120   121    1
   180    78    79    2
   181    85    88    1
   182   109   106    1
   183   194   196    1
   184   194   193    1
   185   106   107    1
   186   178   179    1
   187    88    89    1
   188   116   115    1
   189   193   190    1
   190   115   112    1
   191    89    90    1
   192   179   180    2
   193   111   112    1
   194   112   113    1
   195   190   189    1
   196   190   191    1
   197    90    91    1
   198   114   113    2
   199   191   192    2
