@<TRIPOS>MOLECULE
tmp/4brlB00.pdb
 130 121 0 0 0
SMALL
GASTEIGER

@<TRIPOS>ATOM
      1  N         85.0620   -1.4760    3.4170 N.3    16  SER16      -0.1202
      2  CA        83.6440   -1.2270    3.6460 C.3    16  SER16       0.2020
      3  C         83.2050   -0.0330    2.8030 C.2    16  SER16       0.2619
      4  O         82.0390    0.0360    2.3940 O.2    16  SER16      -0.2717
      5  CB        83.3560   -0.9940    5.1380 C.3    16  SER16       0.2103
      6  OG        83.9410    0.2110    5.6410 O.3    16  SER16      -0.2182
      7  N         84.0830    0.9520    2.5880 N.am   17  THR17      -0.1952
      8  CA        83.6650    2.1830    1.8470 C.3    17  THR17       0.1897
      9  C         84.0800    2.2280    0.3540 C.2    17  THR17       0.2313
     10  O         83.7200    3.1640   -0.3610 O.2    17  THR17      -0.2863
     11  CB        84.0840    3.4970    2.5550 C.3    17  THR17       0.1794
     12  OG1       85.5330    3.6030    2.5590 O.3    17  THR17      -0.2208
     13  CG2       83.5830    3.5360    4.0270 C.3    17  THR17       0.0378
     14  N         90.3640   -0.8190   -3.3620 N.3    20  ARG20      -0.1245
     15  CA        91.5690   -0.1740   -3.8610 C.3    20  ARG20       0.1563
     16  C         92.4290   -1.2770   -4.4470 C.2    20  ARG20       0.2260
     17  O         92.8890   -2.1950   -3.7220 O.2    20  ARG20      -0.2867
     18  CB        92.3120    0.5830   -2.7560 C.3    20  ARG20       0.0307
     19  CG        91.4960    1.6120   -1.9410 C.3    20  ARG20       0.0489
     20  CD        90.9720    1.0610   -0.6280 C.3    20  ARG20       0.2205
     21  NE        89.8010    1.8040   -0.1070 N.pl3  20  ARG20      -0.0865
     22  CZ        89.1390    1.4750    1.0160 C.cat  20  ARG20       0.5346
     23  NH1       89.5720    0.4450    1.8080 N.pl3  20  ARG20       0.1354
     24  NH2       88.0340    2.1920    1.3800 N.pl3  20  ARG20       0.1354
     25  N         91.1340    3.3640   -7.1960 N.3    44  LYS44      -0.1245
     26  CA        90.1710    3.3560   -6.0750 C.3    44  LYS44       0.1561
     27  C         88.7890    3.5680   -6.6410 C.2    44  LYS44       0.2260
     28  O         88.5850    4.3720   -7.5710 O.2    44  LYS44      -0.2867
     29  CB        90.5250    4.4110   -5.0040 C.3    44  LYS44       0.0271
     30  CG        91.8700    4.2310   -4.2850 C.3    44  LYS44       0.0035
     31  CD        92.5200    5.5320   -3.7800 C.3    44  LYS44       0.0206
     32  CE        91.9270    6.1040   -2.4980 C.3    44  LYS44       0.1093
     33  NZ        92.1850    7.5880   -2.3700 N.3    44  LYS44      -0.1314
     34  N         84.3850    3.5230   -5.4560 N.3    46  LYS46      -0.1245
     35  CA        83.3750    3.5010   -4.4100 C.3    46  LYS46       0.1561
     36  C         82.1160    2.9440   -5.0940 C.2    46  LYS46       0.2260
     37  O         82.0020    2.9820   -6.3370 O.2    46  LYS46      -0.2867
     38  CB        83.1370    4.9090   -3.8290 C.3    46  LYS46       0.0271
     39  CG        84.2500    5.4740   -2.9230 C.3    46  LYS46       0.0035
     40  CD        83.7880    6.8180   -2.3520 C.3    46  LYS46       0.0206
     41  CE        84.8290    7.5060   -1.4810 C.3    46  LYS46       0.1093
     42  NZ        84.6780    8.9990   -1.4700 N.3    46  LYS46      -0.1314
     43  N         91.9060    2.7140   11.4400 N.3   151  MET151     -0.1230
     44  CA        90.5670    3.2800   11.6610 C.3   151  MET151      0.1702
     45  C         89.7600    3.0980   10.3720 C.2   151  MET151      0.2593
     46  O         89.8540    3.9390    9.4780 O.2   151  MET151     -0.2718
     47  CB        90.7440    4.8090   11.9620 C.3   151  MET151      0.0401
     48  CG        91.7300    5.1510   13.0970 C.3   151  MET151      0.0596
     49  SD        91.2610    4.2600   14.5790 S.3   151  MET151     -0.1393
     50  CE        92.2280    5.0650   15.8620 C.3   151  MET151      0.0692
     51  N         88.9110    2.0620   10.2900 N.am  152  GLY152     -0.1942
     52  CA        88.1540    1.8130    9.0590 C.3   152  GLY152      0.2014
     53  C         86.6860    2.2480    9.1800 C.2   152  GLY152      0.2639
     54  O         86.2590    2.8490   10.1880 O.2   152  GLY152     -0.2714
     55  N         85.8950    1.9480    8.1500 N.am  153  GLY153     -0.1954
     56  CA        84.4820    2.3470    8.1210 C.3   153  GLY153      0.1869
     57  C         83.6030    1.4610    8.9740 C.2   153  GLY153      0.2309
     58  O         82.5650    1.9430    9.4690 O.2   153  GLY153     -0.2863
     59  N         84.0260    3.9040   11.6790 N.3   195  GLN195     -0.1231
     60  CA        83.3550    5.1870   11.7240 C.3   195  GLN195      0.1698
     61  C         81.8970    5.1950   11.1670 C.2   195  GLN195      0.2592
     62  O         81.0630    5.8950   11.6800 O.2   195  GLN195     -0.2718
     63  CB        84.2830    6.2460   11.0780 C.3   195  GLN195      0.0381
     64  CG        83.6290    7.2460   10.1590 C.3   195  GLN195      0.0905
     65  CD        84.6250    8.1460    9.4170 C.2   195  GLN195      0.2608
     66  OE1       85.8610    8.1000    9.6510 O.2   195  GLN195     -0.2717
     67  NE2       84.0900    8.9760    8.5180 N.am  195  GLN195     -0.0878
     68  N         81.6410    4.4400   10.0670 N.am  196  THR196     -0.1953
     69  CA        80.3100    4.4190    9.4220 C.3   196  THR196      0.1897
     70  C         79.3310    3.7240   10.3340 C.2   196  THR196      0.2313
     71  O         78.2670    4.2790   10.6690 O.2   196  THR196     -0.2863
     72  CB        80.3090    3.6980    8.0770 C.3   196  THR196      0.1794
     73  OG1       81.2320    4.3730    7.2430 O.3   196  THR196     -0.2208
     74  CG2       78.8380    3.7590    7.4070 C.3   196  THR196      0.0378
     75  N         94.0820    4.7710    7.9280 N.3   262  GLY262     -0.1210
     76  CA        92.6220    4.7960    7.7770 C.3   262  GLY262      0.1956
     77  C         92.0740    6.2320    7.8770 C.2   262  GLY262      0.2612
     78  O         92.7820    7.2210    7.5510 O.2   262  GLY262     -0.2717
     79  N         90.8400    6.3560    8.3920 N.am  263  GLY263     -0.1956
     80  CA        90.0680    7.6380    8.2920 C.3   263  GLY263      0.1869
     81  C         90.7350    8.7920    9.0340 C.2   263  GLY263      0.2309
     82  O         90.6010    9.9520    8.6600 O.2   263  GLY263     -0.2863
     83  N         92.7780   11.1250    6.9640 N.3   266  ASN266     -0.1225
     84  CA        92.0380   12.0810    6.1600 C.3   266  ASN266      0.1785
     85  C         91.5130   13.2590    6.9610 C.2   266  ASN266      0.2597
     86  O         91.5850   14.4260    6.5190 O.2   266  ASN266     -0.2718
     87  CB        90.8860   11.3480    5.4900 C.3   266  ASN266      0.1169
     88  CG        91.4090   10.2540    4.6070 C.2   266  ASN266      0.2627
     89  OD1       91.5810    9.1190    5.0640 O.2   266  ASN266     -0.2716
     90  ND2       91.7990   10.6090    3.3970 N.am  266  ASN266     -0.0877
     91  N         91.0390   12.9680    8.1530 N.am  267  LEU267     -0.1980
     92  CA        90.5360   14.0310    9.0510 C.3   267  LEU267      0.1596
     93  C         91.6640   14.9810    9.4530 C.2   267  LEU267      0.2287
     94  O         91.5190   16.1990    9.3710 O.2   267  LEU267     -0.2864
     95  CB        89.9250   13.4120   10.3060 C.3   267  LEU267      0.0297
     96  CG        89.4340   14.4330   11.3370 C.3   267  LEU267      0.0022
     97  CD1       88.2730   13.8250   12.0790 C.3   267  LEU267      0.0001
     98  CD2       90.5080   14.9080   12.3010 C.3   267  LEU267      0.0001
     99  N         82.9120   15.5960    3.9620 N.3   310  TYR310     -0.1241
    100  CA        82.8640   14.8870    5.2400 C.3   310  TYR310      0.1605
    101  C         82.7880   15.8970    6.3960 C.2   310  TYR310      0.2264
    102  O         82.6410   15.5060    7.5430 O.2   310  TYR310     -0.2867
    103  CB        84.0950   13.9980    5.4080 C.3   310  TYR310      0.0534
    104  CG        84.3500   12.9470    4.3280 C.ar  310  TYR310     -0.0201
    105  CD1       84.7890   13.3040    3.0370 C.ar  310  TYR310     -0.0009
    106  CD2       84.1780   11.5860    4.6150 C.ar  310  TYR310     -0.0009
    107  CE1       85.0230   12.3280    2.0370 C.ar  310  TYR310      0.0417
    108  CE2       84.4280   10.6070    3.6500 C.ar  310  TYR310      0.0417
    109  CZ        84.8530   10.9740    2.3560 C.ar  310  TYR310      0.1957
    110  OH        85.1260    9.9680    1.4080 O.3   310  TYR310     -0.2866
    111  N         82.6980   16.1580   11.3010 N.3   314  TYR314     -0.1241
    112  CA        84.0000   16.3100   12.0090 C.3   314  TYR314      0.1605
    113  C         83.8940   16.4980   13.5290 C.2   314  TYR314      0.2264
    114  O         84.8460   16.2070   14.2580 O.2   314  TYR314     -0.2867
    115  CB        84.8480   17.4150   11.3740 C.3   314  TYR314      0.0534
    116  CG        85.4560   17.1470    9.9940 C.ar  314  TYR314     -0.0201
    117  CD1       85.4610   15.8690    9.4300 C.ar  314  TYR314     -0.0009
    118  CD2       86.1240   18.1840    9.3110 C.ar  314  TYR314     -0.0009
    119  CE1       86.0310   15.6110    8.1830 C.ar  314  TYR314      0.0417
    120  CE2       86.6750   17.9800    8.0480 C.ar  314  TYR314      0.0417
    121  CZ        86.6740   16.6850    7.5130 C.ar  314  TYR314      0.1957
    122  OH        87.2270   16.4510    6.2970 O.3   314  TYR314     -0.2866
    123  N         83.4550   12.7930   14.5690 N.3   317  LEU317     -0.1245
    124  CA        84.6800   11.9940   14.3560 C.3   317  LEU317      0.1561
    125  C         85.8140   12.3890   15.3150 C.2   317  LEU317      0.2260
    126  O         86.5020   11.4940   15.8600 O.2   317  LEU317     -0.2867
    127  CB        85.1630   12.1410   12.9070 C.3   317  LEU317      0.0270
    128  CG        84.2020   11.5160   11.8840 C.3   317  LEU317      0.0019
    129  CD1       84.7670   11.8000   10.4970 C.3   317  LEU317      0.0001
    130  CD2       83.9420   10.0120   12.1710 C.3   317  LEU317      0.0001
@<TRIPOS>BOND
     1    28    27    2
     2    25    26    1
     3    27    26    1
     4    37    36    2
     5    26    29    1
     6    34    35    1
     7    36    35    1
     8    29    30    1
     9    16    15    1
    10    16    17    2
    11    35    38    1
    12    30    31    1
    13    15    14    1
    14    15    18    1
    15    38    39    1
    16    31    32    1
    17    39    40    1
    18    18    19    1
    19    32    33    1
    20    40    41    1
    21    19    20    1
    22    41    42    1
    23    20    21    1
    24    10     9    2
    25    21    22    2
    26     9     8    1
    27    22    24    1
    28    22    23    1
    29   110   109    1
    30     8    11    1
    31     8     7    1
    32   107   109   ar
    33   107   105   ar
    34   109   108   ar
    35     4     3    2
    36    11    12    1
    37    11    13    1
    38     7     3   am
    39     3     2    1
    40   105   104   ar
    41    90    88   am
    42     1     2    1
    43     2     5    1
    44   108   106   ar
    45    99   100    1
    46   104   106   ar
    47   104   103    1
    48    88    89    2
    49    88    87    1
    50     5     6    1
    51   100   103    1
    52   100   101    1
    53    87    84    1
    54    84    85    1
    55    84    83    1
    56   122   121    1
    57   101   102    2
    58    86    85    2
    59    85    91   am
    60    73    72    1
    61    74    72    1
    62   121   120   ar
    63   121   119   ar
    64    78    77    2
    65    76    77    1
    66    76    75    1
    67    77    79   am
    68   120   118   ar
    69    72    69    1
    70    56    55    1
    71    56    57    1
    72    55    53   am
    73    91    92    1
    74   119   117   ar
    75    80    79    1
    76    80    81    1
    77    67    65   am
    78    82    81    2
    79    57    58    2
    80    92    93    1
    81    92    95    1
    82    52    53    1
    83    52    51    1
    84    53    54    2
    85   118   116   ar
    86    94    93    2
    87    65    66    2
    88    65    64    1
    89    69    68    1
    90    69    70    1
    91   117   116   ar
    92    46    45    2
    93   116   115    1
    94    68    61   am
    95    64    63    1
    96    51    45   am
    97    95    96    1
    98    70    71    2
    99    45    44    1
   100   129   128    1
   101    63    60    1
   102    61    62    2
   103    61    60    1
   104   111   112    1
   105    96    97    1
   106    96    98    1
   107   115   112    1
   108    43    44    1
   109    44    47    1
   110    59    60    1
   111   128   130    1
   112   128   127    1
   113    47    48    1
   114   112   113    1
   115   127   124    1
   116    48    49    1
   117   113   114    2
   118   124   123    1
   119   124   125    1
   120    49    50    1
   121   125   126    2
