@<TRIPOS>MOLECULE
tmp/4brlA00.pdb
 189 179 0 0 0
SMALL
GASTEIGER

@<TRIPOS>ATOM
      1  N         56.4180    3.0920    0.4500 N.3    14  ASP14      -0.1239
      2  CA        57.2500    3.0020    1.7100 C.3    14  ASP14       0.1674
      3  C         58.6300    2.6060    1.2400 C.2    14  ASP14       0.2266
      4  O         58.8580    1.4090    0.9420 O.2    14  ASP14      -0.2867
      5  CB        56.6260    1.9150    2.6420 C.3    14  ASP14       0.1410
      6  CG        57.5040    1.4890    3.8200 C.2    14  ASP14       0.3668
      7  OD1       58.5740    2.0640    4.0670 O.co2  14  ASP14      -0.2456
      8  OD2       57.1110    0.5180    4.5330 O.co2  14  ASP14      -0.2456
      9  N         61.6420    1.7810    2.6240 N.3    16  GLY16      -0.1210
     10  CA        62.2600    1.3890    3.9070 C.3    16  GLY16       0.1956
     11  C         63.7080    0.9740    3.7980 C.2    16  GLY16       0.2613
     12  O         64.2590    0.8030    2.6780 O.2    16  GLY16      -0.2717
     13  N         64.3090    0.6850    4.9600 N.am   17  SER17      -0.1938
     14  CA        65.7470    0.3800    4.9510 C.3    17  SER17       0.2055
     15  C         66.0610   -0.9400    4.2530 C.2    17  SER17       0.2643
     16  O         67.1750   -1.1060    3.6680 O.2    17  SER17      -0.2714
     17  CB        66.3040    0.3840    6.3880 C.3    17  SER17       0.2130
     18  OG        65.7980   -0.6790    7.1190 O.3    17  SER17      -0.2179
     19  N         65.1100   -1.8880    4.2720 N.am   18  THR18      -0.1950
     20  CA        65.4100   -3.2380    3.7570 C.3    18  THR18       0.1897
     21  C         64.7090   -3.4970    2.4280 C.2    18  THR18       0.2313
     22  O         64.9420   -4.5290    1.7900 O.2    18  THR18      -0.2863
     23  CB        65.0220   -4.3480    4.7670 C.3    18  THR18       0.1794
     24  OG1       63.6100   -4.3290    4.9780 O.3    18  THR18      -0.2208
     25  CG2       65.7450   -4.2060    6.0770 C.3    18  THR18       0.0378
     26  N         58.0180   -0.7810   -0.7960 N.3    21  ARG21      -0.1245
     27  CA        56.6990   -1.4070   -0.9650 C.3    21  ARG21       0.1563
     28  C         55.7840   -0.3430   -1.5860 C.2    21  ARG21       0.2260
     29  O         55.5340    0.7080   -0.9730 O.2    21  ARG21      -0.2867
     30  CB        56.1220   -1.9000    0.3570 C.3    21  ARG21       0.0307
     31  CG        57.0720   -2.8230    1.1220 C.3    21  ARG21       0.0489
     32  CD        57.9120   -1.9700    2.1020 C.3    21  ARG21       0.2205
     33  NE        59.0210   -2.7750    2.6150 N.pl3  21  ARG21      -0.0865
     34  CZ        59.8330   -2.3910    3.5840 C.cat  21  ARG21       0.5346
     35  NH1       59.6000   -1.2140    4.2220 N.pl3  21  ARG21       0.1354
     36  NH2       60.8420   -3.2110    3.8930 N.pl3  21  ARG21       0.1354
     37  N         63.3470   -5.7400   -3.1010 N.3    47  LYS47      -0.1245
     38  CA        64.5760   -5.6260   -2.2670 C.3    47  LYS47       0.1561
     39  C         65.7200   -5.1800   -3.2020 C.2    47  LYS47       0.2260
     40  O         65.6230   -5.3420   -4.4290 O.2    47  LYS47      -0.2867
     41  CB        64.8660   -6.9630   -1.5270 C.3    47  LYS47       0.0271
     42  CG        63.8330   -7.3060   -0.4550 C.3    47  LYS47       0.0035
     43  CD        64.1990   -8.6400    0.2050 C.3    47  LYS47       0.0206
     44  CE        62.9920   -9.3380    0.8040 C.3    47  LYS47       0.1093
     45  NZ        63.1650  -10.8040    0.8150 N.3    47  LYS47      -0.1314
     46  N         62.2040    6.2490    4.6000 N.3    83  THR83      -0.1203
     47  CA        62.3270    6.2740    6.0540 C.3    83  THR83       0.1994
     48  C         63.7770    6.1250    6.5420 C.2    83  THR83       0.2617
     49  O         64.6620    6.8410    6.0140 O.2    83  THR83      -0.2717
     50  CB        61.3480    5.3080    6.7150 C.3    83  THR83       0.1784
     51  OG1       61.5630    3.9760    6.2340 O.3    83  THR83      -0.2211
     52  CG2       59.8740    5.7250    6.4310 C.3    83  THR83       0.0376
     53  N         64.0600    5.2320    7.4950 N.am   84  ALA84      -0.1979
     54  CA        65.3620    5.3880    8.2360 C.3    84  ALA84       0.1597
     55  C         66.5980    4.9940    7.4150 C.2    84  ALA84       0.2287
     56  O         67.6960    5.4890    7.7130 O.2    84  ALA84      -0.2864
     57  CB        65.3270    4.5840    9.5360 C.3    84  ALA84       0.0319
     58  N         56.9690    9.2440   10.7040 N.3   124  GLU124     -0.1245
     59  CA        56.7900    7.8030   10.4780 C.3   124  GLU124      0.1567
     60  C         55.9650    7.2010   11.6640 C.2   124  GLU124      0.2260
     61  O         55.0380    6.3800   11.4490 O.2   124  GLU124     -0.2867
     62  CB        58.1440    7.1110   10.4030 C.3   124  GLU124      0.0388
     63  CG        58.1190    5.6370    9.9710 C.3   124  GLU124      0.1160
     64  CD        59.5570    5.0930    9.8380 C.2   124  GLU124      0.3649
     65  OE1       60.4940    5.9030   10.0200 O.co2 124  GLU124     -0.2457
     66  OE2       59.7600    3.9060    9.5540 O.co2 124  GLU124     -0.2457
     67  N         56.6300    0.0610   15.8620 N.3   151  ASP151     -0.1225
     68  CA        57.0160   -0.3640   14.5060 C.3   151  ASP151      0.1805
     69  C         58.5060   -0.7200   14.5810 C.2   151  ASP151      0.2598
     70  O         59.3540    0.1330   14.9290 O.2   151  ASP151     -0.2718
     71  CB        56.7140    0.7550   13.5030 C.3   151  ASP151      0.1424
     72  CG        57.1930    0.4510   12.0760 C.2   151  ASP151      0.3668
     73  OD1       58.1200   -0.3770   11.8840 O.co2 151  ASP151     -0.2456
     74  OD2       56.7170    1.1240   11.1370 O.co2 151  ASP151     -0.2456
     75  N         58.7760   -2.0060   14.3300 N.am  152  MET152     -0.1965
     76  CA        60.1220   -2.5780   14.3910 C.3   152  MET152      0.1736
     77  C         60.7250   -2.6180   12.9810 C.2   152  MET152      0.2617
     78  O         60.4170   -3.5190   12.1760 O.2   152  MET152     -0.2715
     79  CB        60.0330   -4.0230   14.9440 C.3   152  MET152      0.0427
     80  CG        59.2900   -4.2620   16.2820 C.3   152  MET152      0.0599
     81  SD        59.8930   -3.1550   17.5110 S.3   152  MET152     -0.1393
     82  CE        59.0000   -3.7430   19.0130 C.3   152  MET152      0.0692
     83  N         61.6060   -1.6630   12.7010 N.am  153  GLY153     -0.1940
     84  CA        62.1650   -1.5820   11.3720 C.3   153  GLY153      0.2014
     85  C         63.6180   -2.0830   11.2860 C.2   153  GLY153      0.2639
     86  O         64.2040   -2.4710   12.3020 O.2   153  GLY153     -0.2714
     87  N         64.2220   -1.9580   10.0970 N.am  154  GLY154     -0.1939
     88  CA        65.6210   -2.3930    9.9400 C.3   154  GLY154      0.2014
     89  C         66.6750   -1.3800   10.4270 C.2   154  GLY154      0.2639
     90  O         67.7850   -1.7950   10.7830 O.2   154  GLY154     -0.2714
     91  N         66.3450   -0.0700   10.4460 N.am  155  ALA155     -0.1963
     92  CA        67.2850    0.9930   10.8810 C.3   155  ALA155      0.1728
     93  C         66.7540    1.8010   12.0490 C.2   155  ALA155      0.2616
     94  O         67.5580    2.2870   12.8650 O.2   155  ALA155     -0.2715
     95  CB        67.7090    1.8970    9.7180 C.3   155  ALA155      0.0334
     96  N         65.4080    1.9930   12.1320 N.am  156  SER156     -0.1950
     97  CA        64.8420    2.6480   13.2890 C.3   156  SER156      0.1924
     98  C         63.6740    1.8390   13.8740 C.2   156  SER156      0.2314
     99  O         63.1460    0.9480   13.2290 O.2   156  SER156     -0.2863
    100  CB        64.3010    4.0570   12.9110 C.3   156  SER156      0.2116
    101  OG        63.1500    3.9040   12.0430 O.3   156  SER156     -0.2180
    102  N         66.7310   -3.3960   13.4120 N.3   196  GLN196     -0.1245
    103  CA        67.3430   -4.7030   13.4930 C.3   196  GLN196      0.1566
    104  C         68.6890   -4.7980   12.7720 C.2   196  GLN196      0.2260
    105  O         69.6480   -5.3990   13.3120 O.2   196  GLN196     -0.2867
    106  CB        66.3350   -5.8030   13.1030 C.3   196  GLN196      0.0367
    107  CG        66.5730   -6.5410   11.8360 C.3   196  GLN196      0.0905
    108  CD        65.6270   -7.7060   11.6010 C.2   196  GLN196      0.2608
    109  OE1       64.4170   -7.6330   11.9370 O.2   196  GLN196     -0.2717
    110  NE2       66.1580   -8.7940   11.0080 N.am  196  GLN196     -0.0878
    111  N         55.9800   -4.4270   11.5300 N.3   263  GLY263     -0.1210
    112  CA        57.4220   -4.5130   11.1780 C.3   263  GLY263      0.1956
    113  C         57.9020   -5.9280   11.3650 C.2   263  GLY263      0.2612
    114  O         57.0910   -6.8940   11.3170 O.2   263  GLY263     -0.2717
    115  N         59.1980   -6.0580   11.6430 N.am  264  GLY264     -0.1956
    116  CA        59.8890   -7.3630   11.5620 C.3   264  GLY264      0.1869
    117  C         59.4110   -8.4100   12.5860 C.2   264  GLY264      0.2309
    118  O         59.5350   -9.6300   12.3740 O.2   264  GLY264     -0.2863
    119  N         56.9670  -10.9040   11.2730 N.3   267  ASN267     -0.1225
    120  CA        57.5970  -11.9610   10.5130 C.3   267  ASN267      0.1785
    121  C         58.2360  -13.0190   11.3920 C.2   267  ASN267      0.2597
    122  O         58.0470  -14.2270   11.1340 O.2   267  ASN267     -0.2718
    123  CB        58.5810  -11.3930    9.4870 C.3   267  ASN267      0.1169
    124  CG        57.9620  -10.2930    8.6370 C.2   267  ASN267      0.2627
    125  OD1       58.0290   -9.1070    8.9910 O.2   267  ASN267     -0.2716
    126  ND2       57.3370  -10.6820    7.5020 N.am  267  ASN267     -0.0877
    127  N         58.9650  -12.6100   12.4240 N.am  268  LEU268     -0.1980
    128  CA        59.5540  -13.5830   13.3640 C.3   268  LEU268      0.1596
    129  C         58.4760  -14.4040   14.0460 C.2   268  LEU268      0.2287
    130  O         58.5450  -15.6520   14.0910 O.2   268  LEU268     -0.2864
    131  CB        60.4190  -12.8780   14.4580 C.3   268  LEU268      0.0297
    132  CG        61.2360  -13.7250   15.4740 C.3   268  LEU268      0.0022
    133  CD1       62.3420  -14.4110   14.7310 C.3   268  LEU268      0.0001
    134  CD2       61.8820  -12.9160   16.6140 C.3   268  LEU268      0.0001
    135  N         65.4710  -16.6450    5.1650 N.3   310  GLU310     -0.1231
    136  CA        66.7840  -15.9170    4.9130 C.3   310  GLU310      0.1699
    137  C         67.2630  -15.0810    6.1200 C.2   310  GLU310      0.2592
    138  O         68.4140  -14.6370    6.1890 O.2   310  GLU310     -0.2718
    139  CB        66.7700  -15.0370    3.6510 C.3   310  GLU310      0.0402
    140  CG        66.3450  -13.5680    3.8330 C.3   310  GLU310      0.1161
    141  CD        65.9090  -12.8930    2.5160 C.2   310  GLU310      0.3649
    142  OE1       65.9160  -13.6000    1.4630 O.co2 310  GLU310     -0.2457
    143  OE2       65.5260  -11.6640    2.5090 O.co2 310  GLU310     -0.2457
    144  N         66.3750  -14.9670    7.0940 N.am  311  TYR311     -0.1976
    145  CA        66.7630  -14.2770    8.3330 C.3   311  TYR311      0.1639
    146  C         66.9850  -15.1940    9.5070 C.2   311  TYR311      0.2290
    147  O         67.3200  -14.7430   10.6560 O.2   311  TYR311     -0.2864
    148  CB        65.7470  -13.2600    8.7580 C.3   311  TYR311      0.0560
    149  CG        65.9930  -11.8890    8.2160 C.ar  311  TYR311     -0.0198
    150  CD1       67.1470  -11.1800    8.5360 C.ar  311  TYR311     -0.0009
    151  CD2       65.0440  -11.2730    7.4280 C.ar  311  TYR311     -0.0009
    152  CE1       67.3670   -9.9080    8.0410 C.ar  311  TYR311      0.0417
    153  CE2       65.2480  -10.0030    6.9300 C.ar  311  TYR311      0.0417
    154  CZ        66.4050   -9.3180    7.2410 C.ar  311  TYR311      0.1957
    155  OH        66.5340   -8.0280    6.7540 O.3   311  TYR311     -0.2866
    156  N         67.7030  -15.2520   14.2700 N.3   315  TYR315     -0.1241
    157  CA        66.5130  -15.4400   15.1180 C.3   315  TYR315      0.1605
    158  C         66.8330  -15.5030   16.6560 C.2   315  TYR315      0.2264
    159  O         66.0590  -15.0270   17.4810 O.2   315  TYR315     -0.2867
    160  CB        65.7170  -16.6880   14.6980 C.3   315  TYR315      0.0534
    161  CG        64.8440  -16.4970   13.4550 C.ar  315  TYR315     -0.0201
    162  CD1       64.8920  -15.3130   12.6650 C.ar  315  TYR315     -0.0009
    163  CD2       63.9690  -17.4900   13.0860 C.ar  315  TYR315     -0.0009
    164  CE1       64.0890  -15.1850   11.5320 C.ar  315  TYR315      0.0417
    165  CE2       63.1800  -17.3770   11.9680 C.ar  315  TYR315      0.0417
    166  CZ        63.2220  -16.2300   11.2070 C.ar  315  TYR315      0.1957
    167  OH        62.4070  -16.1610   10.1100 O.3   315  TYR315     -0.2866
    168  N         67.3680  -11.8380   17.4570 N.3   318  LEU318     -0.1245
    169  CA        66.1350  -11.0220   17.3450 C.3   318  LEU318      0.1561
    170  C         65.2060  -11.2630   18.5370 C.2   318  LEU318      0.2260
    171  O         64.6060  -10.2980   19.0760 O.2   318  LEU318     -0.2867
    172  CB        65.4460  -11.3370   16.0110 C.3   318  LEU318      0.0270
    173  CG        66.1780  -10.7650   14.7770 C.3   318  LEU318      0.0019
    174  CD1       65.4540  -11.2750   13.5240 C.3   318  LEU318      0.0001
    175  CD2       66.3110   -9.2360   14.7870 C.3   318  LEU318      0.0001
    176  N         52.8220    1.8440    7.5220 N.3   349  TRP349     -0.1241
    177  CA        52.3280    3.1320    7.9370 C.3   349  TRP349      0.1605
    178  C         51.6810    3.8940    6.7530 C.2   349  TRP349      0.2264
    179  O         51.2150    5.0400    6.9390 O.2   349  TRP349     -0.2867
    180  CB        53.4750    3.9580    8.5430 C.3   349  TRP349      0.0550
    181  CG        54.7470    3.9080    7.7040 C.ar  349  TRP349      0.0003
    182  CD1       55.8270    3.0550    7.8870 C.ar  349  TRP349      0.0946
    183  CD2       55.0440    4.6750    6.5010 C.ar  349  TRP349      0.0152
    184  NE1       56.7830    3.2960    6.9450 N.ar  349  TRP349     -0.2442
    185  CE2       56.3630    4.2600    6.0770 C.ar  349  TRP349      0.0810
    186  CE3       54.4020    5.7380    5.8100 C.ar  349  TRP349      0.0012
    187  CZ2       56.9960    4.7990    4.9620 C.ar  349  TRP349      0.0191
    188  CZ3       55.0220    6.2640    4.6850 C.ar  349  TRP349      0.0001
    189  CH2       56.3180    5.7980    4.2680 C.ar  349  TRP349      0.0015
@<TRIPOS>BOND
     1    40    39    2
     2    39    38    1
     3    37    38    1
     4    38    41    1
     5    28    29    2
     6    28    27    1
     7    41    42    1
     8    27    26    1
     9    27    30    1
    10    42    43    1
    11    43    44    1
    12    30    31    1
    13     1     2    1
    14    44    45    1
    15     4     3    2
    16    31    32    1
    17     3     2    1
    18   142   141   ar
    19     2     5    1
    20    22    21    2
    21    32    33    1
    22    21    20    1
    23   143   141   ar
    24   141   140    1
    25    33    34    2
    26     9    10    1
    27     5     6    1
    28    12    11    2
    29    34    36    1
    30    34    35    1
    31   139   140    1
    32   139   136    1
    33    16    15    2
    34    20    19    1
    35    20    23    1
    36    11    10    1
    37    11    13   am
    38     6     7   ar
    39     6     8   ar
    40    15    19   am
    41    15    14    1
    42   189   188   ar
    43   189   187   ar
    44    46    47    1
    45   188   186   ar
    46    23    24    1
    47    23    25    1
    48   136   135    1
    49   136   137    1
    50    14    13    1
    51    14    17    1
    52   187   185   ar
    53   186   183   ar
    54    49    48    2
    55    47    48    1
    56    47    50    1
    57   185   183   ar
    58   185   184   ar
    59   137   138    2
    60   137   144   am
    61    51    50    1
    62    17    18    1
    63    52    50    1
    64   183   181   ar
    65    48    53   am
    66   178   179    2
    67   178   177    1
    68   155   154    1
    69   153   154   ar
    70   153   151   ar
    71   184   182   ar
    72   144   145    1
    73   154   152   ar
    74    55    56    2
    75    55    54    1
    76   151   149   ar
    77    53    54    1
    78   126   124   am
    79   176   177    1
    80   181   182   ar
    81   181   180    1
    82   177   180    1
    83   152   150   ar
    84   149   150   ar
    85   149   148    1
    86    54    57    1
    87   145   148    1
    88   145   146    1
    89   124   125    2
    90   124   123    1
    91   123   120    1
    92   146   147    2
    93    66    64   ar
    94    95    92    1
    95    64    63    1
    96    64    65   ar
    97    88    87    1
    98    88    89    1
    99    63    62    1
   100    87    85   am
   101   167   166    1
   102    62    59    1
   103    89    91   am
   104    89    90    2
   105    91    92    1
   106    59    58    1
   107    59    60    1
   108   120   119    1
   109   120   121    1
   110    92    93    1
   111   110   108   am
   112   122   121    2
   113    74    72   ar
   114   112   113    1
   115   112   111    1
   116   166   164   ar
   117   166   165   ar
   118    85    84    1
   119    85    86    2
   120   114   113    2
   121   113   115   am
   122    84    83    1
   123   121   127   am
   124    61    60    2
   125   164   162   ar
   126   116   115    1
   127   116   117    1
   128   108   107    1
   129   108   109    2
   130   107   106    1
   131    73    72   ar
   132   165   163   ar
   133   101   100    1
   134    93    96   am
   135    93    94    2
   136    72    71    1
   137    96    97    1
   138    78    77    2
   139   118   117    2
   140   127   128    1
   141   162   161   ar
   142    83    77   am
   143   104   105    2
   144   104   103    1
   145   100    97    1
   146    77    76    1
   147   163   161   ar
   148   106   103    1
   149    99    98    2
   150    97    98    1
   151   128   129    1
   152   128   131    1
   153   102   103    1
   154   161   160    1
   155    71    68    1
   156   174   173    1
   157   129   130    2
   158   156   157    1
   159    75    76    1
   160    75    69   am
   161    76    79    1
   162   131   132    1
   163    68    69    1
   164    68    67    1
   165    69    70    2
   166   160   157    1
   167   133   132    1
   168   173   175    1
   169   173   172    1
   170    79    80    1
   171   157   158    1
   172   132   134    1
   173   172   169    1
   174    80    81    1
   175   158   159    2
   176   169   168    1
   177   169   170    1
   178    81    82    1
   179   170   171    2
