@<TRIPOS>MOLECULE
tmp/4brqB01.pdb
 147 136 0 0 0
SMALL
GASTEIGER

@<TRIPOS>ATOM
      1  N         76.5100    4.2950   26.2530 N.3    17  THR17      -0.1203
      2  CA        76.8690    5.5750   25.6560 C.3    17  THR17       0.1994
      3  C         78.3840    5.6890   25.3200 C.2    17  THR17       0.2618
      4  O         78.8140    6.6630   24.6170 O.2    17  THR17      -0.2717
      5  CB        76.4780    6.7790   26.5480 C.3    17  THR17       0.1784
      6  OG1       77.2520    6.7750   27.7560 O.3    17  THR17      -0.2211
      7  CG2       75.0020    6.7620   26.8350 C.3    17  THR17       0.0376
      8  N         79.1880    4.7330   25.8050 N.am   18  GLY18      -0.1956
      9  CA        80.6240    4.8790   25.6860 C.3    18  GLY18       0.1869
     10  C         81.3110    3.7520   26.4100 C.2    18  GLY18       0.2309
     11  O         80.6330    2.9940   27.1650 O.2    18  GLY18      -0.2863
     12  N         84.7030    2.7970   28.9460 N.3    20  ARG20      -0.1245
     13  CA        85.7140    3.3530   29.8840 C.3    20  ARG20       0.1563
     14  C         86.6940    2.2310   30.2260 C.2    20  ARG20       0.2260
     15  O         86.3190    1.1880   30.8020 O.2    20  ARG20      -0.2867
     16  CB        85.0680    3.8760   31.1770 C.3    20  ARG20       0.0307
     17  CG        83.9720    4.8770   30.9630 C.3    20  ARG20       0.0489
     18  CD        82.6520    4.1370   30.9130 C.3    20  ARG20       0.2205
     19  NE        81.6520    4.9840   30.2160 N.pl3  20  ARG20      -0.0865
     20  CZ        80.3390    4.7580   30.1740 C.cat  20  ARG20       0.5346
     21  NH1       79.8320    3.6270   30.7430 N.pl3  20  ARG20       0.1354
     22  NH2       79.5500    5.6070   29.5270 N.pl3  20  ARG20       0.1354
     23  N         88.2870    7.1500   28.2150 N.3    44  LYS44      -0.1245
     24  CA        86.8840    6.9780   27.8560 C.3    44  LYS44       0.1561
     25  C         86.7690    7.3340   26.3760 C.2    44  LYS44       0.2260
     26  O         87.3960    8.2810   25.8920 O.2    44  LYS44      -0.2867
     27  CB        85.9920    7.9510   28.6300 C.3    44  LYS44       0.0271
     28  CG        86.2310    7.8450   30.1400 C.3    44  LYS44       0.0035
     29  CD        85.6540    9.0040   30.9030 C.3    44  LYS44       0.0206
     30  CE        84.4720    8.6350   31.7750 C.3    44  LYS44       0.1093
     31  NZ        83.8670    9.9270   32.2390 N.3    44  LYS44      -0.1314
     32  N         83.5410    7.4350   23.0880 N.3    46  LYS46      -0.1245
     33  CA        82.1710    7.3480   22.7090 C.3    46  LYS46       0.1561
     34  C         82.1930    6.9620   21.2060 C.2    46  LYS46       0.2260
     35  O         83.2160    7.1880   20.5330 O.2    46  LYS46      -0.2867
     36  CB        81.4530    8.7220   22.9040 C.3    46  LYS46       0.0271
     37  CG        81.3290    9.1360   24.4090 C.3    46  LYS46       0.0035
     38  CD        80.5100   10.4270   24.5780 C.3    46  LYS46       0.0206
     39  CE        80.7950   11.0430   25.9390 C.3    46  LYS46       0.1093
     40  NZ        80.1780   12.3910   26.0680 N.3    46  LYS46      -0.1314
     41  N         72.3690    5.0390   37.3880 N.3   151  MET151     -0.1230
     42  CA        71.4710    5.7030   36.4190 C.3   151  MET151      0.1702
     43  C         72.1920    5.6230   35.0540 C.2   151  MET151      0.2593
     44  O         72.8700    6.5500   34.6830 O.2   151  MET151     -0.2718
     45  CB        71.2130    7.1430   36.8660 C.3   151  MET151      0.0401
     46  CG        70.5910    7.2600   38.2970 C.3   151  MET151      0.0596
     47  SD        69.0390    6.3530   38.3850 S.3   151  MET151     -0.1393
     48  CE        68.4390    6.9910   39.9790 C.3   151  MET151      0.0692
     49  N         72.0340    4.5000   34.3500 N.am  152  GLY152     -0.1942
     50  CA        72.7590    4.3120   33.0910 C.3   152  GLY152      0.2014
     51  C         71.9530    4.8120   31.8940 C.2   152  GLY152      0.2639
     52  O         70.8050    5.2740   32.0000 O.2   152  GLY152     -0.2714
     53  N         72.5720    4.6460   30.7420 N.am  153  GLY153     -0.1954
     54  CA        71.9140    5.1010   29.4960 C.3   153  GLY153      0.1869
     55  C         70.8670    4.1610   28.9130 C.2   153  GLY153      0.2309
     56  O         69.9260    4.6070   28.2320 O.2   153  GLY153     -0.2863
     57  N         68.5090    6.4150   30.5760 N.3   195  GLN195     -0.1245
     58  CA        68.0840    7.7130   30.1260 C.3   195  GLN195      0.1566
     59  C         67.8780    7.7740   28.5700 C.2   195  GLN195      0.2260
     60  O         66.9440    8.4350   28.1200 O.2   195  GLN195     -0.2867
     61  CB        69.0290    8.8420   30.5600 C.3   195  GLN195      0.0367
     62  CG        70.4610    8.7070   30.0300 C.3   195  GLN195      0.0905
     63  CD        71.3810    9.9270   30.2250 C.2   195  GLN195      0.2608
     64  OE1       72.2600   10.1900   29.3510 O.2   195  GLN195     -0.2717
     65  NE2       71.2200   10.6600   31.3250 N.am  195  GLN195     -0.0878
     66  N         76.2970    7.1790   37.7450 N.3   262  GLY262     -0.1210
     67  CA        75.7410    7.3140   36.3670 C.3   262  GLY262      0.1956
     68  C         75.3650    8.7470   36.0800 C.2   262  GLY262      0.2612
     69  O         75.9350    9.7140   36.6430 O.2   262  GLY262     -0.2717
     70  N         74.4240    8.9380   35.1600 N.am  263  GLY263     -0.1956
     71  CA        74.2040   10.2770   34.6060 C.3   263  GLY263      0.1869
     72  C         73.7800   11.3650   35.6040 C.2   263  GLY263      0.2309
     73  O         73.9780   12.5560   35.4140 O.2   263  GLY263     -0.2863
     74  N         76.3840   13.7640   36.6930 N.3   266  ASN266     -0.1225
     75  CA        76.7150   14.7860   35.7630 C.3   266  ASN266      0.1785
     76  C         75.6720   15.8990   35.7200 C.2   266  ASN266      0.2597
     77  O         76.0340   17.0790   35.7000 O.2   266  ASN266     -0.2718
     78  CB        76.9060   14.1900   34.3980 C.3   266  ASN266      0.1169
     79  CG        78.0060   13.1510   34.3760 C.2   266  ASN266      0.2627
     80  OD1       79.1660   13.4850   34.3320 O.2   266  ASN266     -0.2716
     81  ND2       77.6510   11.9230   34.5330 N.am  266  ASN266     -0.0877
     82  N         74.3810   15.5260   35.7690 N.am  267  LEU267     -0.1980
     83  CA        73.3220   16.5370   35.7770 C.3   267  LEU267      0.1596
     84  C         73.4490   17.3840   37.0390 C.2   267  LEU267      0.2287
     85  O         73.4150   18.6170   37.0000 O.2   267  LEU267     -0.2864
     86  CB        71.9330   15.8680   35.6800 C.3   267  LEU267      0.0297
     87  CG        70.7510   16.8150   35.7910 C.3   267  LEU267      0.0022
     88  CD1       69.5040   16.2740   35.1090 C.3   267  LEU267      0.0001
     89  CD2       70.3690   17.1530   37.2280 C.3   267  LEU267      0.0001
     90  N         76.2860   19.9420   36.9280 N.3   270  SER270     -0.1217
     91  CA        76.2740   20.8930   35.8280 C.3   270  SER270      0.1889
     92  C         76.1330   22.3450   36.2410 C.2   270  SER270      0.2288
     93  O         75.8770   22.6550   37.4150 O.2   270  SER270     -0.2866
     94  CB        75.1360   20.5160   34.8390 C.3   270  SER270      0.2089
     95  OG        73.8660   20.8290   35.3850 O.3   270  SER270     -0.2183
     96  N         76.6840   23.1590   27.0410 N.3   308  ASP308     -0.1239
     97  CA        76.2170   21.9480   27.7040 C.3   308  ASP308      0.1674
     98  C         75.2830   21.1770   26.7600 C.2   308  ASP308      0.2266
     99  O         74.1120   21.5890   26.5590 O.2   308  ASP308     -0.2867
    100  CB        75.4950   22.2990   29.0390 C.3   308  ASP308      0.1410
    101  CG        75.1610   21.0820   29.8830 C.2   308  ASP308      0.3668
    102  OD1       75.0990   19.9600   29.2810 O.co2 308  ASP308     -0.2456
    103  OD2       74.9530   21.2500   31.1450 O.co2 308  ASP308     -0.2456
    104  N         73.7510   18.5230   27.1340 N.3   310  TYR310     -0.1241
    105  CA        72.6020   17.8930   27.7810 C.3   310  TYR310      0.1605
    106  C         71.5040   18.8990   28.1610 C.2   310  TYR310      0.2264
    107  O         70.4140   18.4900   28.5910 O.2   310  TYR310     -0.2867
    108  CB        73.0070   17.0980   29.0710 C.3   310  TYR310      0.0534
    109  CG        73.7520   15.8290   28.7070 C.ar  310  TYR310     -0.0201
    110  CD1       75.1190   15.8830   28.3560 C.ar  310  TYR310     -0.0009
    111  CD2       73.0980   14.5930   28.6650 C.ar  310  TYR310     -0.0009
    112  CE1       75.8350   14.7360   28.0200 C.ar  310  TYR310      0.0417
    113  CE2       73.7890   13.4360   28.2850 C.ar  310  TYR310      0.0417
    114  CZ        75.1560   13.5130   27.9400 C.ar  310  TYR310      0.1957
    115  OH        75.8220   12.3680   27.6260 O.3   310  TYR310     -0.2866
    116  N         67.3770   18.6760   30.1440 N.3   314  TYR314     -0.1241
    117  CA        67.3410   18.7410   31.6340 C.3   314  TYR314      0.1605
    118  C         65.9180   18.7910   32.2140 C.2   314  TYR314      0.2264
    119  O         65.7320   18.3780   33.3720 O.2   314  TYR314     -0.2867
    120  CB        68.1700   19.8970   32.1650 C.3   314  TYR314      0.0534
    121  CG        69.6460   19.6720   32.1450 C.ar  314  TYR314     -0.0201
    122  CD1       70.2170   18.3820   32.2060 C.ar  314  TYR314     -0.0009
    123  CD2       70.5140   20.7710   32.0830 C.ar  314  TYR314     -0.0009
    124  CE1       71.5980   18.2030   32.2150 C.ar  314  TYR314      0.0417
    125  CE2       71.8970   20.6210   32.0860 C.ar  314  TYR314      0.0417
    126  CZ        72.4440   19.3220   32.1610 C.ar  314  TYR314      0.1957
    127  OH        73.7890   19.1430   32.1220 O.3   314  TYR314     -0.2866
    128  N         65.0800   15.1090   32.0710 N.3   317  LEU317     -0.1245
    129  CA        65.8600   14.1980   32.9440 C.3   317  LEU317      0.1561
    130  C         65.5690   14.4390   34.4040 C.2   317  LEU317      0.2260
    131  O         65.5100   13.4660   35.1910 O.2   317  LEU317     -0.2867
    132  CB        67.3820   14.3360   32.6790 C.3   317  LEU317      0.0270
    133  CG        67.8480   13.8120   31.3010 C.3   317  LEU317      0.0019
    134  CD1       69.3140   14.1380   31.0900 C.3   317  LEU317      0.0001
    135  CD2       67.5780   12.3070   31.1980 C.3   317  LEU317      0.0001
    136  N         64.2410   11.3870   36.6930 N.3   321  TYR321     -0.1241
    137  CA        64.9140   10.9050   37.9370 C.3   321  TYR321      0.1605
    138  C         63.9200   10.8680   39.0770 C.2   321  TYR321      0.2264
    139  O         63.9390    9.9110   39.8430 O.2   321  TYR321     -0.2867
    140  CB        66.1240   11.7460   38.2550 C.3   321  TYR321      0.0534
    141  CG        67.3310   11.5110   37.3350 C.ar  321  TYR321     -0.0201
    142  CD1       67.7910   10.2170   36.9920 C.ar  321  TYR321     -0.0009
    143  CD2       68.0460   12.6340   36.8840 C.ar  321  TYR321     -0.0009
    144  CE1       68.8950   10.0840   36.0820 C.ar  321  TYR321      0.0417
    145  CE2       69.1230   12.5490   36.0500 C.ar  321  TYR321      0.0417
    146  CZ        69.5440   11.3110   35.6380 C.ar  321  TYR321      0.1957
    147  OH        70.6730   11.3820   34.8160 O.3   321  TYR321     -0.2866
@<TRIPOS>BOND
     1    35    34    2
     2    34    33    1
     3    33    36    1
     4    33    32    1
     5    36    37    1
     6    37    38    1
     7    38    39    1
     8     4     3    2
     9     3     2    1
    10     3     8   am
    11     2     1    1
    12     2     5    1
    13     9     8    1
    14     9    10    1
    15    26    25    2
    16    39    40    1
    17    25    24    1
    18    10    11    2
    19     5     7    1
    20     5     6    1
    21    99    98    2
    22    98    97    1
    23    96    97    1
    24   104   105    1
    25   115   114    1
    26    97   100    1
    27   105   106    1
    28   105   108    1
    29    24    23    1
    30    24    27    1
    31   114   112   ar
    32   114   113   ar
    33   112   110   ar
    34    60    59    2
    35   106   107    2
    36    56    55    2
    37   113   111   ar
    38   110   109   ar
    39    59    58    1
    40    27    28    1
    41   111   109   ar
    42   109   108    1
    43    55    54    1
    44    12    13    1
    45   100   101    1
    46   102   101   ar
    47    64    63    2
    48    54    53    1
    49    22    20    1
    50   101   103   ar
    51    13    14    1
    52    13    16    1
    53    62    63    1
    54    62    61    1
    55    58    61    1
    56    58    57    1
    57    28    29    1
    58   116   117    1
    59    20    19    2
    60    20    21    1
    61    19    18    1
    62    63    65   am
    63    14    15    2
    64    53    51   am
    65    29    30    1
    66    18    17    1
    67    17    16    1
    68   134   133    1
    69   135   133    1
    70   133   132    1
    71   117   120    1
    72   117   118    1
    73    30    31    1
    74    51    52    2
    75    51    50    1
    76   128   129    1
    77   123   125   ar
    78   123   121   ar
    79   125   126   ar
    80   127   126    1
    81   121   120    1
    82   121   122   ar
    83   126   124   ar
    84   122   124   ar
    85   118   119    2
    86   132   129    1
    87   129   130    1
    88    50    49    1
    89    80    79    2
    90    49    43   am
    91    79    78    1
    92    79    81   am
    93    78    75    1
    94   130   131    2
    95    71    70    1
    96    71    72    1
    97    44    43    2
    98   147   146    1
    99    94    95    1
   100    94    91    1
   101    43    42    1
   102    88    87    1
   103    70    68   am
   104    73    72    2
   105   146   145   ar
   106   146   144   ar
   107    86    83    1
   108    86    87    1
   109    77    76    2
   110    76    75    1
   111    76    82   am
   112    75    74    1
   113    82    83    1
   114    83    84    1
   115    87    89    1
   116    91    92    1
   117    91    90    1
   118   145   143   ar
   119    68    67    1
   120    68    69    2
   121   144   142   ar
   122    92    93    2
   123    67    66    1
   124    42    45    1
   125    42    41    1
   126   136   137    1
   127    45    46    1
   128   143   141   ar
   129   142   141   ar
   130    85    84    2
   131   141   140    1
   132   137   140    1
   133   137   138    1
   134    46    47    1
   135    47    48    1
   136   138   139    2
