@<TRIPOS>MOLECULE
tmp/4brwA01.pdb
 105 98 0 0 0
SMALL
GASTEIGER

@<TRIPOS>ATOM
      1  N         16.8210  -31.9560    4.3890 N.3    47  ASN47      -0.1225
      2  CA        17.9460  -32.5410    5.1030 C.3    47  ASN47       0.1785
      3  C         18.9070  -31.5010    5.6640 C.2    47  ASN47       0.2598
      4  O         19.1510  -30.4620    5.0470 O.2    47  ASN47      -0.2718
      5  CB        18.6910  -33.5370    4.2170 C.3    47  ASN47       0.1169
      6  CG        17.9070  -34.8150    3.9910 C.2    47  ASN47       0.2627
      7  OD1       17.9740  -35.7470    4.7880 O.2    47  ASN47      -0.2716
      8  ND2       17.1760  -34.8720    2.8930 N.am   47  ASN47      -0.0877
      9  N         19.4400  -31.7900    6.8450 N.am   48  GLY48      -0.1942
     10  CA        20.3850  -30.9080    7.4950 C.3    48  GLY48       0.2014
     11  C         20.9980  -31.5740    8.7080 C.2    48  GLY48       0.2639
     12  O         20.6110  -32.6820    9.0860 O.2    48  GLY48      -0.2714
     13  N         21.9720  -30.9000    9.3050 N.am   49  THR49      -0.1950
     14  CA        22.5740  -31.3650   10.5410 C.3    49  THR49       0.1897
     15  C         21.5560  -31.2170   11.6600 C.2    49  THR49       0.2313
     16  O         21.4920  -32.0430   12.5690 O.2    49  THR49      -0.2863
     17  CB        23.8420  -30.5660   10.8600 C.3    49  THR49       0.1794
     18  OG1       24.8980  -31.0000    9.9940 O.3    49  THR49      -0.2208
     19  CG2       24.2620  -30.7800   12.2900 C.3    49  THR49       0.0378
     20  N         19.0460  -34.1680   11.5170 N.3    52  THR52      -0.1218
     21  CA        19.7450  -35.3340   12.0250 C.3    52  THR52       0.1862
     22  C         19.8450  -35.2360   13.5400 C.2    52  THR52       0.2287
     23  O         19.7170  -36.2310   14.2390 O.2    52  THR52      -0.2866
     24  CB        21.1370  -35.4710   11.3950 C.3    52  THR52       0.1770
     25  OG1       20.9950  -35.6160    9.9760 O.3    52  THR52      -0.2211
     26  CG2       21.8640  -36.6890   11.9520 C.3    52  THR52       0.0375
     27  N         27.8930  -42.5470    2.9710 N.3    80  GLU80      -0.1231
     28  CA        28.2300  -41.1660    3.2950 C.3    80  GLU80       0.1699
     29  C         27.3240  -40.6500    4.4070 C.2    80  GLU80       0.2592
     30  O         27.7950  -40.0890    5.4010 O.2    80  GLU80      -0.2718
     31  CB        28.0920  -40.2730    2.0580 C.3    80  GLU80       0.0402
     32  CG        28.8940  -40.7320    0.8440 C.3    80  GLU80       0.1161
     33  CD        28.1780  -41.7960    0.0270 C.2    80  GLU80       0.3649
     34  OE1       28.3600  -42.9970    0.3170 O.co2  80  GLU80      -0.2457
     35  OE2       27.4350  -41.4280   -0.9080 O.co2  80  GLU80      -0.2457
     36  N         26.0220  -40.8590    4.2360 N.am   81  LEU81      -0.1980
     37  CA        25.0410  -40.4400    5.2260 C.3    81  LEU81       0.1596
     38  C         25.2120  -41.2030    6.5380 C.2    81  LEU81       0.2287
     39  O         24.9420  -40.6680    7.6110 O.2    81  LEU81      -0.2864
     40  CB        23.6190  -40.6090    4.6840 C.3    81  LEU81       0.0297
     41  CG        22.4850  -40.1180    5.5890 C.3    81  LEU81       0.0022
     42  CD1       22.7490  -38.7000    6.0690 C.3    81  LEU81       0.0001
     43  CD2       21.1520  -40.2000    4.8700 C.3    81  LEU81       0.0001
     44  N         28.1490  -42.2860    7.7530 N.3    83  LEU83      -0.1231
     45  CA        29.2990  -41.6370    8.3690 C.3    83  LEU83       0.1693
     46  C         28.8970  -40.3140    9.0040 C.2    83  LEU83       0.2591
     47  O         29.1970  -40.0650   10.1700 O.2    83  LEU83      -0.2718
     48  CB        30.4070  -41.4080    7.3380 C.3    83  LEU83       0.0284
     49  CG        31.0310  -42.6470    6.6900 C.3    83  LEU83       0.0019
     50  CD1       32.0710  -42.2380    5.6610 C.3    83  LEU83       0.0001
     51  CD2       31.6410  -43.5670    7.7380 C.3    83  LEU83       0.0001
     52  N         28.2100  -39.4740    8.2350 N.am   84  GLN84      -0.1979
     53  CA        27.7630  -38.1730    8.7260 C.3    84  GLN84       0.1601
     54  C         26.8950  -38.3060    9.9780 C.2    84  GLN84       0.2287
     55  O         27.1200  -37.6230   10.9870 O.2    84  GLN84      -0.2864
     56  CB        27.0000  -37.4320    7.6270 C.3    84  GLN84       0.0394
     57  CG        27.8450  -37.0960    6.4060 C.3    84  GLN84       0.0908
     58  CD        27.0680  -36.3530    5.3360 C.2    84  GLN84       0.2608
     59  OE1       26.0690  -36.8530    4.8190 O.2    84  GLN84      -0.2717
     60  NE2       27.5260  -35.1520    4.9980 N.am   84  GLN84      -0.0878
     61  N         28.8150  -39.3700   12.9690 N.3    87  GLN87      -0.1231
     62  CA        29.5940  -38.2210   13.4130 C.3    87  GLN87       0.1698
     63  C         28.7350  -37.3390   14.3080 C.2    87  GLN87       0.2592
     64  O         29.1700  -36.9260   15.3850 O.2    87  GLN87      -0.2718
     65  CB        30.1180  -37.4170   12.2210 C.3    87  GLN87       0.0381
     66  CG        31.2240  -38.1060   11.4320 C.3    87  GLN87       0.0905
     67  CD        32.5980  -37.5430   11.7300 C.2    87  GLN87       0.2608
     68  OE1       32.7890  -36.8290   12.7150 O.2    87  GLN87      -0.2717
     69  NE2       33.5630  -37.8550   10.8730 N.am   87  GLN87      -0.0878
     70  N         27.5110  -37.0630   13.8620 N.am   88  VAL88      -0.1980
     71  CA        26.5840  -36.2620   14.6580 C.3    88  VAL88       0.1595
     72  C         26.3110  -36.9230   16.0110 C.2    88  VAL88       0.2287
     73  O         26.3230  -36.2580   17.0530 O.2    88  VAL88      -0.2864
     74  CB        25.2510  -36.0190   13.9180 C.3    88  VAL88       0.0276
     75  CG1       24.2950  -35.2190   14.7890 C.3    88  VAL88       0.0022
     76  CG2       25.4980  -35.3010   12.6010 C.3    88  VAL88       0.0022
     77  N         16.2980  -42.4160    8.1270 N.3   150  ASP150     -0.1239
     78  CA        16.5320  -41.1290    7.4890 C.3   150  ASP150      0.1674
     79  C         16.6300  -41.3630    5.9890 C.2   150  ASP150      0.2266
     80  O         17.1180  -42.4100    5.5600 O.2   150  ASP150     -0.2867
     81  CB        17.8080  -40.4760    8.0160 C.3   150  ASP150      0.1410
     82  CG        17.9780  -39.0570    7.5170 C.2   150  ASP150      0.3668
     83  OD1       16.9500  -38.4020    7.2520 O.co2 150  ASP150     -0.2456
     84  OD2       19.1330  -38.5980    7.3860 O.co2 150  ASP150     -0.2456
     85  N         25.5600  -27.6460   -4.2270 N.3   351  TYR351     -0.1241
     86  CA        25.8150  -28.7460   -3.3090 C.3   351  TYR351      0.1605
     87  C         24.7220  -28.7940   -2.2450 C.2   351  TYR351      0.2264
     88  O         23.9660  -29.7690   -2.1560 O.2   351  TYR351     -0.2867
     89  CB        27.2030  -28.5660   -2.6800 C.3   351  TYR351      0.0534
     90  CG        27.4350  -29.2840   -1.3670 C.ar  351  TYR351     -0.0201
     91  CD1       27.8110  -30.6210   -1.3370 C.ar  351  TYR351     -0.0009
     92  CD2       27.3120  -28.6100   -0.1580 C.ar  351  TYR351     -0.0009
     93  CE1       28.0350  -31.2720   -0.1370 C.ar  351  TYR351      0.0417
     94  CE2       27.5300  -29.2510    1.0450 C.ar  351  TYR351      0.0417
     95  CZ        27.8920  -30.5810    1.0510 C.ar  351  TYR351      0.1957
     96  OH        28.1100  -31.2150    2.2540 O.3   351  TYR351     -0.2866
     97  N         21.8380  -31.6000   -1.3240 N.3   355  GLN355     -0.1245
     98  CA        21.8560  -32.3400   -0.0730 C.3   355  GLN355      0.1566
     99  C         20.5300  -32.1790    0.6570 C.2   355  GLN355      0.2260
    100  O         19.9880  -33.1470    1.1930 O.2   355  GLN355     -0.2867
    101  CB        23.0080  -31.8650    0.8170 C.3   355  GLN355      0.0367
    102  CG        24.3860  -32.1290    0.2370 C.3   355  GLN355      0.0905
    103  CD        24.6750  -33.6090    0.0840 C.2   355  GLN355      0.2608
    104  OE1       24.3460  -34.4090    0.9580 O.2   355  GLN355     -0.2717
    105  NE2       25.2890  -33.9810   -1.0340 N.am  355  GLN355     -0.0878
@<TRIPOS>BOND
     1    85    86    1
     2    86    89    1
     3    86    87    1
     4    89    90    1
     5    87    88    2
     6    90    91   ar
     7    90    92   ar
     8    91    93   ar
     9    97    98    1
    10   105   103   am
    11    35    33   ar
    12    92    94   ar
    13    93    95   ar
    14    98    99    1
    15    98   101    1
    16    33    34   ar
    17    33    32    1
    18   103   102    1
    19   103   104    2
    20   102   101    1
    21    99   100    2
    22    32    31    1
    23    94    95   ar
    24    95    96    1
    25    31    28    1
    26     8     6   am
    27    27    28    1
    28    28    29    1
    29     6     5    1
    30     6     7    2
    31     5     2    1
    32    36    29   am
    33    36    37    1
    34     1     2    1
    35    29    30    2
    36    40    37    1
    37    40    41    1
    38    59    58    2
    39    43    41    1
    40    60    58   am
    41     4     3    2
    42     2     3    1
    43    37    38    1
    44    58    57    1
    45    80    79    2
    46    41    42    1
    47    50    49    1
    48     3     9   am
    49    79    78    1
    50    57    56    1
    51    38    39    2
    52    49    48    1
    53    49    51    1
    54     9    10    1
    55    83    82   ar
    56    48    45    1
    57    84    82   ar
    58    78    81    1
    59    78    77    1
    60    10    11    1
    61    82    81    1
    62    56    53    1
    63    44    45    1
    64    52    53    1
    65    52    46   am
    66    45    46    1
    67    11    12    2
    68    11    13   am
    69    53    54    1
    70    46    47    2
    71    13    14    1
    72    25    24    1
    73    54    55    2
    74    18    17    1
    75    14    17    1
    76    14    15    1
    77    17    19    1
    78    69    67   am
    79    24    26    1
    80    24    21    1
    81    66    67    1
    82    66    65    1
    83    20    21    1
    84    15    16    2
    85    67    68    2
    86    21    22    1
    87    65    62    1
    88    76    74    1
    89    61    62    1
    90    62    63    1
    91    22    23    2
    92    70    63   am
    93    70    71    1
    94    74    71    1
    95    74    75    1
    96    63    64    2
    97    71    72    1
    98    72    73    2
