@<TRIPOS>MOLECULE
tmp/4brxA00.pdb
 170 159 0 0 0
SMALL
GASTEIGER

@<TRIPOS>ATOM
      1  N        -13.0350    9.5560    5.0190 N.3    14  ARG14      -0.1231
      2  CA       -11.6940    8.9770    5.0380 C.3    14  ARG14       0.1694
      3  C        -10.7970    9.3160    3.8160 C.2    14  ARG14       0.2592
      4  O        -11.2900    9.5730    2.7110 O.2    14  ARG14      -0.2718
      5  CB       -11.7760    7.4680    5.2550 C.3    14  ARG14       0.0321
      6  CG       -12.1270    6.6840    4.0060 C.3    14  ARG14       0.0489
      7  CD       -12.2420    5.2090    4.3220 C.3    14  ARG14       0.2205
      8  NE       -13.2770    4.9540    5.3310 N.pl3  14  ARG14      -0.0865
      9  CZ       -13.8640    3.7730    5.5060 C.cat  14  ARG14       0.5346
     10  NH1      -13.5290    2.7440    4.7280 N.pl3  14  ARG14       0.1354
     11  NH2      -14.7970    3.6220    6.4310 N.pl3  14  ARG14       0.1354
     12  N         -9.4850    9.3340    4.0520 N.am   15  CYS15      -0.1956
     13  CA        -8.4980    9.4690    2.9850 C.3    15  CYS15       0.1843
     14  C         -8.6130    8.2400    2.0820 C.2    15  CYS15       0.2625
     15  O         -8.6130    7.1130    2.5600 O.2    15  CYS15      -0.2714
     16  CB        -7.0850    9.5850    3.5780 C.3    15  CYS15       0.0997
     17  SG        -5.7270    9.7990    2.3980 S.3    15  CYS15      -0.0797
     18  N         -8.7350    8.4590    0.7860 N.am   16  ILE16      -0.1963
     19  CA        -8.8200    7.3650   -0.1570 C.3    16  ILE16       0.1727
     20  C         -7.6390    7.3930   -1.1300 C.2    16  ILE16       0.2617
     21  O         -7.6450    6.6530   -2.1220 O.2    16  ILE16      -0.2715
     22  CB       -10.1640    7.3950   -0.9290 C.3    16  ILE16       0.0290
     23  CG1      -10.3460    8.7520   -1.6380 C.3    16  ILE16       0.0022
     24  CG2      -11.3210    7.1020    0.0250 C.3    16  ILE16       0.0023
     25  CD1      -11.6390    8.9210   -2.4070 C.3    16  ILE16       0.0001
     26  N         -6.6360    8.2380   -0.8440 N.am   17  GLY17      -0.1940
     27  CA        -5.4270    8.3540   -1.6940 C.3    17  GLY17       0.2014
     28  C         -4.7700    9.7280   -1.6420 C.2    17  GLY17       0.2638
     29  O         -5.0540   10.5150   -0.7400 O.2    17  GLY17      -0.2714
     30  N         -3.9140   10.0240   -2.6190 N.am   18  GLU18      -0.1977
     31  CA        -3.1900   11.2920   -2.6620 C.3    18  GLU18       0.1602
     32  C         -2.6790   11.6450   -4.0470 C.2    18  GLU18       0.2287
     33  O         -2.4660   10.7610   -4.8900 O.2    18  GLU18      -0.2864
     34  CB        -1.9890   11.2420   -1.7140 C.3    18  GLU18       0.0415
     35  CG        -0.9770   10.1700   -2.0950 C.3    18  GLU18       0.1163
     36  CD         0.3230   10.2590   -1.3000 C.2    18  GLU18       0.3649
     37  OE1        0.2970   10.8120   -0.1750 O.co2  18  GLU18      -0.2457
     38  OE2        1.3680    9.7650   -1.8060 O.co2  18  GLU18      -0.2457
     39  N         -6.6110   12.9750   -1.0350 N.3    24  VAL24      -0.1245
     40  CA        -7.9340   12.8510   -1.5930 C.3    24  VAL24       0.1561
     41  C         -8.7960   12.1330   -0.5610 C.2    24  VAL24       0.2260
     42  O         -8.3900   11.1150   -0.0030 O.2    24  VAL24      -0.2867
     43  CB        -7.9400   12.0610   -2.8890 C.3    24  VAL24       0.0252
     44  CG1       -9.3050   12.2090   -3.5730 C.3    24  VAL24       0.0019
     45  CG2       -6.8230   12.5340   -3.8070 C.3    24  VAL24       0.0019
     46  N        -12.8450   10.6850    0.5680 N.3    26  GLN26      -0.1245
     47  CA       -14.2740   10.6070    0.3130 C.3    26  GLN26       0.1566
     48  C        -15.0080   11.4450    1.3840 C.2    26  GLN26       0.2260
     49  O        -14.5050   11.6390    2.5100 O.2    26  GLN26      -0.2867
     50  CB       -14.7790    9.1630    0.2960 C.3    26  GLN26       0.0367
     51  CG       -14.4970    8.3690    1.5590 C.3    26  GLN26       0.0905
     52  CD       -15.2880    7.0850    1.6260 C.2    26  GLN26       0.2608
     53  OE1      -16.0350    6.8560    2.5690 O.2    26  GLN26      -0.2717
     54  NE2      -15.1360    6.2550    0.6350 N.am   26  GLN26      -0.0878
     55  N        -15.9170   12.8710   -3.8140 N.3    40  ALA40      -0.1245
     56  CA       -14.4780   12.8260   -3.6280 C.3    40  ALA40       0.1562
     57  C        -14.0620   14.2630   -3.4230 C.2    40  ALA40       0.2260
     58  O        -14.6210   15.1800   -4.0730 O.2    40  ALA40      -0.2867
     59  CB       -13.7790   12.2380   -4.8640 C.3    40  ALA40       0.0290
     60  N        -15.5340   11.3680  -14.5640 N.3    72  VAL72      -0.1245
     61  CA       -15.9920   11.8960  -13.2680 C.3    72  VAL72       0.1561
     62  C        -16.2490   13.3850  -13.4180 C.2    72  VAL72       0.2260
     63  O        -15.5390   14.0730  -14.1660 O.2    72  VAL72      -0.2867
     64  CB       -14.9910   11.6440  -12.1000 C.3    72  VAL72       0.0252
     65  CG1      -14.9590   10.1740  -11.7200 C.3    72  VAL72       0.0019
     66  CG2      -13.5850   12.0920  -12.4650 C.3    72  VAL72       0.0019
     67  N        -15.4350   16.5580   -6.2420 N.3    87  MET87      -0.1230
     68  CA       -15.7060   15.7370   -7.4280 C.3    87  MET87       0.1702
     69  C        -16.7490   14.6830   -7.0920 C.2    87  MET87       0.2592
     70  O        -16.9440   14.3150   -5.9020 O.2    87  MET87      -0.2718
     71  CB       -14.4220   14.9880   -7.8980 C.3    87  MET87       0.0401
     72  CG       -13.1940   15.8710   -8.1530 C.3    87  MET87       0.0596
     73  SD       -13.3870   16.9860   -9.5710 S.3    87  MET87      -0.1393
     74  CE       -13.3380   15.7520  -10.8920 C.3    87  MET87       0.0692
     75  N        -17.4020   14.1840   -8.1450 N.am   88  GLU88      -0.1966
     76  CA       -18.2620   13.0160   -8.0760 C.3    88  GLU88       0.1733
     77  C        -17.5060   11.8250   -7.4900 C.2    88  GLU88       0.2616
     78  O        -16.3760   11.5970   -7.8590 O.2    88  GLU88      -0.2715
     79  CB       -18.7240   12.6790   -9.5060 C.3    88  GLU88       0.0429
     80  CG       -19.4580   11.3580   -9.6530 C.3    88  GLU88       0.1163
     81  CD       -19.6880   10.9820  -11.1180 C.2    88  GLU88       0.3649
     82  OE1      -19.2850   11.7560  -12.0320 O.co2  88  GLU88      -0.2457
     83  OE2      -20.2580    9.9070  -11.3540 O.co2  88  GLU88      -0.2457
     84  N        -18.1400   11.0560   -6.6110 N.am   89  LEU89      -0.1963
     85  CA       -17.5010    9.8660   -6.0630 C.3    89  LEU89       0.1728
     86  C        -17.9670    8.6440   -6.8450 C.2    89  LEU89       0.2616
     87  O        -19.1310    8.5390   -7.2110 O.2    89  LEU89      -0.2715
     88  CB       -17.7460    9.7160   -4.5310 C.3    89  LEU89       0.0311
     89  CG       -16.9190    8.6580   -3.7750 C.3    89  LEU89       0.0022
     90  CD1      -15.4770    9.0560   -3.4830 C.3    89  LEU89       0.0001
     91  CD2      -17.6170    8.2140   -2.4820 C.3    89  LEU89       0.0001
     92  N        -17.0250    7.7750   -7.1990 N.am   90  CYS90      -0.1954
     93  CA       -17.3530    6.4400   -7.6980 C.3    90  CYS90       0.1843
     94  C        -17.1610    5.5020   -6.5180 C.2    90  CYS90       0.2626
     95  O        -16.0360    5.2480   -6.0990 O.2    90  CYS90      -0.2714
     96  CB       -16.4170    6.0460   -8.8260 C.3    90  CYS90       0.0997
     97  SG       -16.3430    7.2270  -10.1850 S.3    90  CYS90      -0.0797
     98  N        -18.2570    4.9950   -5.9730 N.am   91  THR91      -0.1950
     99  CA       -18.2500    4.3710   -4.6410 C.3    91  THR91       0.1897
    100  C        -17.5330    2.9920   -4.5780 C.2    91  THR91       0.2313
    101  O        -17.1470    2.5340   -3.5040 O.2    91  THR91      -0.2863
    102  CB       -19.7090    4.3100   -4.0470 C.3    91  THR91       0.1794
    103  OG1      -19.6730    3.9920   -2.6510 O.3    91  THR91      -0.2208
    104  CG2      -20.5950    3.2660   -4.7780 C.3    91  THR91       0.0378
    105  N        -14.6290    2.2920   -6.0630 N.3    93  GLY93      -0.1210
    106  CA       -13.1850    2.4740   -5.9790 C.3    93  GLY93       0.1956
    107  C        -12.4810    2.2560   -7.3040 C.2    93  GLY93       0.2611
    108  O        -13.0440    2.5390   -8.3680 O.2    93  GLY93      -0.2717
    109  N        -11.2480    1.7700   -7.2280 N.am   94  GLU94      -0.1979
    110  CA       -10.3540    1.6080   -8.4030 C.3    94  GLU94       0.1602
    111  C        -10.6770    0.3490   -9.2080 C.2    94  GLU94       0.2287
    112  O        -11.0210   -0.6890   -8.6180 O.2    94  GLU94      -0.2864
    113  CB        -8.8910    1.5710   -7.9240 C.3    94  GLU94       0.0415
    114  CG        -8.4950    2.8440   -7.1660 C.3    94  GLU94       0.1163
    115  CD        -7.1710    2.7580   -6.4030 C.2    94  GLU94       0.3649
    116  OE1       -6.8370    1.6790   -5.8430 O.co2  94  GLU94      -0.2457
    117  OE2       -6.4790    3.8030   -6.3400 O.co2  94  GLU94      -0.2457
    118  N         -5.2340    1.7430  -13.8490 N.3   138  ARG138     -0.1231
    119  CA        -4.9630    2.4180  -12.5750 C.3   138  ARG138      0.1694
    120  C         -5.7440    3.7300  -12.4020 C.2   138  ARG138      0.2592
    121  O         -5.8410    4.2580  -11.2940 O.2   138  ARG138     -0.2718
    122  CB        -3.4460    2.6990  -12.4140 C.3   138  ARG138      0.0321
    123  CG        -2.8600    3.7390  -13.3860 C.3   138  ARG138      0.0489
    124  CD        -1.3660    4.0480  -13.1760 C.3   138  ARG138      0.2205
    125  NE        -0.9410    5.1790  -14.0190 N.pl3 138  ARG138     -0.0865
    126  CZ        -0.2840    5.0630  -15.1720 C.cat 138  ARG138      0.5346
    127  NH1        0.0670    3.8620  -15.6210 N.pl3 138  ARG138      0.1354
    128  NH2        0.0260    6.1530  -15.8760 N.pl3 138  ARG138      0.1354
    129  N         -6.2530    4.2740  -13.5140 N.am  139  ASN139     -0.1974
    130  CA        -6.9040    5.5820  -13.5280 C.3   139  ASN139      0.1688
    131  C         -8.3820    5.4850  -13.8090 C.2   139  ASN139      0.2292
    132  O         -9.0230    6.4900  -13.9200 O.2   139  ASN139     -0.2864
    133  CB        -6.2590    6.5120  -14.5780 C.3   139  ASN139      0.1181
    134  CG        -4.8580    6.8890  -14.2170 C.2   139  ASN139      0.2629
    135  OD1       -4.5230    7.0550  -13.0340 O.2   139  ASN139     -0.2716
    136  ND2       -4.0030    7.0110  -15.2290 N.am  139  ASN139     -0.0877
    137  N        -12.1560    4.2480  -12.5170 N.3   141  LEU141     -0.1245
    138  CA       -12.8830    4.0440  -11.2510 C.3   141  LEU141      0.1561
    139  C        -14.1960    3.3840  -11.5410 C.2   141  LEU141      0.2260
    140  O        -14.6910    3.4420  -12.6760 O.2   141  LEU141     -0.2867
    141  CB       -13.0990    5.3780  -10.4840 C.3   141  LEU141      0.0270
    142  CG       -11.8210    6.2130  -10.3070 C.3   141  LEU141      0.0019
    143  CD1      -12.1240    7.6140   -9.8280 C.3   141  LEU141      0.0001
    144  CD2      -10.8360    5.5510   -9.3590 C.3   141  LEU141      0.0001
    145  N        -11.1080    8.6220  -14.0970 N.3   151  GLY151     -0.1210
    146  CA       -11.0160    9.4970  -12.9520 C.3   151  GLY151      0.1956
    147  C        -10.4130   10.8600  -13.2510 C.2   151  GLY151      0.2611
    148  O        -10.1710   11.2380  -14.4180 O.2   151  GLY151     -0.2717
    149  N        -10.1640   11.6080  -12.1690 N.am  152  ASP152     -0.1973
    150  CA        -9.6710   12.9710  -12.2750 C.3   152  ASP152      0.1709
    151  C         -8.4220   13.0300  -13.1630 C.2   152  ASP152      0.2293
    152  O         -7.5600   12.1510  -13.0990 O.2   152  ASP152     -0.2864
    153  CB        -9.3700   13.5140  -10.8890 C.3   152  ASP152      0.1436
    154  CG        -9.0180   14.9660  -10.9110 C.2   152  ASP152      0.3671
    155  OD1       -9.9270   15.7860  -11.1490 O.co2 152  ASP152     -0.2456
    156  OD2       -7.8440   15.3010  -10.6690 O.co2 152  ASP152     -0.2456
    157  N         -5.1720   13.7320  -10.9260 N.3   155  LEU155     -0.1231
    158  CA        -4.7240   12.5980  -10.0970 C.3   155  LEU155      0.1693
    159  C         -4.2010   11.4180  -10.9320 C.2   155  LEU155      0.2592
    160  O         -3.5130   10.5420  -10.4100 O.2   155  LEU155     -0.2718
    161  CB        -5.8530   12.1140   -9.1630 C.3   155  LEU155      0.0284
    162  CG        -6.3510   13.1420   -8.1300 C.3   155  LEU155      0.0019
    163  CD1       -7.6120   12.6460   -7.4210 C.3   155  LEU155      0.0001
    164  CD2       -5.2630   13.5410   -7.1380 C.3   155  LEU155      0.0001
    165  N         -4.5810   11.3940  -12.2080 N.am  156  SER156     -0.1952
    166  CA        -4.1300   10.4160  -13.1850 C.3   156  SER156      0.1924
    167  C         -2.6610   10.6020  -13.6220 C.2   156  SER156      0.2314
    168  O         -2.0730    9.6900  -14.2250 O.2   156  SER156     -0.2863
    169  CB        -5.0130   10.4990  -14.4460 C.3   156  SER156      0.2116
    170  OG        -6.3690   10.1800  -14.1880 O.3   156  SER156     -0.2180
@<TRIPOS>BOND
     1   128   126    1
     2   127   126    1
     3   136   134   am
     4   126   125    2
     5   133   134    1
     6   133   130    1
     7    60    61    1
     8   169   170    1
     9   169   166    1
    10   148   147    2
    11   168   167    2
    12   134   135    2
    13    63    62    2
    14   145   146    1
    15   125   124    1
    16   132   131    2
    17   118   119    1
    18   131   130    1
    19   167   166    1
    20   130   129    1
    21   129   120   am
    22    62    61    1
    23   123   124    1
    24   123   122    1
    25    61    64    1
    26   147   146    1
    27   147   149   am
    28   166   165    1
    29   151   152    2
    30   151   150    1
    31   140   139    2
    32   119   122    1
    33   119   120    1
    34   137   138    1
    35    66    64    1
    36   120   121    2
    37   150   149    1
    38   150   153    1
    39   165   159   am
    40    64    65    1
    41    82    81   ar
    42   139   138    1
    43    83    81   ar
    44   138   141    1
    45   155   154   ar
    46    81    80    1
    47   159   160    2
    48   159   158    1
    49   157   158    1
    50   154   153    1
    51   154   156   ar
    52    74    73    1
    53   141   142    1
    54   142   143    1
    55   142   144    1
    56    97    96    1
    57   158   161    1
    58    80    79    1
    59    73    72    1
    60    79    76    1
    61   111   112    2
    62   111   110    1
    63   161   162    1
    64    96    93    1
    65   110   113    1
    66   110   109    1
    67   108   107    2
    68    72    71    1
    69    75    76    1
    70    75    69   am
    71   162   163    1
    72   162   164    1
    73    76    77    1
    74   113   114    1
    75    71    68    1
    76    78    77    2
    77    93    92    1
    78    93    94    1
    79    77    84   am
    80    68    69    1
    81    68    67    1
    82   107   109   am
    83   107   106    1
    84    87    86    2
    85    92    86   am
    86   114   115    1
    87    69    70    2
    88    86    85    1
    89    84    85    1
    90    94    95    2
    91    94    98   am
    92   115   117   ar
    93   115   116   ar
    94    85    88    1
    95   105   106    1
    96    98    99    1
    97    33    32    2
    98    59    56    1
    99   104   102    1
   100    99   100    1
   101    99   102    1
   102   100   101    2
   103    88    89    1
   104    58    57    2
   105   102   103    1
   106    32    31    1
   107    55    56    1
   108    45    43    1
   109    89    90    1
   110    89    91    1
   111    56    57    1
   112    44    43    1
   113    43    40    1
   114    31    30    1
   115    31    34    1
   116    30    28   am
   117    25    23    1
   118    21    20    2
   119    35    34    1
   120    35    36    1
   121    38    36   ar
   122    27    28    1
   123    27    26    1
   124    28    29    2
   125    23    22    1
   126    40    39    1
   127    40    41    1
   128    36    37   ar
   129    20    26   am
   130    20    19    1
   131    22    19    1
   132    22    24    1
   133    41    42    2
   134    19    18    1
   135    50    47    1
   136    50    51    1
   137    47    46    1
   138    47    48    1
   139    54    52   am
   140    18    14   am
   141    48    49    2
   142    51    52    1
   143    52    53    2
   144    14    15    2
   145    14    13    1
   146    17    16    1
   147     4     3    2
   148    13    16    1
   149    13    12    1
   150     3    12   am
   151     3     2    1
   152     6     7    1
   153     6     5    1
   154     7     8    1
   155    10     9    1
   156     1     2    1
   157     2     5    1
   158     8     9    2
   159     9    11    1
