@<TRIPOS>MOLECULE
tmp/4bs4A00.pdb
 152 153 0 0 0
SMALL
GASTEIGER

@<TRIPOS>ATOM
      1  N        -36.4190   -7.2760   17.3190 N.3    80  HIS80      -0.1226
      2  CA       -36.7740   -7.4580   15.9330 C.3    80  HIS80       0.1752
      3  C        -35.5320   -7.6550   15.0940 C.2    80  HIS80       0.2597
      4  O        -34.6330   -6.8350   15.1280 O.2    80  HIS80      -0.2718
      5  CB       -37.6110   -6.2790   15.3870 C.3    80  HIS80       0.0759
      6  CG       -38.1630   -6.5470   14.0000 C.ar   80  HIS80       0.0818
      7  ND1      -39.3000   -7.2900   13.7790 N.ar   80  HIS80      -0.2268
      8  CD2      -37.6680   -6.2000   12.7200 C.ar   80  HIS80       0.1154
      9  CE1      -39.5240   -7.3710   12.4370 C.ar   80  HIS80       0.1986
     10  NE2      -38.5250   -6.7190   11.7940 N.ar   80  HIS80      -0.2212
     11  N        -35.4880   -8.7640   14.3490 N.am   81  GLY81      -0.1942
     12  CA       -34.3660   -9.0690   13.4380 C.3    81  GLY81       0.2014
     13  C        -34.8920   -9.0870   12.0300 C.2    81  GLY81       0.2640
     14  O        -35.9690   -9.6530   11.7800 O.2    81  GLY81      -0.2714
     15  N        -34.1870   -8.4650   11.0980 N.am   82  SER82      -0.1936
     16  CA       -34.6740   -8.3640    9.7470 C.3    82  SER82       0.2043
     17  C        -33.5800   -8.0410    8.7520 C.2    82  SER82       0.2523
     18  O        -32.7180   -7.2160    9.0370 O.2    82  SER82      -0.2726
     19  CB       -35.6900   -7.2300    9.6340 C.3    82  SER82       0.2129
     20  OG       -36.2260   -7.1440    8.3200 O.3    82  SER82      -0.2179
     21  N        -33.7010   -8.5800    7.5310 N.am   83  PRO83      -0.2490
     22  CA       -32.8210   -8.0820    6.4560 C.3    83  PRO83       0.1619
     23  C        -33.0650   -6.6140    6.1610 C.2    83  PRO83       0.2605
     24  O        -32.2210   -5.9590    5.4970 O.2    83  PRO83      -0.2715
     25  CB       -33.1990   -8.9460    5.2290 C.3    83  PRO83       0.0570
     26  CG       -34.1370   -9.9870    5.7160 C.2    83  PRO83      -0.0077
     27  CD       -34.5610   -9.7000    7.1080 C.2    83  PRO83       0.0634
     28  N        -34.1880   -6.0730    6.6380 N.am   84  PHE84      -0.1974
     29  CA       -34.5310   -4.6780    6.3220 C.3    84  PHE84       0.1639
     30  C        -34.2970   -3.6470    7.4310 C.2    84  PHE84       0.2290
     31  O        -34.8860   -2.5710    7.3960 O.2    84  PHE84      -0.2864
     32  CB       -35.9590   -4.5940    5.8210 C.3    84  PHE84       0.0560
     33  CG       -36.2640   -5.5750    4.7330 C.ar   84  PHE84      -0.0200
     34  CD1      -35.5210   -5.5720    3.5570 C.ar   84  PHE84      -0.0042
     35  CD2      -37.2650   -6.5210    4.8870 C.ar   84  PHE84      -0.0042
     36  CE1      -35.7910   -6.4860    2.5440 C.ar   84  PHE84      -0.0003
     37  CE2      -37.5330   -7.4370    3.8820 C.ar   84  PHE84      -0.0003
     38  CZ       -36.7910   -7.4220    2.7180 C.ar   84  PHE84      -0.0000
     39  N        -44.2190   -3.5800    4.3110 N.3    96  ARG96      -0.1231
     40  CA       -43.1300   -4.3510    3.6960 C.3    96  ARG96       0.1694
     41  C        -42.2430   -5.1200    4.6790 C.2    96  ARG96       0.2592
     42  O        -41.4620   -5.9850    4.2760 O.2    96  ARG96      -0.2718
     43  CB       -42.2250   -3.4260    2.9070 C.3    96  ARG96       0.0321
     44  CG       -42.9590   -2.7280    1.7640 C.3    96  ARG96       0.0489
     45  CD       -42.0320   -1.7730    1.0460 C.3    96  ARG96       0.2205
     46  NE       -41.1140   -1.1290    1.9950 N.pl3  96  ARG96      -0.0865
     47  CZ       -41.2080    0.1210    2.4620 C.cat  96  ARG96       0.5346
     48  NH1      -42.1780    0.9530    2.0740 N.pl3  96  ARG96       0.1354
     49  NH2      -40.3000    0.5470    3.3320 N.pl3  96  ARG96       0.1354
     50  N        -42.3350   -4.7660    5.9560 N.am   97  HIS97      -0.1962
     51  CA       -41.6160   -5.5030    7.0310 C.3    97  HIS97       0.1787
     52  C        -42.4300   -6.6060    7.7120 C.2    97  HIS97       0.2620
     53  O        -41.9160   -7.3120    8.6040 O.2    97  HIS97      -0.2715
     54  CB       -41.0760   -4.4750    8.0310 C.3    97  HIS97       0.0785
     55  CG       -40.3930   -3.3070    7.3510 C.ar   97  HIS97       0.0821
     56  ND1      -40.8030   -2.0340    7.5190 N.ar   97  HIS97      -0.2267
     57  CD2      -39.3770   -3.2740    6.4160 C.ar   97  HIS97       0.1154
     58  CE1      -40.0630   -1.2180    6.6990 C.ar   97  HIS97       0.1986
     59  NE2      -39.2010   -1.9780    6.0360 N.ar   97  HIS97      -0.2212
     60  N        -43.6570   -6.8280    7.2450 N.am   98  ALA98      -0.1963
     61  CA       -44.5580   -7.8600    7.7970 C.3    98  ALA98       0.1728
     62  C        -44.1500   -9.2510    7.3840 C.2    98  ALA98       0.2616
     63  O        -43.7050   -9.4660    6.2660 O.2    98  ALA98      -0.2715
     64  CB       -46.0040   -7.6180    7.3830 C.3    98  ALA98       0.0334
     65  N        -44.2830  -10.1860    8.3050 N.am   99  TYR99      -0.1974
     66  CA       -44.0610  -11.5960    8.0040 C.3    99  TYR99       0.1639
     67  C        -45.3320  -12.1650    7.3730 C.2    99  TYR99       0.2290
     68  O        -46.2900  -12.5120    8.0670 O.2    99  TYR99      -0.2864
     69  CB       -43.6460  -12.3070    9.2750 C.3    99  TYR99       0.0560
     70  CG       -43.2850  -13.7590    9.1310 C.ar   99  TYR99      -0.0198
     71  CD1      -43.1690  -14.3870    7.8690 C.ar   99  TYR99      -0.0009
     72  CD2      -43.0970  -14.5320   10.2610 C.ar   99  TYR99      -0.0009
     73  CE1      -42.8370  -15.7370    7.7770 C.ar   99  TYR99       0.0417
     74  CE2      -42.7520  -15.8550   10.1760 C.ar   99  TYR99       0.0417
     75  CZ       -42.6510  -16.4610    8.9360 C.ar   99  TYR99       0.1957
     76  OH       -42.3270  -17.8000    8.9060 O.3    99  TYR99      -0.2866
     77  N        -43.5510   -8.9110   13.4320 N.3   109  TYR109     -0.1227
     78  CA       -43.3320   -9.8040   14.5630 C.3   109  TYR109      0.1736
     79  C        -42.1360   -9.3400   15.4090 C.2   109  TYR109      0.2595
     80  O        -41.0970   -8.9420   14.8890 O.2   109  TYR109     -0.2718
     81  CB       -43.0150  -11.2110   14.0670 C.3   109  TYR109      0.0548
     82  CG       -44.2240  -11.9630   13.5950 C.ar  109  TYR109     -0.0200
     83  CD1      -44.9520  -11.5160   12.5060 C.ar  109  TYR109     -0.0009
     84  CD2      -44.6010  -13.1600   14.2090 C.ar  109  TYR109     -0.0009
     85  CE1      -46.0790  -12.2060   12.0650 C.ar  109  TYR109      0.0417
     86  CE2      -45.7180  -13.8440   13.7760 C.ar  109  TYR109      0.0417
     87  CZ       -46.4500  -13.3570   12.6870 C.ar  109  TYR109      0.1957
     88  OH       -47.6050  -14.0340   12.2470 O.3   109  TYR109     -0.2866
     89  N        -42.2960   -9.4990   16.7070 N.am  110  PHE110     -0.1962
     90  CA       -41.3050   -9.1340   17.7110 C.3   110  PHE110      0.1771
     91  C        -41.1460  -10.2710   18.7320 C.2   110  PHE110      0.2619
     92  O        -42.0630  -11.0900   18.9160 O.2   110  PHE110     -0.2715
     93  CB       -41.7660   -7.8760   18.4210 C.3   110  PHE110      0.0574
     94  CG       -41.8510   -6.6880   17.5580 C.ar  110  PHE110     -0.0200
     95  CD1      -42.9980   -6.4190   16.8480 C.ar  110  PHE110     -0.0042
     96  CD2      -40.7590   -5.8210   17.4250 C.ar  110  PHE110     -0.0042
     97  CE1      -43.0550   -5.3290   15.9950 C.ar  110  PHE110     -0.0003
     98  CE2      -40.8380   -4.7110   16.6060 C.ar  110  PHE110     -0.0003
     99  CZ       -41.9840   -4.4490   15.8980 C.ar  110  PHE110     -0.0000
    100  N        -40.0130  -10.3140   19.4100 N.am  111  ALA111     -0.1977
    101  CA       -39.6970  -11.3780   20.3570 C.3   111  ALA111      0.1597
    102  C        -39.1450  -10.9000   21.6790 C.2   111  ALA111      0.2287
    103  O        -38.3500   -9.9660   21.7120 O.2   111  ALA111     -0.2864
    104  CB       -38.7000  -12.3320   19.7230 C.3   111  ALA111      0.0319
    105  N        -34.5240  -15.4980   19.3020 N.3   116  LYS116     -0.1231
    106  CA       -35.6030  -15.7450   18.3160 C.3   116  LYS116      0.1693
    107  C        -35.4790  -14.7090   17.1750 C.2   116  LYS116      0.2592
    108  O        -35.4830  -15.0620   16.0050 O.2   116  LYS116     -0.2718
    109  CB       -36.9880  -15.6850   18.9970 C.3   116  LYS116      0.0285
    110  CG       -38.2160  -15.6990   18.0900 C.3   116  LYS116      0.0035
    111  CD       -38.2850  -16.7920   17.0360 C.3   116  LYS116      0.0206
    112  CE       -38.3750  -18.1720   17.5680 C.3   116  LYS116      0.1093
    113  NZ       -38.7350  -19.0670   16.3890 N.3   116  LYS116     -0.1314
    114  N        -35.3930  -13.4120   17.5050 N.am  117  SER117     -0.1952
    115  CA       -35.1810  -12.3770   16.4780 C.3   117  SER117      0.1924
    116  C        -33.9010  -12.6270   15.6730 C.2   117  SER117      0.2314
    117  O        -33.8460  -12.3790   14.4790 O.2   117  SER117     -0.2863
    118  CB       -35.1940  -10.9750   17.0980 C.3   117  SER117      0.2116
    119  OG       -36.4650  -10.6560   17.6660 O.3   117  SER117     -0.2180
    120  N        -33.9980  -14.3050   12.2180 N.3   120  TYR120     -0.1241
    121  CA       -34.5500  -13.5670   11.0780 C.3   120  TYR120      0.1605
    122  C        -33.6240  -12.5160   10.4770 C.2   120  TYR120      0.2264
    123  O        -34.0030  -11.8770    9.5040 O.2   120  TYR120     -0.2867
    124  CB       -35.9010  -12.9170   11.4530 C.3   120  TYR120      0.0534
    125  CG       -36.9550  -13.9560   11.7330 C.ar  120  TYR120     -0.0201
    126  CD1      -37.0910  -14.5150   12.9970 C.ar  120  TYR120     -0.0009
    127  CD2      -37.7420  -14.4540   10.7150 C.ar  120  TYR120     -0.0009
    128  CE1      -38.0390  -15.5030   13.2500 C.ar  120  TYR120      0.0417
    129  CE2      -38.6930  -15.4530   10.9580 C.ar  120  TYR120      0.0417
    130  CZ       -38.8250  -15.9580   12.2260 C.ar  120  TYR120      0.1957
    131  OH       -39.7570  -16.9370   12.4370 O.3   120  TYR120     -0.2866
    132  N        -33.0230  -13.3700    7.0960 N.3   123  GLY123     -0.1210
    133  CA       -34.2590  -13.6740    6.4120 C.3   123  GLY123      0.1956
    134  C        -35.0520  -14.7560    7.1440 C.2   123  GLY123      0.2611
    135  O        -34.6230  -15.2740    8.1710 O.2   123  GLY123     -0.2717
    136  N        -36.1960  -15.1050    6.5850 N.am  124  ILE124     -0.1979
    137  CA       -37.0440  -16.1660    7.1370 C.3   124  ILE124      0.1595
    138  C        -36.2560  -17.4890    7.1570 C.2   124  ILE124      0.2287
    139  O        -35.6590  -17.8670    6.1770 O.2   124  ILE124     -0.2864
    140  CB       -38.3480  -16.3240    6.3170 C.3   124  ILE124      0.0276
    141  CG1      -39.2000  -15.0630    6.4010 C.3   124  ILE124      0.0022
    142  CG2      -39.1680  -17.4840    6.8910 C.3   124  ILE124      0.0022
    143  CD1      -40.2380  -14.9670    5.3160 C.3   124  ILE124      0.0001
    144  N        -43.8570  -14.1770   21.9090 N.3   184  GLU184     -0.1245
    145  CA       -43.6740  -13.4370   20.6800 C.3   184  GLU184      0.1567
    146  C        -44.9650  -12.6450   20.4320 C.2   184  GLU184      0.2260
    147  O        -46.0380  -13.0020   20.9460 O.2   184  GLU184     -0.2867
    148  CB       -43.4020  -14.4080   19.5290 C.3   184  GLU184      0.0388
    149  CG       -42.1830  -15.2590   19.8100 C.3   184  GLU184      0.1160
    150  CD       -42.0030  -16.3990   18.8440 C.2   184  GLU184      0.3649
    151  OE1      -42.5860  -16.3510   17.7590 O.co2 184  GLU184     -0.2457
    152  OE2      -41.2170  -17.2930   19.1840 O.co2 184  GLU184     -0.2457
@<TRIPOS>BOND
     1    45    44    1
     2    45    46    1
     3    44    43    1
     4    46    47    2
     5    48    47    1
     6    47    49    1
     7    36    38   ar
     8    36    34   ar
     9    38    37   ar
    10    43    40    1
    11    34    33   ar
    12    40    39    1
    13    40    41    1
    14    37    35   ar
    15    42    41    2
    16    41    50   am
    17    33    35   ar
    18    33    32    1
    19    25    26    1
    20    25    22    1
    21   143   141    1
    22    24    23    2
    23    26    27    2
    24    32    29    1
    25    50    51    1
    26    59    57   ar
    27    59    58   ar
    28    23    22    1
    29    23    28   am
    30   139   138    2
    31    63    62    2
    32   140   141    1
    33   140   142    1
    34   140   137    1
    35    29    28    1
    36    29    30    1
    37   133   132    1
    38   133   134    1
    39    57    55   ar
    40    22    21    1
    41   136   137    1
    42   136   134   am
    43    58    56   ar
    44    51    52    1
    45    51    54    1
    46    27    21    1
    47   137   138    1
    48   134   135    2
    49    60    52   am
    50    60    61    1
    51    55    56   ar
    52    55    54    1
    53    67    66    1
    54    67    68    2
    55    64    61    1
    56    62    61    1
    57    62    65   am
    58    31    30    2
    59    21    17   am
    60    52    53    2
    61    73    71   ar
    62    73    75   ar
    63    71    70   ar
    64    66    65    1
    65    66    69    1
    66    20    19    1
    67    17    18    2
    68    17    16    1
    69    76    75    1
    70    75    74   ar
    71    70    69    1
    72    70    72   ar
    73   123   122    2
    74    19    16    1
    75    16    15    1
    76    74    72   ar
    77   122   121    1
    78   127   129   ar
    79   127   125   ar
    80   129   130   ar
    81   121   124    1
    82   121   120    1
    83    15    13   am
    84   124   125    1
    85   125   126   ar
    86    14    13    2
    87    10     9   ar
    88    10     8   ar
    89    13    12    1
    90    85    83   ar
    91    85    87   ar
    92   130   131    1
    93   130   128   ar
    94    88    87    1
    95     9     7   ar
    96    83    82   ar
    97    87    86   ar
    98     8     6   ar
    99   126   128   ar
   100    77    78    1
   101    12    11    1
   102    82    81    1
   103    82    84   ar
   104    86    84   ar
   105     7     6   ar
   106     6     5    1
   107    81    78    1
   108    11     3   am
   109   117   116    2
   110    78    79    1
   111    80    79    2
   112     3     4    2
   113     3     2    1
   114     5     2    1
   115    79    89   am
   116   116   115    1
   117    99    97   ar
   118    99    98   ar
   119     2     1    1
   120    97    95   ar
   121   108   107    2
   122   113   112    1
   123   115   118    1
   124   115   114    1
   125    98    96   ar
   126    89    90    1
   127    95    94   ar
   128   111   112    1
   129   111   110    1
   130   118   119    1
   131   107   114   am
   132   107   106    1
   133    96    94   ar
   134    94    93    1
   135    90    93    1
   136    90    91    1
   137   151   150   ar
   138   110   109    1
   139   106   109    1
   140   106   105    1
   141    91    92    2
   142    91   100   am
   143   150   152   ar
   144   150   149    1
   145   100   101    1
   146   148   149    1
   147   148   145    1
   148   104   101    1
   149   101   102    1
   150   146   145    1
   151   146   147    2
   152   145   144    1
   153   102   103    2
