@<TRIPOS>MOLECULE
tmp/4bs5A00.pdb
 131 130 0 0 0
SMALL
GASTEIGER

@<TRIPOS>ATOM
      1  N         11.5560   -9.8020   27.0870 N.3    20  GLN20      -0.1245
      2  CA        10.6420  -10.0950   28.2060 C.3    20  GLN20       0.1566
      3  C         10.8370  -11.4840   28.8350 C.2    20  GLN20       0.2260
      4  O         10.4360  -11.7160   29.9760 O.2    20  GLN20      -0.2867
      5  CB         9.1740   -9.8960   27.8100 C.3    20  GLN20       0.0367
      6  CG         8.6350  -10.8660   26.7590 C.3    20  GLN20       0.0905
      7  CD         7.1700  -10.6270   26.5070 C.2    20  GLN20       0.2608
      8  OE1        6.2750  -11.2670   27.1110 O.2    20  GLN20      -0.2717
      9  NE2        6.9010   -9.6630   25.6450 N.am   20  GLN20      -0.0878
     10  N          4.9810  -12.7240   31.3600 N.3    24  GLY24      -0.1225
     11  CA         3.9720  -12.0810   30.5550 C.3    24  GLY24       0.1811
     12  C          3.8860  -10.5730   30.7610 C.2    24  GLY24       0.2280
     13  O          2.8320  -10.0470   31.2230 O.2    24  GLY24      -0.2866
     14  N          4.5810   -8.1160   28.3560 N.3    26  CYS26      -0.1221
     15  CA         4.4160   -7.3250   27.1240 C.3    26  CYS26       0.1808
     16  C          3.7710   -5.9590   27.3840 C.2    26  CYS26       0.2601
     17  O          4.1640   -4.9510   26.8280 O.2    26  CYS26      -0.2717
     18  CB         3.6800   -8.1190   26.0250 C.3    26  CYS26       0.0970
     19  SG         1.9810   -8.5540   26.3990 S.3    26  CYS26      -0.0800
     20  N          2.7310   -5.9650   28.2120 N.am   27  TRP27      -0.1976
     21  CA         1.9640   -4.7650   28.5630 C.3    27  TRP27       0.1640
     22  C          2.8400   -3.7260   29.2410 C.2    27  TRP27       0.2290
     23  O          2.6660   -2.5390   29.0210 O.2    27  TRP27      -0.2864
     24  CB         0.7480   -5.1730   29.4300 C.3    27  TRP27       0.0576
     25  CG         1.1610   -5.8540   30.6960 C.ar   27  TRP27       0.0006
     26  CD1        1.3760   -7.1950   30.8910 C.ar   27  TRP27       0.0946
     27  CD2        1.4180   -5.2220   31.9550 C.ar   27  TRP27       0.0152
     28  NE1        1.7620   -7.4190   32.1930 N.ar   27  TRP27      -0.2442
     29  CE2        1.7730   -6.2300   32.8680 C.ar   27  TRP27       0.0810
     30  CE3        1.3930   -3.9100   32.3910 C.ar   27  TRP27       0.0012
     31  CZ2        2.0900   -5.9570   34.1810 C.ar   27  TRP27       0.0191
     32  CZ3        1.6770   -3.6530   33.7220 C.ar   27  TRP27       0.0001
     33  CH2        2.0680   -4.6610   34.5780 C.ar   27  TRP27       0.0015
     34  N          1.6220  -12.5240   34.8130 N.3    69  GLY69      -0.1210
     35  CA         0.4060  -13.1300   34.2910 C.3    69  GLY69       0.1956
     36  C         -0.3430  -12.2670   33.2910 C.2    69  GLY69       0.2612
     37  O         -1.4170  -12.6560   32.8350 O.2    69  GLY69      -0.2717
     38  N          0.1850  -11.0980   32.9360 N.am   70  GLY70      -0.1942
     39  CA        -0.4230  -10.2440   31.9260 C.3    70  GLY70       0.2014
     40  C         -1.0320   -9.0130   32.5510 C.2    70  GLY70       0.2639
     41  O         -1.1130   -8.8870   33.7930 O.2    70  GLY70      -0.2714
     42  N         -1.4160   -8.0660   31.7120 N.am   71  GLY71      -0.1939
     43  CA        -1.8960   -6.7620   32.1870 C.3    71  GLY71       0.2014
     44  C         -2.2710   -5.8580   31.0260 C.2    71  GLY71       0.2639
     45  O         -2.3130   -6.2970   29.8850 O.2    71  GLY71      -0.2714
     46  N         -2.5310   -4.5910   31.3420 N.am   72  TYR72      -0.1959
     47  CA        -3.0240   -3.5910   30.4150 C.3    72  TYR72       0.1771
     48  C         -2.1790   -2.3250   30.4950 C.2    72  TYR72       0.2619
     49  O         -1.8310   -1.8580   31.5820 O.2    72  TYR72      -0.2715
     50  CB        -4.4670   -3.2460   30.7970 C.3    72  TYR72       0.0574
     51  CG        -5.4350   -4.3780   30.5740 C.ar   72  TYR72      -0.0198
     52  CD1       -5.6580   -5.3300   31.5660 C.ar   72  TYR72      -0.0009
     53  CD2       -6.1000   -4.5200   29.3630 C.ar   72  TYR72      -0.0009
     54  CE1       -6.5690   -6.3740   31.3580 C.ar   72  TYR72       0.0417
     55  CE2       -6.9830   -5.5550   29.1320 C.ar   72  TYR72       0.0417
     56  CZ        -7.2130   -6.4900   30.1350 C.ar   72  TYR72       0.1957
     57  OH        -8.0900   -7.5080   29.8660 O.3    72  TYR72      -0.2866
     58  N         -1.8860   -1.7560   29.3240 N.am   73  MET73      -0.1963
     59  CA        -1.0610   -0.5300   29.2380 C.3    73  MET73       0.1736
     60  C         -1.7590    0.6420   29.9370 C.2    73  MET73       0.2617
     61  O         -1.1580    1.3660   30.6960 O.2    73  MET73      -0.2715
     62  CB        -0.7700   -0.2260   27.7630 C.3    73  MET73       0.0427
     63  CG         0.1690   -1.2540   27.1130 C.3    73  MET73       0.0599
     64  SD        -0.6950   -2.7830   26.5740 S.3    73  MET73      -0.1393
     65  CE        -1.4540   -2.1970   25.0370 C.3    73  MET73       0.0692
     66  N         -3.0580    0.7930   29.7240 N.am   74  THR74      -0.1951
     67  CA        -3.7430    1.9460   30.3600 C.3    74  THR74       0.1897
     68  C         -3.7390    1.8670   31.8920 C.2    74  THR74       0.2313
     69  O         -3.6100    2.8690   32.5720 O.2    74  THR74      -0.2863
     70  CB        -5.1970    2.1180   29.9370 C.3    74  THR74       0.1794
     71  OG1       -5.9630    0.9580   30.2920 O.3    74  THR74      -0.2208
     72  CG2       -5.2920    2.3680   28.4170 C.3    74  THR74       0.0378
     73  N         -2.6510   -2.8990   21.3140 N.3   139  GLY139     -0.1225
     74  CA        -2.7870   -4.3250   21.3880 C.3   139  GLY139      0.1811
     75  C         -2.9590   -4.8970   20.0060 C.2   139  GLY139      0.2280
     76  O         -3.6230   -4.3210   19.1330 O.2   139  GLY139     -0.2866
     77  N         -7.2950   -9.4030   20.1690 N.3   164  VAL164     -0.1231
     78  CA        -5.9060   -9.0550   20.4800 C.3   164  VAL164      0.1692
     79  C         -5.4640   -9.7700   21.7470 C.2   164  VAL164      0.2592
     80  O         -6.2810  -10.1520   22.5860 O.2   164  VAL164     -0.2718
     81  CB        -5.6920   -7.5360   20.5970 C.3   164  VAL164      0.0266
     82  CG1       -6.2610   -6.8110   19.3850 C.3   164  VAL164      0.0020
     83  CG2       -6.2880   -7.0010   21.8920 C.3   164  VAL164      0.0020
     84  N         -4.1560   -9.8880   21.8810 N.am  165  ASN165     -0.1960
     85  CA        -3.5650  -10.6260   23.0070 C.3   165  ASN165      0.1819
     86  C         -2.1940  -10.1550   23.4850 C.2   165  ASN165      0.2621
     87  O         -1.7530  -10.6110   24.5270 O.2   165  ASN165     -0.2715
     88  CB        -3.5270  -12.1110   22.6600 C.3   165  ASN165      0.1195
     89  CG        -3.1800  -12.3070   21.2240 C.2   165  ASN165      0.2630
     90  OD1       -2.0430  -11.9970   20.8250 O.2   165  ASN165     -0.2716
     91  ND2       -4.1020  -12.8450   20.4230 N.am  165  ASN165     -0.0877
     92  N         -1.5290   -9.2590   22.7420 N.am  166  HIS166     -0.1959
     93  CA        -0.2160   -8.7680   23.1610 C.3   166  HIS166      0.1787
     94  C         -0.0910   -7.2810   22.9850 C.2   166  HIS166      0.2620
     95  O         -0.5240   -6.7170   21.9840 O.2   166  HIS166     -0.2715
     96  CB         0.8980   -9.4470   22.3700 C.3   166  HIS166      0.0785
     97  CG         1.1130  -10.8580   22.7700 C.ar  166  HIS166      0.0821
     98  ND1        0.2880  -11.8770   22.3590 N.ar  166  HIS166     -0.2267
     99  CD2        2.0590  -11.4350   23.5490 C.ar  166  HIS166      0.1154
    100  CE1        0.7130  -13.0240   22.8520 C.ar  166  HIS166      0.1986
    101  NE2        1.7910  -12.7840   23.5700 N.ar  166  HIS166     -0.2212
    102  N          0.4470   -6.6390   23.9970 N.am  167  GLY167     -0.1954
    103  CA         0.7220   -5.2150   23.9530 C.3   167  GLY167      0.1869
    104  C          2.0950   -4.9590   23.3310 C.2   167  GLY167      0.2309
    105  O          3.0660   -5.6070   23.6970 O.2   167  GLY167     -0.2863
    106  N         10.7640   -8.9430   22.4320 N.3   188  TRP188     -0.1241
    107  CA        11.3100  -10.2940   22.3130 C.3   188  TRP188      0.1605
    108  C         12.7940  -10.2600   21.9230 C.2   188  TRP188      0.2264
    109  O         13.3370  -11.2610   21.4800 O.2   188  TRP188     -0.2867
    110  CB        10.5810  -11.0800   21.2290 C.3   188  TRP188      0.0550
    111  CG         9.1760  -11.3320   21.4960 C.ar  188  TRP188      0.0003
    112  CD1        8.1300  -10.9370   20.7300 C.ar  188  TRP188      0.0946
    113  CD2        8.6310  -12.0630   22.5910 C.ar  188  TRP188      0.0152
    114  NE1        6.9470  -11.3550   21.2950 N.ar  188  TRP188     -0.2442
    115  CE2        7.2310  -12.0600   22.4320 C.ar  188  TRP188      0.0810
    116  CE3        9.1860  -12.7390   23.6880 C.ar  188  TRP188      0.0012
    117  CZ2        6.3770  -12.6860   23.3230 C.ar  188  TRP188      0.0191
    118  CZ3        8.3130  -13.3720   24.5790 C.ar  188  TRP188      0.0001
    119  CH2        6.9310  -13.3210   24.3920 C.ar  188  TRP188      0.0015
    120  N         -7.2020   -0.7910   20.3980 N.3   213  TYR213     -0.1241
    121  CA        -6.8910   -0.4010   21.7750 C.3   213  TYR213      0.1605
    122  C         -5.5640    0.3880   21.8710 C.2   213  TYR213      0.2264
    123  O         -4.5680   -0.0710   22.4450 O.2   213  TYR213     -0.2867
    124  CB        -6.8150   -1.6240   22.6780 C.3   213  TYR213      0.0534
    125  CG        -8.0430   -2.4950   22.5940 C.ar  213  TYR213     -0.0201
    126  CD1       -9.2390   -2.1070   23.1920 C.ar  213  TYR213     -0.0009
    127  CD2       -8.0280   -3.7130   21.9260 C.ar  213  TYR213     -0.0009
    128  CE1      -10.3920   -2.8880   23.1030 C.ar  213  TYR213      0.0417
    129  CE2       -9.1820   -4.4940   21.8280 C.ar  213  TYR213      0.0417
    130  CZ       -10.3690   -4.0860   22.4430 C.ar  213  TYR213      0.1957
    131  OH       -11.5370   -4.8440   22.3710 O.3   213  TYR213     -0.2866
@<TRIPOS>BOND
     1    76    75    2
     2    82    81    1
     3    75    74    1
     4    77    78    1
     5   120   121    1
     6    91    89   am
     7    78    81    1
     8    78    79    1
     9    81    83    1
    10   112   114   ar
    11   112   111   ar
    12    90    89    2
    13    89    88    1
    14   110   111    1
    15   110   107    1
    16   114   115   ar
    17    73    74    1
    18   109   108    2
    19   111   113   ar
    20    79    84   am
    21    79    80    2
    22   121   122    1
    23   121   124    1
    24   129   127   ar
    25   129   130   ar
    26   122   123    2
    27    84    85    1
    28   108   107    1
    29   127   125   ar
    30    95    94    2
    31   107   106    1
    32    98    97   ar
    33    98   100   ar
    34    96    97    1
    35    96    93    1
    36   131   130    1
    37   115   113   ar
    38   115   117   ar
    39   130   128   ar
    40   113   116   ar
    41   125   124    1
    42   125   126   ar
    43    88    85    1
    44    92    93    1
    45    92    86   am
    46    97    99   ar
    47   100   101   ar
    48    94    93    1
    49    94   102   am
    50    85    86    1
    51   128   126   ar
    52   117   119   ar
    53   104   105    2
    54   104   103    1
    55    86    87    2
    56    99   101   ar
    57   116   118   ar
    58   103   102    1
    59   119   118   ar
    60    65    64    1
    61     9     7   am
    62    18    19    1
    63    18    15    1
    64     7     6    1
    65     7     8    2
    66    64    63    1
    67     6     5    1
    68    17    16    2
    69     1     2    1
    70    63    62    1
    71    15    16    1
    72    15    14    1
    73    16    20   am
    74    62    59    1
    75     5     2    1
    76     2     3    1
    77    20    21    1
    78    72    70    1
    79    21    22    1
    80    21    24    1
    81     3     4    2
    82    23    22    2
    83    55    53   ar
    84    55    56   ar
    85    59    58    1
    86    59    60    1
    87    58    48   am
    88    53    51   ar
    89    24    25    1
    90    66    60   am
    91    66    67    1
    92    57    56    1
    93    45    44    2
    94    60    61    2
    95    70    71    1
    96    70    67    1
    97    56    54   ar
    98    67    68    1
    99    47    48    1
   100    47    50    1
   101    47    46    1
   102    48    49    2
   103    11    12    1
   104    11    10    1
   105    51    50    1
   106    51    52   ar
   107    25    26   ar
   108    25    27   ar
   109    12    13    2
   110    26    28   ar
   111    44    46   am
   112    44    43    1
   113    54    52   ar
   114    42    43    1
   115    42    40   am
   116    68    69    2
   117    39    40    1
   118    39    38    1
   119    27    30   ar
   120    27    29   ar
   121    28    29   ar
   122    30    32   ar
   123    40    41    2
   124    37    36    2
   125    29    31   ar
   126    38    36   am
   127    36    35    1
   128    32    33   ar
   129    31    33   ar
   130    35    34    1
