@<TRIPOS>MOLECULE
tmp/4bs6A00.pdb
 144 141 0 0 0
SMALL
GASTEIGER

@<TRIPOS>ATOM
      1  N         12.7500   -6.7260   22.6210 N.3    20  GLN20      -0.1245
      2  CA        11.8920   -6.4670   21.4690 C.3    20  GLN20       0.1566
      3  C         12.0840   -5.0600   20.8920 C.2    20  GLN20       0.2260
      4  O         11.7260   -4.8060   19.7420 O.2    20  GLN20      -0.2867
      5  CB        10.4250   -6.7050   21.8370 C.3    20  GLN20       0.0367
      6  CG         9.8140   -5.7410   22.8460 C.3    20  GLN20       0.0905
      7  CD         8.3720   -6.0870   23.1250 C.2    20  GLN20       0.2608
      8  OE1        8.0590   -7.0220   23.8660 O.2    20  GLN20      -0.2717
      9  NE2        7.4860   -5.3520   22.5110 N.am   20  GLN20      -0.0878
     10  N          6.4230   -3.9770   18.1550 N.3    24  GLY24      -0.1225
     11  CA         5.3990   -4.6570   18.9480 C.3    24  GLY24       0.1811
     12  C          5.3340   -6.1460   18.6970 C.2    24  GLY24       0.2280
     13  O          4.3250   -6.6740   18.2390 O.2    24  GLY24      -0.2866
     14  N          5.9410   -8.6130   21.0550 N.3    26  CYS26      -0.1221
     15  CA         5.7930   -9.4130   22.2800 C.3    26  CYS26       0.1808
     16  C          5.1650  -10.7790   22.0130 C.2    26  CYS26       0.2601
     17  O          5.5800  -11.7930   22.5690 O.2    26  CYS26      -0.2717
     18  CB         4.9890   -8.6690   23.3410 C.3    26  CYS26       0.0970
     19  SG         3.2950   -8.2410   22.8820 S.3    26  CYS26      -0.0800
     20  N          4.1440  -10.7760   21.1720 N.am   27  TRP27      -0.1976
     21  CA         3.4100  -11.9730   20.7830 C.3    27  TRP27       0.1640
     22  C          4.3280  -12.9960   20.1210 C.2    27  TRP27       0.2290
     23  O          4.1740  -14.2070   20.3120 O.2    27  TRP27      -0.2864
     24  CB         2.2410  -11.5950   19.8450 C.3    27  TRP27       0.0576
     25  CG         2.7080  -10.9000   18.6000 C.ar   27  TRP27       0.0006
     26  CD1        2.9770   -9.5670   18.4520 C.ar   27  TRP27       0.0946
     27  CD2        3.0050  -11.5160   17.3440 C.ar   27  TRP27       0.0152
     28  NE1        3.4240   -9.3220   17.1700 N.ar   27  TRP27      -0.2442
     29  CE2        3.4310  -10.4970   16.4650 C.ar   27  TRP27       0.0810
     30  CE3        2.9320  -12.8280   16.8720 C.ar   27  TRP27       0.0012
     31  CZ2        3.8050  -10.7550   15.1500 C.ar   27  TRP27       0.0191
     32  CZ3        3.3070  -13.0850   15.5580 C.ar   27  TRP27       0.0001
     33  CH2        3.7330  -12.0540   14.7160 C.ar   27  TRP27       0.0015
     34  N         -4.1310  -12.3430   10.8320 N.3    64  GLY64      -0.1225
     35  CA        -4.4930  -11.1900   11.6480 C.3    64  GLY64       0.1811
     36  C         -3.3710  -10.7170   12.5650 C.2    64  GLY64       0.2280
     37  O         -3.5840   -9.8950   13.4490 O.2    64  GLY64      -0.2866
     38  N          0.0460   -8.4670   12.8340 N.3    66  LYS66      -0.1245
     39  CA         0.3620   -7.1730   12.2470 C.3    66  LYS66       0.1561
     40  C          1.8430   -6.8510   12.3920 C.2    66  LYS66       0.2260
     41  O          2.2340   -5.6920   12.4400 O.2    66  LYS66      -0.2867
     42  CB        -0.5040   -6.0820   12.9000 C.3    66  LYS66       0.0271
     43  CG        -1.9890   -6.3370   12.7160 C.3    66  LYS66       0.0035
     44  CD        -2.8330   -5.1830   13.2190 C.3    66  LYS66       0.0206
     45  CE        -3.3200   -5.4110   14.6300 C.3    66  LYS66       0.1093
     46  NZ        -4.3230   -4.3950   15.0420 N.3    66  LYS66      -0.1314
     47  N          3.1260   -4.2160   14.6610 N.3    69  GLY69      -0.1210
     48  CA         1.9060   -3.6230   15.1910 C.3    69  GLY69       0.1956
     49  C          1.1450   -4.5110   16.1520 C.2    69  GLY69       0.2612
     50  O          0.0590   -4.1430   16.5900 O.2    69  GLY69      -0.2717
     51  N          1.6930   -5.6740   16.4810 N.am   70  GLY70      -0.1942
     52  CA         1.0750   -6.5890   17.4230 C.3    70  GLY70       0.2014
     53  C          0.5710   -7.8290   16.7220 C.2    70  GLY70       0.2639
     54  O          0.5830   -7.9170   15.4910 O.2    70  GLY70      -0.2714
     55  N          0.1090   -8.7920   17.5100 N.am   71  GLY71      -0.1939
     56  CA        -0.3350  -10.0590   16.9620 C.3    71  GLY71       0.2014
     57  C         -0.7080  -11.0390   18.0440 C.2    71  GLY71       0.2639
     58  O         -0.7510  -10.6870   19.2140 O.2    71  GLY71      -0.2714
     59  N         -0.9760  -12.2700   17.6290 N.am   72  TYR72      -0.1959
     60  CA        -1.5180  -13.3100   18.4990 C.3    72  TYR72       0.1771
     61  C         -0.6170  -14.5370   18.4940 C.2    72  TYR72       0.2619
     62  O         -0.2040  -15.0140   17.4270 O.2    72  TYR72      -0.2715
     63  CB        -2.9140  -13.7050   18.0240 C.3    72  TYR72       0.0574
     64  CG        -3.8900  -12.5600   18.0410 C.ar   72  TYR72      -0.0198
     65  CD1       -4.5980  -12.2620   19.1960 C.ar   72  TYR72      -0.0009
     66  CD2       -4.0970  -11.7720   16.9130 C.ar   72  TYR72      -0.0009
     67  CE1       -5.5020  -11.2220   19.2340 C.ar   72  TYR72       0.0417
     68  CE2       -5.0010  -10.7310   16.9380 C.ar   72  TYR72       0.0417
     69  CZ        -5.6880  -10.4470   18.1060 C.ar   72  TYR72       0.1957
     70  OH        -6.5990   -9.4070   18.1430 O.3    72  TYR72      -0.2866
     71  N         -0.3590  -15.0600   19.6880 N.am   73  MET73      -0.1963
     72  CA         0.4400  -16.2690   19.8240 C.3    73  MET73       0.1736
     73  C         -0.2130  -17.4560   19.1190 C.2    73  MET73       0.2617
     74  O          0.4620  -18.2160   18.4380 O.2    73  MET73      -0.2715
     75  CB         0.6810  -16.5690   21.2930 C.3    73  MET73       0.0427
     76  CG         1.5190  -15.5240   22.0010 C.3    73  MET73       0.0599
     77  SD         0.6560  -14.0150   22.5110 S.3    73  MET73      -0.1393
     78  CE        -0.2310  -14.6350   23.9250 C.3    73  MET73       0.0692
     79  N         -1.5430  -17.5890   19.2280 N.am   74  THR74      -0.1951
     80  CA        -2.2120  -18.7050   18.5630 C.3    74  THR74       0.1897
     81  C         -1.9910  -18.6550   17.0440 C.2    74  THR74       0.2313
     82  O         -1.8110  -19.6850   16.3990 O.2    74  THR74      -0.2863
     83  CB        -3.7170  -18.7360   18.8680 C.3    74  THR74       0.1794
     84  OG1       -4.2990  -17.4740   18.5310 O.3    74  THR74      -0.2208
     85  CG2       -3.9740  -19.0660   20.3450 C.3    74  THR74       0.0378
     86  N         -1.6130  -13.9730   27.5720 N.3   139  GLY139     -0.1225
     87  CA        -1.8070  -12.5350   27.5170 C.3   139  GLY139      0.1811
     88  C         -1.9980  -11.9440   28.9050 C.2   139  GLY139      0.2280
     89  O         -2.6430  -12.5600   29.7600 O.2   139  GLY139     -0.2866
     90  N         -6.4340   -7.6350   28.5020 N.3   164  VAL164     -0.1231
     91  CA        -5.0280   -7.9060   28.2370 C.3   164  VAL164      0.1692
     92  C         -4.5300   -7.1370   27.0140 C.2   164  VAL164      0.2592
     93  O         -5.2890   -6.7590   26.1250 O.2   164  VAL164     -0.2718
     94  CB        -4.7550   -9.4130   28.0650 C.3   164  VAL164      0.0266
     95  CG1       -5.2670  -10.1760   29.2790 C.3   164  VAL164      0.0020
     96  CG2       -5.3550   -9.9610   26.7740 C.3   164  VAL164      0.0020
     97  N         -3.2190   -6.9590   26.9650 N.am  165  ASN165     -0.1960
     98  CA        -2.6040   -6.1840   25.8990 C.3   165  ASN165      0.1819
     99  C         -1.1830   -6.5990   25.5360 C.2   165  ASN165      0.2621
    100  O         -0.6480   -6.0450   24.5640 O.2   165  ASN165     -0.2715
    101  CB        -2.6260   -4.6960   26.2490 C.3   165  ASN165      0.1195
    102  CG        -2.2470   -4.4660   27.6800 C.2   165  ASN165      0.2630
    103  OD1       -1.1490   -4.8660   28.1090 O.2   165  ASN165     -0.2716
    104  ND2       -3.1850   -3.9460   28.4670 N.am  165  ASN165     -0.0877
    105  N         -0.5650   -7.5670   26.2420 N.am  166  HIS166     -0.1959
    106  CA         0.7940   -8.0140   25.9170 C.3   166  HIS166      0.1787
    107  C          0.9210   -9.5040   26.0910 C.2   166  HIS166      0.2620
    108  O          0.4290  -10.0630   27.0610 O.2   166  HIS166     -0.2715
    109  CB         1.8250   -7.3170   26.7810 C.3   166  HIS166      0.0785
    110  CG         2.0670   -5.8960   26.3930 C.ar  166  HIS166      0.0821
    111  ND1        1.2070   -4.8740   26.7230 N.ar  166  HIS166     -0.2267
    112  CD2        3.0760   -5.3240   25.6930 C.ar  166  HIS166      0.1154
    113  CE1        1.6820   -3.7320   26.2620 C.ar  166  HIS166      0.1986
    114  NE2        2.8150   -3.9800   25.6270 N.ar  166  HIS166     -0.2212
    115  N          1.5880  -10.1370   25.1340 N.am  167  GLY167     -0.1954
    116  CA         1.8820  -11.5480   25.2010 C.3   167  GLY167      0.1869
    117  C          3.2160  -11.7700   25.8910 C.2   167  GLY167      0.2309
    118  O          4.2130  -11.1080   25.5800 O.2   167  GLY167     -0.2863
    119  N         11.6020   -7.6370   27.2480 N.3   188  TRP188     -0.1241
    120  CA        12.1170   -6.2840   27.4100 C.3   188  TRP188      0.1605
    121  C         13.5740   -6.2950   27.8430 C.2   188  TRP188      0.2264
    122  O         14.0650   -5.3040   28.3710 O.2   188  TRP188     -0.2867
    123  CB        11.2940   -5.5230   28.4500 C.3   188  TRP188      0.0550
    124  CG         9.9130   -5.2480   28.0680 C.ar  188  TRP188      0.0003
    125  CD1        8.8170   -5.6700   28.7180 C.ar  188  TRP188      0.0946
    126  CD2        9.4630   -4.4910   26.9430 C.ar  188  TRP188      0.0152
    127  NE1        7.6920   -5.2280   28.0860 N.ar  188  TRP188     -0.2442
    128  CE2        8.0520   -4.5120   26.9770 C.ar  188  TRP188      0.0810
    129  CE3       10.1030   -3.7960   25.9080 C.ar  188  TRP188      0.0012
    130  CZ2        7.2610   -3.8460   26.0340 C.ar  188  TRP188      0.0191
    131  CZ3        9.3040   -3.1370   24.9520 C.ar  188  TRP188      0.0001
    132  CH2        7.9030   -3.1720   25.0280 C.ar  188  TRP188      0.0015
    133  N         -6.1350  -16.0870   28.1350 N.3   213  TYR213     -0.1241
    134  CA        -5.8220  -16.4810   26.7600 C.3   213  TYR213      0.1605
    135  C         -4.4960  -17.2300   26.7470 C.2   213  TYR213      0.2264
    136  O         -3.4790  -16.7460   26.2650 O.2   213  TYR213     -0.2867
    137  CB        -5.7740  -15.2480   25.8540 C.3   213  TYR213      0.0534
    138  CG        -7.0750  -14.4840   25.8570 C.ar  213  TYR213     -0.0201
    139  CD1       -8.2350  -15.0460   25.3390 C.ar  213  TYR213     -0.0009
    140  CD2       -7.1640  -13.2340   26.4470 C.ar  213  TYR213     -0.0009
    141  CE1       -9.4380  -14.3700   25.3910 C.ar  213  TYR213      0.0417
    142  CE2       -8.3640  -12.5430   26.4890 C.ar  213  TYR213      0.0417
    143  CZ        -9.4890  -13.1050   25.9520 C.ar  213  TYR213      0.1957
    144  OH       -10.6650  -12.4080   26.0150 O.3   213  TYR213     -0.2866
@<TRIPOS>BOND
     1    34    35    1
     2    35    36    1
     3    39    40    1
     4    39    38    1
     5    39    42    1
     6    40    41    2
     7    36    37    2
     8    43    42    1
     9    43    44    1
    10    44    45    1
    11    45    46    1
    12    47    48    1
    13    33    31   ar
    14    33    32   ar
    15    31    29   ar
    16    48    49    1
    17    54    53    2
    18    32    30   ar
    19    49    51   am
    20    49    50    2
    21    82    81    2
    22    29    28   ar
    23    29    27   ar
    24    51    52    1
    25    53    52    1
    26    53    55   am
    27    30    27   ar
    28    66    68   ar
    29    66    64   ar
    30    68    69   ar
    31    56    55    1
    32    56    57    1
    33    81    80    1
    34    28    26   ar
    35    27    25   ar
    36    62    61    2
    37    59    57   am
    38    59    60    1
    39    63    64    1
    40    63    60    1
    41    64    65   ar
    42    57    58    2
    43    69    70    1
    44    69    67   ar
    45    10    11    1
    46    13    12    2
    47    74    73    2
    48    26    25   ar
    49    61    60    1
    50    61    71   am
    51    84    83    1
    52    80    83    1
    53    80    79    1
    54    25    24    1
    55    12    11    1
    56    83    85    1
    57    73    79   am
    58    73    72    1
    59    65    67   ar
    60    71    72    1
    61     4     3    2
    62    72    75    1
    63    24    21    1
    64    22    23    2
    65    22    21    1
    66    21    20    1
    67     3     2    1
    68    14    15    1
    69    20    16   am
    70    75    76    1
    71     2     5    1
    72     2     1    1
    73     5     6    1
    74    76    77    1
    75    16    15    1
    76    16    17    2
    77    15    18    1
    78     9     7   am
    79    77    78    1
    80     6     7    1
    81    19    18    1
    82     7     8    2
    83   100    99    2
    84   131   132   ar
    85   131   129   ar
    86   132   130   ar
    87   115   116    1
    88   115   107   am
    89   116   117    1
    90   139   141   ar
    91   139   138   ar
    92   141   143   ar
    93    99    98    1
    94    99   105   am
    95   118   117    2
    96   114   112   ar
    97   114   113   ar
    98   112   110   ar
    99   137   138    1
   100   137   134    1
   101   138   140   ar
   102    98   101    1
   103    98    97    1
   104   129   126   ar
   105   106   107    1
   106   106   105    1
   107   106   109    1
   108   143   144    1
   109   143   142   ar
   110   130   128   ar
   111   107   108    2
   112    93    92    2
   113   101   102    1
   114   113   111   ar
   115   136   135    2
   116   110   111   ar
   117   110   109    1
   118   140   142   ar
   119   135   134    1
   120   134   133    1
   121    96    94    1
   122   126   128   ar
   123   126   124   ar
   124    97    92   am
   125   128   127   ar
   126    92    91    1
   127   119   120    1
   128   120   121    1
   129   120   123    1
   130    87    86    1
   131    87    88    1
   132   102   103    2
   133   102   104   am
   134   121   122    2
   135    94    91    1
   136    94    95    1
   137   124   123    1
   138   124   125   ar
   139   127   125   ar
   140    91    90    1
   141    88    89    2
