@<TRIPOS>MOLECULE
tmp/4bscB00.pdb
 81 75 0 0 0
SMALL
GASTEIGER

@<TRIPOS>ATOM
      1  N         47.0450  -33.4810    4.4170 N.3    67  ASP67      -0.1225
      2  CA        46.7240  -32.3620    5.3020 C.3    67  ASP67       0.1805
      3  C         45.2240  -32.2610    5.5320 C.2    67  ASP67       0.2598
      4  O         44.4720  -33.1250    5.0850 O.2    67  ASP67      -0.2718
      5  CB        47.3450  -31.0410    4.8040 C.3    67  ASP67       0.1424
      6  CG        46.9440  -30.6820    3.3930 C.2    67  ASP67       0.3668
      7  OD1       45.9900  -31.2700    2.8460 O.co2  67  ASP67      -0.2456
      8  OD2       47.6030  -29.7890    2.8160 O.co2  67  ASP67      -0.2456
      9  N         44.8000  -31.2210    6.2460 N.am   68  ASN68      -0.1960
     10  CA        43.4730  -31.1640    6.8370 C.3    68  ASN68       0.1819
     11  C         42.8640  -29.7790    6.6830 C.2    68  ASN68       0.2621
     12  O         43.4560  -28.7810    7.0660 O.2    68  ASN68      -0.2715
     13  CB        43.5770  -31.5420    8.3150 C.3    68  ASN68       0.1195
     14  CG        42.2260  -31.7500    8.9720 C.2    68  ASN68       0.2630
     15  OD1       41.2540  -31.0610    8.6670 O.2    68  ASN68      -0.2716
     16  ND2       42.1630  -32.6960    9.8970 N.am   68  ASN68      -0.0877
     17  N         41.6610  -29.7500    6.1370 N.am   69  GLU69      -0.1977
     18  CA        40.9470  -28.5340    5.7760 C.3    69  GLU69       0.1602
     19  C         40.1250  -28.0120    6.9380 C.2    69  GLU69       0.2287
     20  O         39.6940  -26.8700    6.9280 O.2    69  GLU69      -0.2864
     21  CB        40.0060  -28.8720    4.6190 C.3    69  GLU69       0.0415
     22  CG        39.3760  -27.6970    3.8960 C.3    69  GLU69       0.1163
     23  CD        38.9850  -28.0530    2.4640 C.2    69  GLU69       0.3649
     24  OE1       39.8440  -28.5780    1.7240 O.co2  69  GLU69      -0.2457
     25  OE2       37.8290  -27.8170    2.0710 O.co2  69  GLU69      -0.2457
     26  N         43.8980  -27.5530   10.8930 N.3    72  GLU72      -0.1231
     27  CA        45.1990  -27.3200   10.2800 C.3    72  GLU72       0.1699
     28  C         46.2970  -28.1280   10.9600 C.2    72  GLU72       0.2592
     29  O         46.3730  -28.1810   12.1860 O.2    72  GLU72      -0.2718
     30  CB        45.5550  -25.8280   10.2970 C.3    72  GLU72       0.0402
     31  CG        46.6150  -25.4550    9.2600 C.3    72  GLU72       0.1161
     32  CD        47.2320  -24.0650    9.4630 C.2    72  GLU72       0.3649
     33  OE1       47.1440  -23.5080   10.5840 O.co2  72  GLU72      -0.2457
     34  OE2       47.8240  -23.5340    8.4920 O.co2  72  GLU72      -0.2457
     35  N         47.1250  -28.7770   10.1480 N.am   73  VAL73      -0.1980
     36  CA        48.2930  -29.4930   10.6550 C.3    73  VAL73       0.1595
     37  C         49.3530  -28.5020   11.1220 C.2    73  VAL73       0.2287
     38  O         49.2870  -27.3090   10.7980 O.2    73  VAL73      -0.2864
     39  CB        48.9310  -30.4250    9.6040 C.3    73  VAL73       0.0276
     40  CG1       47.9440  -31.4920    9.1620 C.3    73  VAL73       0.0022
     41  CG2       49.4680  -29.6330    8.4110 C.3    73  VAL73       0.0022
     42  N         52.4760  -26.2390   11.5670 N.3    75  LYS75      -0.1245
     43  CA        52.8670  -25.2940   10.5290 C.3    75  LYS75       0.1561
     44  C         54.0830  -25.7510    9.7030 C.2    75  LYS75       0.2260
     45  O         54.0940  -25.6060    8.4830 O.2    75  LYS75      -0.2867
     46  CB        53.1310  -23.9190   11.1390 C.3    75  LYS75       0.0271
     47  CG        52.7130  -22.7620   10.2440 C.3    75  LYS75       0.0035
     48  CD        51.2080  -22.5510   10.3230 C.3    75  LYS75       0.0206
     49  CE        50.7530  -21.3650    9.4880 C.3    75  LYS75       0.1093
     50  NZ        49.4080  -20.8950    9.9420 N.3    75  LYS75      -0.1314
     51  N         53.1140  -28.4670    7.4520 N.3    78  GLY78      -0.1210
     52  CA        52.1670  -27.8570    6.5330 C.3    78  GLY78       0.1956
     53  C         52.8290  -27.0670    5.4210 C.2    78  GLY78       0.2611
     54  O         52.4510  -27.1790    4.2620 O.2    78  GLY78      -0.2717
     55  N         53.8320  -26.2730    5.7640 N.am   79  ASN79      -0.1974
     56  CA        54.5970  -25.5510    4.7480 C.3    79  ASN79       0.1688
     57  C         55.4220  -26.4460    3.8020 C.2    79  ASN79       0.2292
     58  O         55.4950  -26.1740    2.6110 O.2    79  ASN79      -0.2864
     59  CB        55.4690  -24.4980    5.4140 C.3    79  ASN79       0.1181
     60  CG        54.6790  -23.2630    5.7930 C.2    79  ASN79       0.2629
     61  OD1       53.6340  -22.9930    5.2030 O.2    79  ASN79      -0.2716
     62  ND2       55.1730  -22.5020    6.7630 N.am   79  ASN79      -0.0877
     63  N         52.7970  -27.8810    1.3670 N.3    82  ASN82      -0.1240
     64  CA        52.3320  -26.8980    0.3840 C.3    82  ASN82       0.1653
     65  C         53.3730  -26.5960   -0.6930 C.2    82  ASN82       0.2266
     66  O         53.0610  -26.4450   -1.8750 O.2    82  ASN82      -0.2867
     67  CB        51.9060  -25.6140    1.0880 C.3    82  ASN82       0.1155
     68  CG        50.5450  -25.7350    1.7400 C.2    82  ASN82       0.2627
     69  OD1       50.0060  -26.8330    1.9080 O.2    82  ASN82      -0.2716
     70  ND2       49.9780  -24.5870    2.1180 N.am   82  ASN82      -0.0877
     71  N         53.4630  -29.7010   -2.9480 N.3    85  ARG85      -0.1245
     72  CA        52.3210  -29.6520   -3.8490 C.3    85  ARG85       0.1563
     73  C         52.4500  -28.5530   -4.9120 C.2    85  ARG85       0.2260
     74  O         52.2290  -28.7920   -6.0880 O.2    85  ARG85      -0.2867
     75  CB        51.0180  -29.4730   -3.0760 C.3    85  ARG85       0.0307
     76  CG        49.7880  -29.5860   -3.9540 C.3    85  ARG85       0.0489
     77  CD        48.5430  -29.2130   -3.1910 C.3    85  ARG85       0.2205
     78  NE        48.3410  -30.1300   -2.0710 N.pl3  85  ARG85      -0.0865
     79  CZ        48.3160  -29.7900   -0.7800 C.cat  85  ARG85       0.5346
     80  NH1       48.4690  -28.5200   -0.3930 N.pl3  85  ARG85       0.1354
     81  NH2       48.1150  -30.7360    0.1320 N.pl3  85  ARG85       0.1354
@<TRIPOS>BOND
     1    74    73    2
     2    73    72    1
     3    76    77    1
     4    76    75    1
     5    72    75    1
     6    72    71    1
     7    77    78    1
     8    78    79    2
     9    66    65    2
    10    79    80    1
    11    79    81    1
    12    65    64    1
    13    64    67    1
    14    64    63    1
    15    67    68    1
    16    24    23   ar
    17    68    69    2
    18    68    70   am
    19    25    23   ar
    20    23    22    1
    21    58    57    2
    22     8     6   ar
    23     7     6   ar
    24     6     5    1
    25    57    56    1
    26    22    21    1
    27    54    53    2
    28     1     2    1
    29    21    18    1
    30    56    59    1
    31    56    55    1
    32     5     2    1
    33     4     3    2
    34    61    60    2
    35     2     3    1
    36    59    60    1
    37    53    55   am
    38    53    52    1
    39     3     9   am
    40    18    17    1
    41    18    19    1
    42    60    62   am
    43    17    11   am
    44     9    10    1
    45    52    51    1
    46    11    10    1
    47    11    12    2
    48    10    13    1
    49    20    19    2
    50    13    14    1
    51    41    39    1
    52    45    44    2
    53    34    32   ar
    54    15    14    2
    55    14    16   am
    56    40    39    1
    57    31    32    1
    58    31    30    1
    59    32    33   ar
    60    49    50    1
    61    49    48    1
    62    39    36    1
    63    44    43    1
    64    35    36    1
    65    35    28   am
    66    47    48    1
    67    47    46    1
    68    27    30    1
    69    27    26    1
    70    27    28    1
    71    43    46    1
    72    43    42    1
    73    36    37    1
    74    38    37    2
    75    28    29    2
