@<TRIPOS>MOLECULE
tmp/4bsdA03.pdb
 152 145 0 0 0
SMALL
GASTEIGER

@<TRIPOS>ATOM
      1  N         33.8620  -34.8760   26.5700 N.3    88  TYR88      -0.1241
      2  CA        34.5730  -34.1480   27.6140 C.3    88  TYR88       0.1605
      3  C         35.7910  -33.4740   26.9850 C.2    88  TYR88       0.2264
      4  O         36.5910  -34.1480   26.3290 O.2    88  TYR88      -0.2867
      5  CB        35.0110  -35.0820   28.7420 C.3    88  TYR88       0.0534
      6  CG        35.6090  -34.3710   29.9450 C.ar   88  TYR88      -0.0201
      7  CD1       34.8020  -33.9230   30.9880 C.ar   88  TYR88      -0.0009
      8  CD2       36.9800  -34.1520   30.0430 C.ar   88  TYR88      -0.0009
      9  CE1       35.3400  -33.2780   32.0910 C.ar   88  TYR88       0.0417
     10  CE2       37.5300  -33.5050   31.1400 C.ar   88  TYR88       0.0417
     11  CZ        36.7060  -33.0700   32.1620 C.ar   88  TYR88       0.1957
     12  OH        37.2410  -32.4300   33.2550 O.3    88  TYR88      -0.2866
     13  N         33.6990  -43.2480   36.6280 N.3   124  GLY124     -0.1210
     14  CA        33.6630  -41.7830   36.6430 C.3   124  GLY124      0.1956
     15  C         33.0210  -41.2120   35.3920 C.2   124  GLY124      0.2613
     16  O         33.3810  -41.6010   34.2810 O.2   124  GLY124     -0.2717
     17  N         32.0750  -40.2890   35.5780 N.am  125  THR125     -0.1938
     18  CA        31.2810  -39.7190   34.4770 C.3   125  THR125      0.2028
     19  C         31.3700  -38.1810   34.4500 C.2   125  THR125      0.2643
     20  O         32.2330  -37.6020   35.1070 O.2   125  THR125     -0.2714
     21  CB        29.8010  -40.1560   34.5890 C.3   125  THR125      0.1808
     22  OG1       29.1880  -39.5090   35.7100 O.3   125  THR125     -0.2208
     23  CG2       29.6910  -41.6680   34.7390 C.3   125  THR125      0.0379
     24  N         30.4920  -37.5340   33.6800 N.am  126  THR126     -0.1936
     25  CA        30.4440  -36.0710   33.6010 C.3   126  THR126      0.2028
     26  C         29.1970  -35.5730   32.8640 C.2   126  THR126      0.2642
     27  O         28.5360  -36.3380   32.1690 O.2   126  THR126     -0.2714
     28  CB        31.6920  -35.5100   32.8950 C.3   126  THR126      0.1808
     29  OG1       31.5020  -34.1170   32.6120 O.3   126  THR126     -0.2208
     30  CG2       31.9650  -36.2590   31.5990 C.3   126  THR126      0.0379
     31  N         28.8950  -34.2860   33.0100 N.am  127  SER127     -0.1949
     32  CA        27.7320  -33.6780   32.3510 C.3   127  SER127      0.1924
     33  C         27.9620  -33.4080   30.8620 C.2   127  SER127      0.2314
     34  O         27.0060  -33.2880   30.1030 O.2   127  SER127     -0.2863
     35  CB        27.3240  -32.3780   33.0560 C.3   127  SER127      0.2116
     36  OG        28.3410  -31.3940   32.9740 O.3   127  SER127     -0.2180
     37  N         24.4000  -38.2590   33.1190 N.3   134  SER134     -0.1217
     38  CA        25.8470  -38.2240   32.9500 C.3   134  SER134      0.1889
     39  C         26.3820  -39.5520   32.4440 C.2   134  SER134      0.2288
     40  O         25.8310  -40.6050   32.7510 O.2   134  SER134     -0.2866
     41  CB        26.5390  -37.8770   34.2670 C.3   134  SER134      0.2089
     42  OG        26.2090  -36.5640   34.6790 O.3   134  SER134     -0.2183
     43  N         37.0970  -44.1250   33.2740 N.3   142  TRP142     -0.1241
     44  CA        37.6970  -43.1150   34.1340 C.3   142  TRP142      0.1605
     45  C         38.0480  -43.7480   35.4780 C.2   142  TRP142      0.2264
     46  O         37.1740  -43.9560   36.3260 O.2   142  TRP142     -0.2867
     47  CB        36.7310  -41.9430   34.3300 C.3   142  TRP142      0.0550
     48  CG        37.3730  -40.6700   34.7990 C.ar  142  TRP142      0.0003
     49  CD1       38.5770  -40.5280   35.4380 C.ar  142  TRP142      0.0946
     50  CD2       36.8180  -39.3570   34.6960 C.ar  142  TRP142      0.0152
     51  NE1       38.8090  -39.2050   35.7220 N.ar  142  TRP142     -0.2442
     52  CE2       37.7460  -38.4630   35.2780 C.ar  142  TRP142      0.0810
     53  CE3       35.6270  -38.8450   34.1640 C.ar  142  TRP142      0.0012
     54  CZ2       37.5200  -37.0850   35.3420 C.ar  142  TRP142      0.0191
     55  CZ3       35.4030  -37.4740   34.2280 C.ar  142  TRP142      0.0001
     56  CH2       36.3470  -36.6100   34.8140 C.ar  142  TRP142      0.0015
     57  N         39.7070  -43.8830   39.2040 N.3   144  LEU144     -0.1245
     58  CA        39.6600  -42.9180   40.2940 C.3   144  LEU144      0.1561
     59  C         40.2160  -43.5760   41.5570 C.2   144  LEU144      0.2260
     60  O         40.6550  -44.7220   41.5190 O.2   144  LEU144     -0.2867
     61  CB        38.2000  -42.5070   40.5100 C.3   144  LEU144      0.0270
     62  CG        37.8440  -41.0250   40.4890 C.3   144  LEU144      0.0019
     63  CD1       38.4100  -40.3340   39.2570 C.3   144  LEU144      0.0001
     64  CD2       36.3310  -40.8710   40.5440 C.3   144  LEU144      0.0001
     65  N         44.1080  -37.3080   32.4390 N.3   174  HIS174     -0.1241
     66  CA        43.1790  -36.2700   32.8650 C.3   174  HIS174      0.1621
     67  C         43.9310  -35.1420   33.5580 C.2   174  HIS174      0.2264
     68  O         44.7210  -35.3900   34.4710 O.2   174  HIS174     -0.2867
     69  CB        42.1270  -36.8500   33.8050 C.3   174  HIS174      0.0745
     70  CG        41.1640  -35.8320   34.3260 C.ar  174  HIS174      0.0817
     71  ND1       41.1530  -35.4210   35.6420 N.ar  174  HIS174     -0.2268
     72  CD2       40.1900  -35.1270   33.7040 C.ar  174  HIS174      0.1154
     73  CE1       40.2060  -34.5150   35.8100 C.ar  174  HIS174      0.1986
     74  NE2       39.6090  -34.3160   34.6480 N.ar  174  HIS174     -0.2212
     75  N         43.0530  -32.0740   35.7530 N.3   176  SER176     -0.1202
     76  CA        41.9340  -31.5250   36.5140 C.3   176  SER176      0.2020
     77  C         42.0450  -30.0070   36.6720 C.2   176  SER176      0.2618
     78  O         43.0980  -29.4180   36.4300 O.2   176  SER176     -0.2717
     79  CB        41.8330  -32.2070   37.8810 C.3   176  SER176      0.2103
     80  OG        40.5350  -32.0600   38.4300 O.3   176  SER176     -0.2182
     81  N         40.9400  -29.3920   37.0850 N.am  177  VAL177     -0.1979
     82  CA        40.8120  -27.9330   37.1220 C.3   177  VAL177      0.1595
     83  C         41.7770  -27.3010   38.1290 C.2   177  VAL177      0.2287
     84  O         42.3700  -26.2570   37.8550 O.2   177  VAL177     -0.2864
     85  CB        39.3590  -27.5070   37.4600 C.3   177  VAL177      0.0276
     86  CG1       39.2420  -25.9900   37.5620 C.3   177  VAL177      0.0022
     87  CG2       38.3850  -28.0490   36.4170 C.3   177  VAL177      0.0022
     88  N         41.6990  -30.5180   43.0500 N.3   181  GLU181     -0.1245
     89  CA        40.7940  -31.4910   42.4220 C.3   181  GLU181      0.1567
     90  C         41.5160  -32.7150   41.8710 C.2   181  GLU181      0.2260
     91  O         40.9030  -33.7690   41.7220 O.2   181  GLU181     -0.2867
     92  CB        39.9380  -30.8360   41.3300 C.3   181  GLU181      0.0388
     93  CG        39.0500  -29.6910   41.8180 C.3   181  GLU181      0.1160
     94  CD        38.5150  -29.8910   43.2330 C.2   181  GLU181      0.3649
     95  OE1       39.2420  -29.5740   44.2030 O.co2 181  GLU181     -0.2457
     96  OE2       37.3620  -30.3530   43.3780 O.co2 181  GLU181     -0.2457
     97  N         41.8180  -34.6060   45.2070 N.3   184  LYS184     -0.1231
     98  CA        40.4950  -35.1670   45.5050 C.3   184  LYS184      0.1693
     99  C         40.2480  -36.4720   44.7480 C.2   184  LYS184      0.2591
    100  O         39.8440  -37.4740   45.3430 O.2   184  LYS184     -0.2718
    101  CB        39.3820  -34.1710   45.1720 C.3   184  LYS184      0.0285
    102  CG        38.0030  -34.8080   45.0850 C.3   184  LYS184      0.0035
    103  CD        36.8910  -33.7780   44.9920 C.3   184  LYS184      0.0206
    104  CE        35.5840  -34.4430   44.5800 C.3   184  LYS184      0.1093
    105  NZ        34.3780  -33.7200   45.0710 N.3   184  LYS184     -0.1314
    106  N         40.4890  -36.4520   43.4370 N.am  185  LEU185     -0.1980
    107  CA        40.2050  -37.6110   42.5880 C.3   185  LEU185      0.1596
    108  C         41.1600  -38.7800   42.8400 C.2   185  LEU185      0.2287
    109  O         40.7090  -39.9000   43.0780 O.2   185  LEU185     -0.2864
    110  CB        40.2260  -37.2250   41.1000 C.3   185  LEU185      0.0297
    111  CG        39.1680  -36.2330   40.5920 C.3   185  LEU185      0.0022
    112  CD1       39.2770  -36.0880   39.0800 C.3   185  LEU185      0.0001
    113  CD2       37.7490  -36.6220   40.9820 C.3   185  LEU185      0.0001
    114  N         36.4720  -22.5070   29.7500 N.3   213  GLN213     -0.1245
    115  CA        35.3320  -23.4200   29.7310 C.3   213  GLN213      0.1566
    116  C         34.9550  -23.8470   28.3190 C.2   213  GLN213      0.2260
    117  O         34.5050  -23.0350   27.5170 O.2   213  GLN213     -0.2867
    118  CB        34.1140  -22.8050   30.4260 C.3   213  GLN213      0.0367
    119  CG        34.1960  -22.8330   31.9470 C.3   213  GLN213      0.0905
    120  CD        32.8470  -22.6580   32.6240 C.2   213  GLN213      0.2608
    121  OE1       31.7990  -22.9010   32.0220 O.2   213  GLN213     -0.2717
    122  NE2       32.8680  -22.2450   33.8940 N.am  213  GLN213     -0.0878
    123  N         32.4880  -26.7810   26.5080 N.3   215  ASN215     -0.1225
    124  CA        31.3070  -27.5750   26.8940 C.3   215  ASN215      0.1785
    125  C         30.8280  -27.2820   28.3240 C.2   215  ASN215      0.2598
    126  O         30.2020  -28.1320   28.9620 O.2   215  ASN215     -0.2718
    127  CB        31.5740  -29.0820   26.7310 C.3   215  ASN215      0.1169
    128  CG        31.7070  -29.5050   25.2810 C.2   215  ASN215      0.2627
    129  OD1       30.9890  -29.0180   24.4090 O.2   215  ASN215     -0.2716
    130  ND2       32.6140  -30.4360   25.0210 N.am  215  ASN215     -0.0877
    131  N         31.1130  -26.0730   28.8090 N.am  216  GLY216     -0.1942
    132  CA        30.8290  -25.6910   30.1930 C.3   216  GLY216      0.2014
    133  C         31.8300  -26.2060   31.2200 C.2   216  GLY216      0.2639
    134  O         31.6240  -26.0340   32.4240 O.2   216  GLY216     -0.2714
    135  N         32.9200  -26.8150   30.7520 N.am  217  LEU217     -0.1963
    136  CA        33.9000  -27.4570   31.6310 C.3   217  LEU217      0.1728
    137  C         35.3270  -26.9730   31.3690 C.2   217  LEU217      0.2617
    138  O         35.7510  -26.8430   30.2190 O.2   217  LEU217     -0.2715
    139  CB        33.8270  -28.9690   31.4520 C.3   217  LEU217      0.0311
    140  CG        32.5490  -29.5810   32.0310 C.3   217  LEU217      0.0022
    141  CD1       31.9380  -30.5700   31.0560 C.3   217  LEU217      0.0001
    142  CD2       32.8100  -30.2250   33.3880 C.3   217  LEU217      0.0001
    143  N         36.0610  -26.7240   32.4520 N.am  218  SER218     -0.1936
    144  CA        37.4260  -26.2010   32.3870 C.3   218  SER218      0.2055
    145  C         38.4820  -27.2950   32.4900 C.2   218  SER218      0.2643
    146  O         39.6750  -27.0040   32.4550 O.2   218  SER218     -0.2714
    147  CB        37.6400  -25.1730   33.4990 C.3   218  SER218      0.2130
    148  OG        37.0160  -23.9450   33.1640 O.3   218  SER218     -0.2179
    149  N         38.0380  -28.5430   32.6320 N.am  219  GLY219     -0.1954
    150  CA        38.9380  -29.6920   32.6750 C.3   219  GLY219      0.1869
    151  C         39.3370  -30.1330   31.2780 C.2   219  GLY219      0.2309
    152  O         38.6330  -29.8380   30.3180 O.2   219  GLY219     -0.2863
@<TRIPOS>BOND
     1   129   128    2
     2   130   128   am
     3   128   127    1
     4     4     3    2
     5   123   124    1
     6     1     2    1
     7   127   124    1
     8   124   125    1
     9     3     2    1
    10   117   116    2
    11     2     5    1
    12   116   115    1
    13   125   131   am
    14   125   126    2
    15     5     6    1
    16   131   132    1
    17   115   114    1
    18   115   118    1
    19     6     8   ar
    20     6     7   ar
    21     8    10   ar
    22    34    33    2
    23   132   133    1
    24   138   137    2
    25   152   151    2
    26   118   119    1
    27   135   133   am
    28   135   136    1
    29    33    32    1
    30     7     9   ar
    31   141   140    1
    32    10    11   ar
    33   133   134    2
    34   151   150    1
    35   137   136    1
    36   137   143   am
    37   139   136    1
    38   139   140    1
    39    30    28    1
    40   119   120    1
    41   121   120    2
    42   140   142    1
    43     9    11   ar
    44    11    12    1
    45    27    26    2
    46    32    31    1
    47    32    35    1
    48   144   143    1
    49   144   145    1
    50   144   147    1
    51    65    66    1
    52    39    40    2
    53    39    38    1
    54   146   145    2
    55   145   149   am
    56    29    28    1
    57   120   122   am
    58   149   150    1
    59    26    31   am
    60    26    25    1
    61    66    67    1
    62    66    69    1
    63    28    25    1
    64    38    37    1
    65    38    41    1
    66    36    35    1
    67   148   147    1
    68    43    44    1
    69    67    68    2
    70    25    24    1
    71    24    19   am
    72    72    70   ar
    73    72    74   ar
    74    69    70    1
    75    44    47    1
    76    44    45    1
    77    53    55   ar
    78    53    50   ar
    79    55    56   ar
    80    41    42    1
    81    16    15    2
    82    70    71   ar
    83    47    48    1
    84    19    18    1
    85    19    20    2
    86    18    21    1
    87    18    17    1
    88    21    23    1
    89    21    22    1
    90    74    73   ar
    91    50    48   ar
    92    50    52   ar
    93    48    49   ar
    94    56    54   ar
    95    52    54   ar
    96    52    51   ar
    97    15    17   am
    98    15    14    1
    99    49    51   ar
   100    45    46    2
   101    71    73   ar
   102    75    76    1
   103    87    85    1
   104    78    77    2
   105    76    77    1
   106    76    79    1
   107    13    14    1
   108    77    81   am
   109    81    82    1
   110    82    85    1
   111    82    83    1
   112    85    86    1
   113    84    83    2
   114    79    80    1
   115   112   111    1
   116    57    58    1
   117    63    62    1
   118    58    61    1
   119    58    59    1
   120    62    61    1
   121    62    64    1
   122   111   113    1
   123   111   110    1
   124   110   107    1
   125    92    93    1
   126    92    89    1
   127    60    59    2
   128    91    90    2
   129    93    94    1
   130    90    89    1
   131    89    88    1
   132   107   108    1
   133   107   106    1
   134   108   109    2
   135    94    96   ar
   136    94    95   ar
   137   106    99   am
   138   104   103    1
   139   104   105    1
   140    99   100    2
   141    99    98    1
   142   103   102    1
   143   102   101    1
   144   101    98    1
   145    97    98    1
