@<TRIPOS>MOLECULE
tmp/4bseA01.pdb
 127 120 0 0 0
SMALL
GASTEIGER

@<TRIPOS>ATOM
      1  N         33.8610  -34.7930   26.6740 N.3    88  TYR88      -0.1241
      2  CA        34.6050  -34.0830   27.7050 C.3    88  TYR88       0.1605
      3  C         35.8010  -33.3920   27.0390 C.2    88  TYR88       0.2264
      4  O         36.6120  -34.0590   26.3870 O.2    88  TYR88      -0.2867
      5  CB        35.0750  -35.0290   28.8120 C.3    88  TYR88       0.0534
      6  CG        35.6140  -34.3090   30.0310 C.ar   88  TYR88      -0.0201
      7  CD1       36.9500  -33.9100   30.1020 C.ar   88  TYR88      -0.0009
      8  CD2       34.7870  -34.0020   31.1090 C.ar   88  TYR88      -0.0009
      9  CE1       37.4460  -33.2390   31.2110 C.ar   88  TYR88       0.0417
     10  CE2       35.2750  -33.3340   32.2210 C.ar   88  TYR88       0.0417
     11  CZ        36.6040  -32.9570   32.2690 C.ar   88  TYR88       0.1957
     12  OH        37.0830  -32.2930   33.3730 O.3    88  TYR88      -0.2866
     13  N         33.6920  -43.3240   36.5370 N.3   124  GLY124     -0.1210
     14  CA        33.6670  -41.8560   36.5210 C.3   124  GLY124      0.1956
     15  C         32.9140  -41.3040   35.3250 C.2   124  GLY124      0.2612
     16  O         33.0210  -41.8430   34.2230 O.2   124  GLY124     -0.2717
     17  N         32.1540  -40.2320   35.5500 N.am  125  ALA125     -0.1965
     18  CA        31.2590  -39.6580   34.5310 C.3   125  ALA125      0.1728
     19  C         31.3120  -38.1210   34.5130 C.2   125  ALA125      0.2617
     20  O         32.1210  -37.5190   35.2140 O.2   125  ALA125     -0.2715
     21  CB        29.8300  -40.1370   34.7690 C.3   125  ALA125      0.0334
     22  N         30.4500  -37.5020   33.7020 N.am  126  THR126     -0.1937
     23  CA        30.3940  -36.0440   33.5840 C.3   126  THR126      0.2028
     24  C         29.1360  -35.5660   32.8640 C.2   126  THR126      0.2642
     25  O         28.4620  -36.3430   32.1970 O.2   126  THR126     -0.2714
     26  CB        31.6220  -35.4920   32.8330 C.3   126  THR126      0.1808
     27  OG1       31.3810  -34.1330   32.4460 O.3   126  THR126     -0.2208
     28  CG2       31.9160  -36.3050   31.5870 C.3   126  THR126      0.0379
     29  N         28.8420  -34.2750   32.9960 N.am  127  SER127     -0.1949
     30  CA        27.6890  -33.6560   32.3350 C.3   127  SER127      0.1924
     31  C         27.9700  -33.2920   30.8750 C.2   127  SER127      0.2314
     32  O         27.0530  -32.9820   30.1270 O.2   127  SER127     -0.2863
     33  CB        27.2270  -32.4110   33.1040 C.3   127  SER127      0.2116
     34  OG        28.2670  -31.4530   33.2430 O.3   127  SER127     -0.2180
     35  N         24.2890  -38.1790   33.1120 N.3   134  SER134     -0.1217
     36  CA        25.7340  -38.0880   32.9550 C.3   134  SER134      0.1889
     37  C         26.3360  -39.4310   32.6090 C.2   134  SER134      0.2288
     38  O         25.9650  -40.4430   33.1890 O.2   134  SER134     -0.2866
     39  CB        26.3890  -37.5520   34.2290 C.3   134  SER134      0.2089
     40  OG        26.1330  -36.1670   34.3800 O.3   134  SER134     -0.2183
     41  N         37.0100  -44.0450   33.3510 N.3   142  TRP142     -0.1241
     42  CA        37.6070  -43.0090   34.1920 C.3   142  TRP142      0.1605
     43  C         37.9360  -43.5760   35.5810 C.2   142  TRP142      0.2264
     44  O         37.0500  -43.7270   36.4370 O.2   142  TRP142     -0.2867
     45  CB        36.6620  -41.8040   34.3050 C.3   142  TRP142      0.0550
     46  CG        37.2990  -40.5450   34.8550 C.ar  142  TRP142      0.0003
     47  CD1       38.4600  -40.4440   35.5810 C.ar  142  TRP142      0.0946
     48  CD2       36.7810  -39.2150   34.7490 C.ar  142  TRP142      0.0152
     49  NE1       38.6980  -39.1340   35.9140 N.ar  142  TRP142     -0.2442
     50  CE2       37.6840  -38.3580   35.4170 C.ar  142  TRP142      0.0810
     51  CE3       35.6420  -38.6630   34.1480 C.ar  142  TRP142      0.0012
     52  CZ2       37.4870  -36.9740   35.4980 C.ar  142  TRP142      0.0191
     53  CZ3       35.4460  -37.2890   34.2310 C.ar  142  TRP142      0.0001
     54  CH2       36.3670  -36.4590   34.9010 C.ar  142  TRP142      0.0015
     55  N         39.5790  -43.7780   39.3170 N.3   144  LEU144     -0.1245
     56  CA        39.6260  -42.8800   40.4580 C.3   144  LEU144      0.1561
     57  C         40.2420  -43.5800   41.6710 C.2   144  LEU144      0.2260
     58  O         40.6940  -44.7160   41.5760 O.2   144  LEU144     -0.2867
     59  CB        38.1920  -42.4500   40.7890 C.3   144  LEU144      0.0270
     60  CG        37.7080  -41.0640   40.3750 C.3   144  LEU144      0.0019
     61  CD1       38.2860  -40.6250   39.0410 C.3   144  LEU144      0.0001
     62  CD2       36.1880  -41.0610   40.3390 C.3   144  LEU144      0.0001
     63  N         43.9450  -37.2450   32.5460 N.3   174  HIS174     -0.1241
     64  CA        43.0580  -36.2100   33.0450 C.3   174  HIS174      0.1621
     65  C         43.8160  -35.1140   33.7840 C.2   174  HIS174      0.2264
     66  O         44.4980  -35.3720   34.7810 O.2   174  HIS174     -0.2867
     67  CB        42.0080  -36.7870   33.9740 C.3   174  HIS174      0.0745
     68  CG        41.1120  -35.7480   34.5590 C.ar  174  HIS174      0.0817
     69  ND1       41.0660  -35.4780   35.9080 N.ar  174  HIS174     -0.2268
     70  CD2       40.2560  -34.8800   33.9690 C.ar  174  HIS174      0.1154
     71  CE1       40.1970  -34.5070   36.1280 C.ar  174  HIS174      0.1986
     72  NE2       39.6940  -34.1250   34.9670 N.ar  174  HIS174     -0.2212
     73  N         43.0420  -32.1170   35.9740 N.3   176  SER176     -0.1202
     74  CA        41.9580  -31.4940   36.7240 C.3   176  SER176      0.2020
     75  C         42.0840  -29.9680   36.7200 C.2   176  SER176      0.2618
     76  O         43.0890  -29.4100   36.2750 O.2   176  SER176     -0.2717
     77  CB        41.9130  -32.0320   38.1500 C.3   176  SER176      0.2103
     78  OG        40.6780  -31.6990   38.7620 O.3   176  SER176     -0.2182
     79  N         41.0510  -29.3030   37.2240 N.am  177  VAL177     -0.1979
     80  CA        40.9440  -27.8450   37.1540 C.3   177  VAL177      0.1595
     81  C         41.8710  -27.1470   38.1630 C.2   177  VAL177      0.2287
     82  O         42.0960  -25.9330   38.0810 O.2   177  VAL177     -0.2864
     83  CB        39.4730  -27.4030   37.3770 C.3   177  VAL177      0.0276
     84  CG1       39.3250  -25.8830   37.3460 C.3   177  VAL177      0.0022
     85  CG2       38.5640  -28.0430   36.3330 C.3   177  VAL177      0.0022
     86  N         41.8700  -30.2070   43.2700 N.3   181  GLU181     -0.1245
     87  CA        40.9030  -31.1300   42.6500 C.3   181  GLU181      0.1567
     88  C         41.5350  -32.3870   42.0620 C.2   181  GLU181      0.2260
     89  O         40.8520  -33.3940   41.8910 O.2   181  GLU181     -0.2867
     90  CB        40.0310  -30.4090   41.6120 C.3   181  GLU181      0.0388
     91  CG        39.1800  -29.2850   42.2070 C.3   181  GLU181      0.1160
     92  CD        38.8850  -29.4720   43.6940 C.2   181  GLU181      0.3649
     93  OE1       38.1710  -30.4380   44.0390 O.co2 181  GLU181     -0.2457
     94  OE2       39.3670  -28.6590   44.5180 O.co2 181  GLU181     -0.2457
     95  N         41.9540  -34.6690   45.3490 N.3   184  LYS184     -0.1231
     96  CA        40.6320  -35.2060   45.6720 C.3   184  LYS184      0.1693
     97  C         40.3880  -36.5340   44.9600 C.2   184  LYS184      0.2591
     98  O         40.1180  -37.5550   45.5960 O.2   184  LYS184     -0.2718
     99  CB        39.5320  -34.2140   45.2930 C.3   184  LYS184      0.0285
    100  CG        38.1380  -34.8190   45.3440 C.3   184  LYS184      0.0035
    101  CD        37.0460  -33.7920   45.1240 C.3   184  LYS184      0.0206
    102  CE        35.6900  -34.4770   45.0530 C.3   184  LYS184      0.1093
    103  NZ        34.5650  -33.5050   45.0530 N.3   184  LYS184     -0.1314
    104  N         40.4980  -36.5100   43.6370 N.am  185  LEU185     -0.1980
    105  CA        40.1880  -37.6780   42.8220 C.3   185  LEU185      0.1596
    106  C         41.1790  -38.8270   43.0180 C.2   185  LEU185      0.2287
    107  O         40.7690  -39.9810   43.1620 O.2   185  LEU185     -0.2864
    108  CB        40.1140  -37.2920   41.3410 C.3   185  LEU185      0.0297
    109  CG        39.0330  -36.2820   40.9310 C.3   185  LEU185      0.0022
    110  CD1       39.1140  -36.0260   39.4320 C.3   185  LEU185      0.0001
    111  CD2       37.6340  -36.7410   41.3170 C.3   185  LEU185      0.0001
    112  N         31.3080  -25.5100   29.0560 N.3   216  GLY216     -0.1210
    113  CA        31.1380  -25.0520   30.4340 C.3   216  GLY216      0.1956
    114  C         32.1130  -25.6530   31.4390 C.2   216  GLY216      0.2611
    115  O         31.9880  -25.4060   32.6400 O.2   216  GLY216     -0.2717
    116  N         33.0910  -26.4230   30.9570 N.am  217  LEU217     -0.1979
    117  CA        34.0300  -27.1410   31.8280 C.3   217  LEU217      0.1596
    118  C         35.4850  -26.7650   31.5320 C.2   217  LEU217      0.2287
    119  O         35.8700  -26.6210   30.3730 O.2   217  LEU217     -0.2864
    120  CB        33.8430  -28.6460   31.6640 C.3   217  LEU217      0.0297
    121  CG        32.4020  -29.1490   31.7810 C.3   217  LEU217      0.0022
    122  CD1       32.3470  -30.6330   31.4690 C.3   217  LEU217      0.0001
    123  CD2       31.8230  -28.8720   33.1630 C.3   217  LEU217      0.0001
    124  N         38.2530  -28.4710   32.7300 N.3   219  GLY219     -0.1225
    125  CA        39.1570  -29.6140   32.7790 C.3   219  GLY219      0.1811
    126  C         39.4850  -30.1010   31.3820 C.2   219  GLY219      0.2280
    127  O         38.7600  -29.8110   30.4350 O.2   219  GLY219     -0.2866
@<TRIPOS>BOND
     1     4     3    2
     2     1     2    1
     3     3     2    1
     4     2     5    1
     5     5     6    1
     6   112   113    1
     7     6     7   ar
     8     6     8   ar
     9     7     9   ar
    10    32    31    2
    11   119   118    2
    12   113   114    1
    13   127   126    2
    14    31    30    1
    15   116   114   am
    16   116   117    1
    17     8    10   ar
    18     9    11   ar
    19   126   125    1
    20   114   115    2
    21   122   121    1
    22   118   117    1
    23    28    26    1
    24   120   121    1
    25   120   117    1
    26   121   123    1
    27    25    24    2
    28    10    11   ar
    29    11    12    1
    30    30    29    1
    31    30    33    1
    32    27    26    1
    33    63    64    1
    34    37    36    1
    35    37    38    2
    36   124   125    1
    37    26    23    1
    38    24    29   am
    39    24    23    1
    40    36    35    1
    41    36    39    1
    42    64    65    1
    43    64    67    1
    44    33    34    1
    45    41    42    1
    46    23    22    1
    47    22    19   am
    48    65    66    2
    49    70    68   ar
    50    70    72   ar
    51    67    68    1
    52    51    53   ar
    53    51    48   ar
    54    42    45    1
    55    42    43    1
    56    16    15    2
    57    39    40    1
    58    53    54   ar
    59    45    46    1
    60    19    18    1
    61    19    20    2
    62    18    21    1
    63    18    17    1
    64    68    69   ar
    65    48    46   ar
    66    48    50   ar
    67    46    47   ar
    68    54    52   ar
    69    72    71   ar
    70    15    17   am
    71    15    14    1
    72    50    52   ar
    73    50    49   ar
    74    47    49   ar
    75    43    44    2
    76    69    71   ar
    77    73    74    1
    78    76    75    2
    79    85    83    1
    80    14    13    1
    81    75    74    1
    82    75    79   am
    83    74    77    1
    84    80    79    1
    85    80    83    1
    86    80    81    1
    87    84    83    1
    88    82    81    2
    89    77    78    1
    90    61    60    1
    91    55    56    1
    92   110   109    1
    93    62    60    1
    94    60    59    1
    95    56    59    1
    96    56    57    1
    97   109   111    1
    98   109   108    1
    99   108   105    1
   100    58    57    2
   101    90    91    1
   102    90    87    1
   103    89    88    2
   104    88    87    1
   105    91    92    1
   106    87    86    1
   107   105   106    1
   108   105   104    1
   109   106   107    2
   110   104    97   am
   111    92    93   ar
   112    92    94   ar
   113    97    98    2
   114    97    96    1
   115   102   103    1
   116   102   101    1
   117   101   100    1
   118    99   100    1
   119    99    96    1
   120    95    96    1
