@<TRIPOS>MOLECULE
tmp/4bshA01.pdb
 134 126 0 0 0
SMALL
GASTEIGER

@<TRIPOS>ATOM
      1  N         33.9380  -34.7480   26.7730 N.3    88  TYR88      -0.1241
      2  CA        34.7430  -34.0730   27.7800 C.3    88  TYR88       0.1605
      3  C         36.0030  -33.5340   27.0920 C.2    88  TYR88       0.2264
      4  O         36.7520  -34.3140   26.4890 O.2    88  TYR88      -0.2867
      5  CB        35.1100  -35.0320   28.9120 C.3    88  TYR88       0.0534
      6  CG        35.7540  -34.3580   30.0970 C.ar   88  TYR88      -0.0201
      7  CD1       37.1100  -34.0530   30.0900 C.ar   88  TYR88      -0.0009
      8  CD2       35.0090  -34.0140   31.2240 C.ar   88  TYR88      -0.0009
      9  CE1       37.7070  -33.4260   31.1610 C.ar   88  TYR88       0.0417
     10  CE2       35.6060  -33.3910   32.3130 C.ar   88  TYR88       0.0417
     11  CZ        36.9570  -33.1020   32.2740 C.ar   88  TYR88       0.1957
     12  OH        37.5780  -32.4920   33.3310 O.3    88  TYR88      -0.2866
     13  N         33.6720  -43.0950   36.6300 N.3   124  GLY124     -0.1210
     14  CA        33.6590  -41.6370   36.5540 C.3   124  GLY124      0.1956
     15  C         32.7920  -41.1760   35.3940 C.2   124  GLY124      0.2612
     16  O         32.8610  -41.7440   34.2910 O.2   124  GLY124     -0.2717
     17  N         31.9690  -40.1600   35.6510 N.am  125  ALA125     -0.1965
     18  CA        31.0620  -39.6020   34.6530 C.3   125  ALA125      0.1728
     19  C         31.0980  -38.0720   34.6600 C.2   125  ALA125      0.2617
     20  O         31.7050  -37.4640   35.5310 O.2   125  ALA125     -0.2715
     21  CB        29.6460  -40.0940   34.9010 C.3   125  ALA125      0.0334
     22  N         30.4360  -37.4630   33.6790 N.am  126  THR126     -0.1937
     23  CA        30.4160  -36.0130   33.5400 C.3   126  THR126      0.2028
     24  C         29.2110  -35.5370   32.7420 C.2   126  THR126      0.2642
     25  O         28.7390  -36.2350   31.8430 O.2   126  THR126     -0.2714
     26  CB        31.6950  -35.4960   32.8440 C.3   126  THR126      0.1808
     27  OG1       31.5740  -34.0880   32.5870 O.3   126  THR126     -0.2208
     28  CG2       31.9430  -36.2190   31.5260 C.3   126  THR126      0.0379
     29  N         28.7470  -34.3270   33.0530 N.am  127  SER127     -0.1949
     30  CA        27.6580  -33.6850   32.3080 C.3   127  SER127      0.1924
     31  C         28.0420  -33.3010   30.8750 C.2   127  SER127      0.2314
     32  O         27.1720  -33.0070   30.0630 O.2   127  SER127     -0.2863
     33  CB        27.1710  -32.4410   33.0380 C.3   127  SER127      0.2116
     34  OG        28.2380  -31.5400   33.2560 O.3   127  SER127     -0.2180
     35  N         24.4390  -38.1340   33.0110 N.3   134  SER134     -0.1217
     36  CA        25.8800  -38.0160   32.8430 C.3   134  SER134      0.1889
     37  C         26.4890  -39.3650   32.5230 C.2   134  SER134      0.2288
     38  O         26.0520  -40.3880   33.0350 O.2   134  SER134     -0.2866
     39  CB        26.5320  -37.4500   34.0970 C.3   134  SER134      0.2089
     40  OG        26.0790  -36.1300   34.3440 O.3   134  SER134     -0.2183
     41  N         36.9400  -44.0480   33.4210 N.3   142  TRP142     -0.1241
     42  CA        37.5010  -43.0240   34.2760 C.3   142  TRP142      0.1605
     43  C         37.7810  -43.6410   35.6520 C.2   142  TRP142      0.2264
     44  O         36.8660  -43.8290   36.4460 O.2   142  TRP142     -0.2867
     45  CB        36.5230  -41.8550   34.3920 C.3   142  TRP142      0.0550
     46  CG        37.1290  -40.6000   34.9110 C.ar  142  TRP142      0.0003
     47  CD1       38.2950  -40.4690   35.6200 C.ar  142  TRP142      0.0946
     48  CD2       36.5850  -39.2890   34.7900 C.ar  142  TRP142      0.0152
     49  NE1       38.5140  -39.1540   35.9290 N.ar  142  TRP142     -0.2442
     50  CE2       37.4810  -38.4040   35.4320 C.ar  142  TRP142      0.0810
     51  CE3       35.4290  -38.7700   34.1980 C.ar  142  TRP142      0.0012
     52  CZ2       37.2570  -37.0240   35.4920 C.ar  142  TRP142      0.0191
     53  CZ3       35.2070  -37.3980   34.2550 C.ar  142  TRP142      0.0001
     54  CH2       36.1160  -36.5420   34.9000 C.ar  142  TRP142      0.0015
     55  N         39.1650  -43.8600   39.4030 N.3   144  LEU144     -0.1245
     56  CA        39.0880  -42.8850   40.4760 C.3   144  LEU144      0.1561
     57  C         39.4120  -43.5720   41.8040 C.2   144  LEU144      0.2260
     58  O         39.2870  -44.7850   41.9120 O.2   144  LEU144     -0.2867
     59  CB        37.6610  -42.3310   40.5060 C.3   144  LEU144      0.0270
     60  CG        37.4830  -40.8270   40.6530 C.3   144  LEU144      0.0019
     61  CD1       37.9630  -40.1120   39.3940 C.3   144  LEU144      0.0001
     62  CD2       36.0240  -40.5060   40.9220 C.3   144  LEU144      0.0001
     63  N         44.1880  -37.3510   32.7030 N.3   174  HIS174     -0.1241
     64  CA        43.2240  -36.3390   33.0900 C.3   174  HIS174      0.1621
     65  C         43.9080  -35.1800   33.8250 C.2   174  HIS174      0.2264
     66  O         44.5670  -35.3890   34.8400 O.2   174  HIS174     -0.2867
     67  CB        42.1210  -36.9370   33.9530 C.3   174  HIS174      0.0745
     68  CG        41.1490  -35.9180   34.4440 C.ar  174  HIS174      0.0817
     69  ND1       40.9280  -35.6810   35.7830 N.ar  174  HIS174     -0.2268
     70  CD2       40.3840  -35.0270   33.7720 C.ar  174  HIS174      0.1154
     71  CE1       40.0440  -34.7080   35.9150 C.ar  174  HIS174      0.1986
     72  NE2       39.7000  -34.2910   34.7090 N.ar  174  HIS174     -0.2212
     73  N         42.9230  -32.1000   35.8800 N.3   176  SER176     -0.1202
     74  CA        41.8440  -31.4060   36.5680 C.3   176  SER176      0.2020
     75  C         42.0120  -29.9000   36.4250 C.2   176  SER176      0.2619
     76  O         43.0980  -29.4110   36.1110 O.2   176  SER176     -0.2717
     77  CB        41.8250  -31.7870   38.0490 C.3   176  SER176      0.2103
     78  OG        41.7350  -33.1950   38.2090 O.3   176  SER176     -0.2182
     79  N         40.9310  -29.1670   36.6630 N.am  177  GLY177     -0.1956
     80  CA        40.9670  -27.7110   36.6300 C.3   177  GLY177      0.1869
     81  C         41.6960  -27.0740   37.8130 C.2   177  GLY177      0.2309
     82  O         41.8520  -25.8540   37.8590 O.2   177  GLY177     -0.2863
     83  N         41.2120  -30.2550   43.1510 N.3   181  GLU181     -0.1245
     84  CA        40.3500  -31.1720   42.4170 C.3   181  GLU181      0.1567
     85  C         41.0600  -32.4780   42.0550 C.2   181  GLU181      0.2260
     86  O         40.4520  -33.5390   42.1170 O.2   181  GLU181     -0.2867
     87  CB        39.7870  -30.4820   41.1740 C.3   181  GLU181      0.0388
     88  CG        38.4830  -31.0820   40.6610 C.3   181  GLU181      0.1160
     89  CD        37.3150  -30.9150   41.6360 C.2   181  GLU181      0.3649
     90  OE1       37.4820  -30.2780   42.7110 O.co2 181  GLU181     -0.2457
     91  OE2       36.2180  -31.4390   41.3200 O.co2 181  GLU181     -0.2457
     92  N         41.3390  -34.5100   45.4170 N.3   184  LYS184     -0.1231
     93  CA        40.0020  -35.0550   45.6660 C.3   184  LYS184      0.1693
     94  C         39.6930  -36.3280   44.8580 C.2   184  LYS184      0.2591
     95  O         39.1200  -37.2770   45.4010 O.2   184  LYS184     -0.2718
     96  CB        38.9390  -33.9940   45.3900 C.3   184  LYS184      0.0285
     97  CG        37.5060  -34.5050   45.4620 C.3   184  LYS184      0.0035
     98  CD        36.5200  -33.4670   44.9520 C.3   184  LYS184      0.0206
     99  CE        35.2170  -34.1060   44.4910 C.3   184  LYS184      0.1093
    100  NZ        34.3220  -34.4270   45.6350 N.3   184  LYS184     -0.1314
    101  N         40.0640  -36.3430   43.5760 N.am  185  LEU185     -0.1980
    102  CA        39.7890  -37.4890   42.7120 C.3   185  LEU185      0.1596
    103  C         40.7650  -38.6540   42.9030 C.2   185  LEU185      0.2287
    104  O         40.3430  -39.8050   42.8830 O.2   185  LEU185     -0.2864
    105  CB        39.7910  -37.0770   41.2260 C.3   185  LEU185      0.0297
    106  CG        38.7430  -36.0700   40.7230 C.3   185  LEU185      0.0022
    107  CD1       38.8060  -35.9700   39.2070 C.3   185  LEU185      0.0001
    108  CD2       37.3280  -36.4230   41.1460 C.3   185  LEU185      0.0001
    109  N         36.6040  -22.7210   30.1350 N.3   213  GLN213     -0.1245
    110  CA        35.5820  -23.7470   30.0970 C.3   213  GLN213      0.1566
    111  C         35.2200  -24.1130   28.6670 C.2   213  GLN213      0.2260
    112  O         34.8940  -23.2360   27.8760 O.2   213  GLN213     -0.2867
    113  CB        34.3370  -23.2970   30.8570 C.3   213  GLN213      0.0367
    114  CG        34.5360  -23.2690   32.3660 C.3   213  GLN213      0.0905
    115  CD        33.2310  -23.3280   33.1410 C.2   213  GLN213      0.2608
    116  OE1       32.3010  -24.0370   32.7650 O.2   213  GLN213     -0.2717
    117  NE2       33.1660  -22.5900   34.2400 N.am  213  GLN213     -0.0878
    118  N         31.4480  -26.8140   29.1890 N.3   216  GLY216     -0.1210
    119  CA        31.2100  -26.6370   30.6280 C.3   216  GLY216      0.1956
    120  C         32.3110  -27.0900   31.5830 C.2   216  GLY216      0.2611
    121  O         32.1090  -27.0630   32.7940 O.2   216  GLY216     -0.2717
    122  N         33.4660  -27.4940   31.0540 N.am  217  GLN217     -0.1979
    123  CA        34.5540  -28.0600   31.8650 C.3   217  GLN217      0.1601
    124  C         35.8570  -27.2650   31.7440 C.2   217  GLN217      0.2287
    125  O         36.2630  -26.8970   30.6350 O.2   217  GLN217     -0.2864
    126  CB        34.8310  -29.4990   31.4170 C.3   217  GLN217      0.0394
    127  CG        33.6210  -30.4190   31.4800 C.3   217  GLN217      0.0908
    128  CD        33.1510  -30.6580   32.9040 C.2   217  GLN217      0.2608
    129  OE1       33.9540  -30.6940   33.8360 O.2   217  GLN217     -0.2717
    130  NE2       31.8430  -30.8290   33.0770 N.am  217  GLN217     -0.0878
    131  N         38.6190  -28.7190   33.0530 N.3   219  GLY219     -0.1225
    132  CA        39.5950  -29.8020   32.9790 C.3   219  GLY219      0.1811
    133  C         39.8420  -30.1780   31.5290 C.2   219  GLY219      0.2280
    134  O         39.1310  -29.7220   30.6400 O.2   219  GLY219     -0.2866
@<TRIPOS>BOND
     1     4     3    2
     2     1     2    1
     3     3     2    1
     4     2     5    1
     5   112   111    2
     6   111   110    1
     7     5     6    1
     8   118   119    1
     9    32    31    2
    10     7     6   ar
    11     7     9   ar
    12     6     8   ar
    13   110   109    1
    14   110   113    1
    15   119   120    1
    16   125   124    2
    17   134   133    2
    18   113   114    1
    19    31    30    1
    20   122   120   am
    21   122   123    1
    22     9    11   ar
    23     8    10   ar
    24   126   127    1
    25   126   123    1
    26   127   128    1
    27    28    26    1
    28   133   132    1
    29   120   121    2
    30   124   123    1
    31    25    24    2
    32    11    10   ar
    33    11    12    1
    34    30    33    1
    35    30    29    1
    36   114   115    1
    37    37    36    1
    38    37    38    2
    39    27    26    1
    40    63    64    1
    41    24    29   am
    42    24    23    1
    43   116   115    2
    44    36    35    1
    45    36    39    1
    46    26    23    1
    47   128   130   am
    48   128   129    2
    49   132   131    1
    50    33    34    1
    51    64    65    1
    52    64    67    1
    53   115   117   am
    54    41    42    1
    55    23    22    1
    56    22    19   am
    57    70    68   ar
    58    70    72   ar
    59    65    66    2
    60    67    68    1
    61    39    40    1
    62    51    53   ar
    63    51    48   ar
    64    53    54   ar
    65    42    45    1
    66    42    43    1
    67    16    15    2
    68    45    46    1
    69    68    69   ar
    70    18    19    1
    71    18    21    1
    72    18    17    1
    73    19    20    2
    74    72    71   ar
    75    48    46   ar
    76    48    50   ar
    77    54    52   ar
    78    46    47   ar
    79    15    17   am
    80    15    14    1
    81    50    52   ar
    82    50    49   ar
    83    47    49   ar
    84    43    44    2
    85    69    71   ar
    86    73    74    1
    87    76    75    2
    88    75    74    1
    89    75    79   am
    90    14    13    1
    91    74    77    1
    92    80    79    1
    93    80    81    1
    94    81    82    2
    95    77    78    1
    96   107   106    1
    97    61    60    1
    98    55    56    1
    99    56    59    1
   100    56    57    1
   101    59    60    1
   102    60    62    1
   103    88    87    1
   104    88    89    1
   105   106   108    1
   106   106   105    1
   107    87    84    1
   108   105   102    1
   109    91    89   ar
   110    89    90   ar
   111    57    58    2
   112    85    86    2
   113    85    84    1
   114    84    83    1
   115   102   103    1
   116   102   101    1
   117   104   103    2
   118   101    94   am
   119    99    98    1
   120    99   100    1
   121    94    95    2
   122    94    93    1
   123    98    97    1
   124    96    97    1
   125    96    93    1
   126    92    93    1
