@<TRIPOS>MOLECULE
tmp/4bsqA00.pdb
 137 134 0 0 0
SMALL
GASTEIGER

@<TRIPOS>ATOM
      1  N         12.0700   -9.8900   26.7670 N.3    20  GLN20      -0.1245
      2  CA        11.1990  -10.0950   27.9380 C.3    20  GLN20       0.1566
      3  C         11.3690  -11.4830   28.5810 C.2    20  GLN20       0.2260
      4  O         10.9720  -11.7050   29.7440 O.2    20  GLN20      -0.2867
      5  CB         9.7320   -9.8370   27.5780 C.3    20  GLN20       0.0367
      6  CG         9.1230  -10.8530   26.6320 C.3    20  GLN20       0.0905
      7  CD         7.7090  -10.4920   26.2060 C.2    20  GLN20       0.2608
      8  OE1        7.5110   -9.5920   25.3970 O.2    20  GLN20      -0.2717
      9  NE2        6.7260  -11.2210   26.7200 N.am   20  GLN20      -0.0878
     10  N          5.5430  -12.7660   30.8460 N.3    24  GLY24      -0.1225
     11  CA         4.6050  -12.0800   29.9600 C.3    24  GLY24       0.1811
     12  C          4.5170  -10.5880   30.2490 C.2    24  GLY24       0.2280
     13  O          3.4780  -10.0870   30.7070 O.2    24  GLY24      -0.2866
     14  N          5.2170   -8.0210   28.0470 N.3    26  CYS26      -0.1221
     15  CA         5.1720   -7.2030   26.8370 C.3    26  CYS26       0.1808
     16  C          4.4690   -5.8660   27.1000 C.2    26  CYS26       0.2601
     17  O          4.9080   -4.8220   26.6150 O.2    26  CYS26      -0.2717
     18  CB         4.5070   -7.9500   25.6680 C.3    26  CYS26       0.0970
     19  SG         2.8760   -8.6290   26.0220 S.3    26  CYS26      -0.0800
     20  N          3.3920   -5.9240   27.8700 N.am   27  TRP27      -0.1976
     21  CA         2.6090   -4.7540   28.2520 C.3    27  TRP27       0.1640
     22  C          3.4360   -3.7160   29.0020 C.2    27  TRP27       0.2290
     23  O          3.2580   -2.5310   28.8080 O.2    27  TRP27      -0.2864
     24  CB         1.4130   -5.1690   29.1180 C.3    27  TRP27       0.0576
     25  CG         1.8230   -5.8110   30.4220 C.ar   27  TRP27       0.0006
     26  CD1        2.1160   -7.1280   30.6330 C.ar   27  TRP27       0.0946
     27  CD2        2.0420   -5.1520   31.6780 C.ar   27  TRP27       0.0152
     28  NE1        2.4900   -7.3330   31.9510 N.ar   27  TRP27      -0.2442
     29  CE2        2.4570   -6.1410   32.6080 C.ar   27  TRP27       0.0810
     30  CE3        1.9270   -3.8340   32.1060 C.ar   27  TRP27       0.0012
     31  CZ2        2.7360   -5.8440   33.9430 C.ar   27  TRP27       0.0191
     32  CZ3        2.2000   -3.5430   33.4270 C.ar   27  TRP27       0.0001
     33  CH2        2.5930   -4.5450   34.3350 C.ar   27  TRP27       0.0015
     34  N         -5.4200   -4.3960   37.8180 N.3    64  GLY64      -0.1225
     35  CA        -5.7780   -5.5010   36.9430 C.3    64  GLY64       0.1811
     36  C         -4.6000   -6.0260   36.1390 C.2    64  GLY64       0.2280
     37  O         -4.7930   -6.7870   35.1810 O.2    64  GLY64      -0.2866
     38  N         -1.0290   -8.2680   36.1530 N.3    66  LYS66      -0.1245
     39  CA        -0.7000   -9.5640   36.7820 C.3    66  LYS66       0.1561
     40  C          0.7940   -9.9060   36.6980 C.2    66  LYS66       0.2260
     41  O          1.1720  -11.0770   36.6640 O.2    66  LYS66      -0.2867
     42  CB        -1.5400  -10.6740   36.1350 C.3    66  LYS66       0.0271
     43  CG        -3.0200  -10.5090   36.4330 C.3    66  LYS66       0.0035
     44  CD        -3.8660  -11.5490   35.7210 C.3    66  LYS66       0.0206
     45  CE        -5.3370  -11.3580   36.0450 C.3    66  LYS66       0.1093
     46  NZ        -6.1410  -12.5760   35.7420 N.3    66  LYS66      -0.1314
     47  N          2.0770  -12.5720   34.3970 N.3    69  GLY69      -0.1210
     48  CA         0.8370  -13.1150   33.8580 C.3    69  GLY69       0.1956
     49  C          0.1340  -12.2060   32.8630 C.2    69  GLY69       0.2612
     50  O         -0.9020  -12.5720   32.3360 O.2    69  GLY69      -0.2717
     51  N          0.6880  -11.0220   32.5890 N.am   70  GLY70      -0.1942
     52  CA         0.0490  -10.0860   31.6770 C.3    70  GLY70       0.2014
     53  C         -0.5260   -8.8380   32.3410 C.2    70  GLY70       0.2639
     54  O         -0.6050   -8.7300   33.5670 O.2    70  GLY70      -0.2714
     55  N         -0.8950   -7.8670   31.5010 N.am   71  GLY71      -0.1939
     56  CA        -1.3470   -6.5810   31.9690 C.3    71  GLY71       0.2014
     57  C         -1.7440   -5.6570   30.8410 C.2    71  GLY71       0.2639
     58  O         -1.8380   -6.0590   29.6830 O.2    71  GLY71      -0.2714
     59  N         -1.9970   -4.4200   31.2180 N.am   72  TYR72      -0.1959
     60  CA        -2.5600   -3.3970   30.3640 C.3    72  TYR72       0.1771
     61  C         -1.6950   -2.1610   30.4150 C.2    72  TYR72       0.2619
     62  O         -1.3770   -1.6640   31.4940 O.2    72  TYR72      -0.2715
     63  CB        -3.9760   -3.0270   30.8290 C.3    72  TYR72       0.0574
     64  CG        -4.9320   -4.1940   30.8270 C.ar   72  TYR72      -0.0198
     65  CD1       -5.4780   -4.6720   29.6430 C.ar   72  TYR72      -0.0009
     66  CD2       -5.2400   -4.8610   32.0050 C.ar   72  TYR72      -0.0009
     67  CE1       -6.3320   -5.7590   29.6420 C.ar   72  TYR72       0.0417
     68  CE2       -6.0960   -5.9330   32.0150 C.ar   72  TYR72       0.0417
     69  CZ        -6.6350   -6.3840   30.8310 C.ar   72  TYR72       0.1957
     70  OH        -7.4650   -7.4500   30.8640 O.3    72  TYR72      -0.2866
     71  N         -1.3210   -1.6500   29.2430 N.am   73  MET73      -0.1977
     72  CA        -0.4800   -0.4400   29.1500 C.3    73  MET73       0.1605
     73  C         -1.0910    0.8020   29.8510 C.2    73  MET73       0.2287
     74  O         -0.4040    1.5290   30.5810 O.2    73  MET73      -0.2864
     75  CB        -0.1460   -0.1730   27.6750 C.3    73  MET73       0.0413
     76  CG         0.7630   -1.2680   27.0460 C.3    73  MET73       0.0598
     77  SD        -0.1670   -2.7500   26.5130 S.3    73  MET73      -0.1393
     78  CE        -0.7640   -2.1790   24.9190 C.3    73  MET73       0.0692
     79  N         -2.1360   -2.7670   21.3810 N.3   139  GLY139     -0.1225
     80  CA        -2.3140   -4.2060   21.4720 C.3   139  GLY139      0.1811
     81  C         -2.4910   -4.7700   20.0820 C.2   139  GLY139      0.2280
     82  O         -3.1060   -4.1310   19.2080 O.2   139  GLY139     -0.2866
     83  N         -7.0170   -8.9440   20.4620 N.3   164  VAL164     -0.1231
     84  CA        -5.6090   -8.6310   20.7800 C.3   164  VAL164      0.1692
     85  C         -5.1180   -9.3920   22.0160 C.2   164  VAL164      0.2592
     86  O         -5.8950   -9.6960   22.8870 O.2   164  VAL164     -0.2718
     87  CB        -5.3570   -7.1110   20.9690 C.3   164  VAL164      0.0266
     88  CG1       -5.5240   -6.3880   19.6410 C.3   164  VAL164      0.0020
     89  CG2       -6.2470   -6.5290   22.0480 C.3   164  VAL164      0.0020
     90  N         -3.8220   -9.6640   22.0760 N.am  165  ASN165     -0.1960
     91  CA        -3.2270  -10.4450   23.1810 C.3   165  ASN165      0.1819
     92  C         -1.8230  -10.0510   23.5680 C.2   165  ASN165      0.2621
     93  O         -1.2930  -10.6040   24.5300 O.2   165  ASN165     -0.2715
     94  CB        -3.2100  -11.9260   22.8330 C.3   165  ASN165      0.1195
     95  CG        -2.9000  -12.1570   21.3640 C.2   165  ASN165      0.2630
     96  OD1       -1.7840  -11.8860   20.8830 O.2   165  ASN165     -0.2716
     97  ND2       -3.8920  -12.6390   20.6400 N.am  165  ASN165     -0.0877
     98  N         -1.2320   -9.0870   22.8630 N.am  166  HIS166     -0.1959
     99  CA         0.1240   -8.6720   23.1380 C.3   166  HIS166      0.1787
    100  C          0.2890   -7.1610   22.9750 C.2   166  HIS166      0.2620
    101  O         -0.2570   -6.5740   22.0470 O.2   166  HIS166     -0.2715
    102  CB         1.0960   -9.4280   22.2140 C.3   166  HIS166      0.0785
    103  CG         1.3490  -10.8330   22.6460 C.ar  166  HIS166      0.0821
    104  ND1        0.5280  -11.8860   22.2910 N.ar  166  HIS166     -0.2267
    105  CD2        2.3130  -11.3600   23.4440 C.ar  166  HIS166      0.1154
    106  CE1        0.9900  -13.0030   22.8280 C.ar  166  HIS166      0.1986
    107  NE2        2.0540  -12.7060   23.5540 N.ar  166  HIS166     -0.2212
    108  N          1.0270   -6.5620   23.9170 N.am  167  GLY167     -0.1954
    109  CA         1.3210   -5.1460   23.9170 C.3   167  GLY167      0.1869
    110  C          2.6260   -4.8870   23.2100 C.2   167  GLY167      0.2309
    111  O          3.5980   -5.5700   23.4720 O.2   167  GLY167     -0.2863
    112  N         11.0580   -8.9450   22.1650 N.3   188  TRP188     -0.1241
    113  CA        11.5680  -10.3120   22.0930 C.3   188  TRP188      0.1605
    114  C         13.0380  -10.3680   21.6400 C.2   188  TRP188      0.2264
    115  O         13.4410  -11.3660   21.0400 O.2   188  TRP188     -0.2867
    116  CB        10.7430  -11.1400   21.0880 C.3   188  TRP188      0.0550
    117  CG         9.3520  -11.4440   21.4710 C.ar  188  TRP188      0.0003
    118  CD1        8.2360  -11.0150   20.8500 C.ar  188  TRP188      0.0946
    119  CD2        8.9260  -12.2640   22.5510 C.ar  188  TRP188      0.0152
    120  NE1        7.1290  -11.5120   21.4690 N.ar  188  TRP188     -0.2442
    121  CE2        7.5260  -12.2830   22.5250 C.ar  188  TRP188      0.0810
    122  CE3        9.5970  -13.0010   23.5330 C.ar  188  TRP188      0.0012
    123  CZ2        6.7650  -13.0040   23.4490 C.ar  188  TRP188      0.0191
    124  CZ3        8.8420  -13.7170   24.4560 C.ar  188  TRP188      0.0001
    125  CH2        7.4450  -13.7140   24.4040 C.ar  188  TRP188      0.0015
    126  N         -6.5520   -0.8170   20.7230 N.3   213  TYR213     -0.1241
    127  CA        -6.2210   -0.4250   22.1230 C.3   213  TYR213      0.1605
    128  C         -4.9410    0.4050   22.1350 C.2   213  TYR213      0.2264
    129  O         -3.8750   -0.0590   22.5530 O.2   213  TYR213     -0.2867
    130  CB        -6.0420   -1.6720   22.9680 C.3   213  TYR213      0.0534
    131  CG        -5.6800   -1.4230   24.4190 C.ar  213  TYR213     -0.0201
    132  CD1       -6.4960   -0.6450   25.2560 C.ar  213  TYR213     -0.0009
    133  CD2       -4.5530   -1.9900   24.9620 C.ar  213  TYR213     -0.0009
    134  CE1       -6.1540   -0.4350   26.5900 C.ar  213  TYR213      0.0417
    135  CE2       -4.2030   -1.7750   26.2900 C.ar  213  TYR213      0.0417
    136  CZ        -5.0090   -1.0170   27.0980 C.ar  213  TYR213      0.1957
    137  OH        -4.6190   -0.8500   28.4040 O.3   213  TYR213     -0.2866
@<TRIPOS>BOND
     1    82    81    2
     2    88    87    1
     3    81    80    1
     4    83    84    1
     5    97    95   am
     6   126   127    1
     7    84    87    1
     8    84    85    1
     9   118   120   ar
    10   118   117   ar
    11    96    95    2
    12    87    89    1
    13   115   114    2
    14   116   117    1
    15   116   113    1
    16    95    94    1
    17    79    80    1
    18   120   121   ar
    19   117   119   ar
    20   114   113    1
    21    85    90   am
    22    85    86    2
    23   101   100    2
    24    90    91    1
    25   113   112    1
    26   127   128    1
    27   127   130    1
    28   128   129    2
    29   102   103    1
    30   102    99    1
    31   104   103   ar
    32   104   106   ar
    33   121   119   ar
    34   121   123   ar
    35   119   122   ar
    36   103   105   ar
    37   106   107   ar
    38    94    91    1
    39    98    99    1
    40    98    92   am
    41   130   131    1
    42   100    99    1
    43   100   108   am
    44    91    92    1
    45   110   111    2
    46   110   109    1
    47   105   107   ar
    48   123   125   ar
    49   122   124   ar
    50    92    93    2
    51   109   108    1
    52   125   124   ar
    53   131   133   ar
    54   131   132   ar
    55    78    77    1
    56   133   135   ar
    57   132   134   ar
    58     8     7    2
    59    18    19    1
    60    18    15    1
    61     7     6    1
    62     7     9   am
    63   135   136   ar
    64    77    76    1
    65   134   136   ar
    66    17    16    2
    67     6     5    1
    68     1     2    1
    69    15    16    1
    70    15    14    1
    71    76    75    1
    72   136   137    1
    73    16    20   am
    74     5     2    1
    75    75    72    1
    76    20    21    1
    77     2     3    1
    78    21    22    1
    79    21    24    1
    80     3     4    2
    81    23    22    2
    82    24    25    1
    83    72    71    1
    84    72    73    1
    85    71    61   am
    86    67    65   ar
    87    67    69   ar
    88    65    64   ar
    89    58    57    2
    90    73    74    2
    91    11    12    1
    92    11    10    1
    93    12    13    2
    94    60    61    1
    95    60    63    1
    96    60    59    1
    97    61    62    2
    98    25    26   ar
    99    25    27   ar
   100    26    28   ar
   101    64    63    1
   102    64    66   ar
   103    69    70    1
   104    69    68   ar
   105    57    59   am
   106    57    56    1
   107    55    56    1
   108    55    53   am
   109    52    53    1
   110    52    51    1
   111    27    30   ar
   112    27    29   ar
   113    28    29   ar
   114    66    68   ar
   115    30    32   ar
   116    50    49    2
   117    53    54    2
   118    51    49   am
   119    29    31   ar
   120    49    48    1
   121    32    33   ar
   122    48    47    1
   123    31    33   ar
   124    37    36    2
   125    44    45    1
   126    44    43    1
   127    46    45    1
   128    42    43    1
   129    42    39    1
   130    36    35    1
   131    38    39    1
   132    41    40    2
   133    40    39    1
   134    35    34    1
