@<TRIPOS>MOLECULE
tmp/4bsvA01.pdb
 117 111 0 0 0
SMALL
GASTEIGER

@<TRIPOS>ATOM
      1  N        -32.9650  -16.8660   -4.3160 N.3     4  SER4       -0.1217
      2  CA       -33.2790  -15.7570   -5.2070 C.3     4  SER4        0.1889
      3  C        -34.0060  -16.3030   -6.4310 C.2     4  SER4        0.2288
      4  O        -33.9030  -17.4920   -6.7500 O.2     4  SER4       -0.2866
      5  CB       -32.0030  -15.0280   -5.6420 C.3     4  SER4        0.2089
      6  OG       -31.5090  -14.1710   -4.6270 O.3     4  SER4       -0.2183
      7  N        -35.1850  -15.4640  -10.6070 N.3     6  PHE6       -0.1241
      8  CA       -35.1090  -14.6500  -11.8100 C.3     6  PHE6        0.1605
      9  C        -36.1550  -15.1390  -12.8100 C.2     6  PHE6        0.2264
     10  O        -36.4220  -16.3350  -12.8880 O.2     6  PHE6       -0.2867
     11  CB       -33.6870  -14.6840  -12.3800 C.3     6  PHE6        0.0534
     12  CG       -32.6720  -14.0430  -11.4660 C.ar    6  PHE6       -0.0203
     13  CD1      -32.5170  -12.6630  -11.4410 C.ar    6  PHE6       -0.0042
     14  CD2      -31.9230  -14.8130  -10.5970 C.ar    6  PHE6       -0.0042
     15  CE1      -31.6050  -12.0610  -10.5880 C.ar    6  PHE6       -0.0003
     16  CE2      -31.0110  -14.2190   -9.7310 C.ar    6  PHE6       -0.0003
     17  CZ       -30.8500  -12.8450   -9.7320 C.ar    6  PHE6       -0.0000
     18  N        -37.6400  -15.0480  -16.7480 N.3     8  PHE8       -0.1228
     19  CA       -37.1930  -14.8030  -18.1170 C.3     8  PHE8        0.1721
     20  C        -38.2870  -15.0070  -19.1400 C.2     8  PHE8        0.2437
     21  O        -39.0580  -15.9720  -19.0460 O.2     8  PHE8       -0.2733
     22  CB       -36.0360  -15.7410  -18.4410 C.3     8  PHE8        0.0547
     23  CG       -34.8710  -15.6090  -17.4960 C.ar    8  PHE8       -0.0202
     24  CD1      -33.9670  -14.5510  -17.6240 C.ar    8  PHE8       -0.0042
     25  CD2      -34.6610  -16.5440  -16.4960 C.ar    8  PHE8       -0.0042
     26  CE1      -32.8860  -14.4330  -16.7770 C.ar    8  PHE8       -0.0003
     27  CE2      -33.5810  -16.4230  -15.6290 C.ar    8  PHE8       -0.0003
     28  CZ       -32.6940  -15.3690  -15.7720 C.ar    8  PHE8       -0.0000
     29  N        -38.3300  -14.1260  -20.1530 N.am    9  PRO9       -0.2718
     30  CA       -39.3400  -14.1710  -21.2100 C.3     9  PRO9        0.1520
     31  C        -38.9910  -15.2490  -22.2390 C.2     9  PRO9        0.2440
     32  O        -37.8600  -15.7390  -22.2660 O.2     9  PRO9       -0.2731
     33  CB       -39.2080  -12.7840  -21.8480 C.3     9  PRO9        0.0310
     34  CG       -37.7470  -12.4870  -21.7220 C.3     9  PRO9        0.0237
     35  CD       -37.3880  -13.0110  -20.3470 C.3     9  PRO9        0.0939
     36  N        -39.9560  -15.5970  -23.0870 N.am   10  PRO10      -0.2716
     37  CA       -39.7130  -16.5040  -24.2080 C.3    10  PRO10       0.1536
     38  C        -38.7560  -15.8410  -25.1840 C.2    10  PRO10       0.2598
     39  O        -38.5080  -14.6230  -25.1150 O.2    10  PRO10      -0.2715
     40  CB       -41.0900  -16.6500  -24.8670 C.3    10  PRO10       0.0310
     41  CG       -42.0800  -16.0590  -23.8980 C.3    10  PRO10       0.0237
     42  CD       -41.3350  -15.0860  -23.0420 C.3    10  PRO10       0.0939
     43  N        -38.2110  -16.6020  -26.1130 N.am   11  LYS11      -0.1978
     44  CA       -37.4460  -16.0330  -27.1970 C.3    11  LYS11       0.1596
     45  C        -38.3720  -15.4160  -28.2290 C.2    11  LYS11       0.2287
     46  O        -39.3860  -15.9550  -28.5340 O.2    11  LYS11      -0.2864
     47  CB       -36.5880  -17.0930  -27.8510 C.3    11  LYS11       0.0298
     48  CG       -35.6290  -17.7580  -26.8850 C.3    11  LYS11       0.0038
     49  CD       -34.3750  -16.9410  -26.7150 C.3    11  LYS11       0.0206
     50  CE       -33.4320  -17.5960  -25.7240 C.3    11  LYS11       0.1093
     51  NZ       -34.0780  -17.8610  -24.4210 N.3    11  LYS11      -0.1314
     52  N        -39.7340  -17.6700  -30.8810 N.3    14  ASP14      -0.1239
     53  CA       -40.7040  -18.6370  -30.3710 C.3    14  ASP14       0.1674
     54  C        -42.0950  -18.0370  -30.2110 C.2    14  ASP14       0.2266
     55  O        -43.1010  -18.7460  -30.3070 O.2    14  ASP14      -0.2867
     56  CB       -40.2670  -19.2260  -29.0210 C.3    14  ASP14       0.1410
     57  CG       -39.1180  -20.1970  -29.1430 C.2    14  ASP14       0.3668
     58  OD1      -38.8930  -20.7450  -30.2440 O.co2  14  ASP14      -0.2456
     59  OD2      -38.4450  -20.4230  -28.1180 O.co2  14  ASP14      -0.2456
     60  N        -41.8020  -20.3220  -24.0350 N.3    23  GLU23      -0.1245
     61  CA       -41.8550  -20.6540  -22.6140 C.3    23  GLU23       0.1567
     62  C        -41.4160  -19.4510  -21.7910 C.2    23  GLU23       0.2260
     63  O        -40.5010  -18.7150  -22.1780 O.2    23  GLU23      -0.2867
     64  CB       -40.8860  -21.8050  -22.2860 C.3    23  GLU23       0.0388
     65  CG       -41.0050  -23.0200  -23.1930 C.3    23  GLU23       0.1160
     66  CD       -39.7810  -23.9290  -23.1320 C.2    23  GLU23       0.3649
     67  OE1      -38.6740  -23.4610  -22.7720 O.co2  23  GLU23      -0.2457
     68  OE2      -39.9280  -25.1250  -23.4450 O.co2  23  GLU23      -0.2457
     69  N        -39.6430  -18.6980  -18.0710 N.3    25  THR25      -0.1218
     70  CA       -38.7520  -19.5220  -17.2730 C.3    25  THR25       0.1862
     71  C        -38.5290  -18.8860  -15.9130 C.2    25  THR25       0.2287
     72  O        -38.1290  -17.7230  -15.8200 O.2    25  THR25      -0.2866
     73  CB       -37.4060  -19.7080  -17.9960 C.3    25  THR25       0.1770
     74  OG1      -37.6470  -20.3360  -19.2670 O.3    25  THR25      -0.2211
     75  CG2      -36.4680  -20.5860  -17.1770 C.3    25  THR25       0.0375
     76  N        -36.4840  -19.0760  -12.5060 N.3    27  VAL27      -0.1245
     77  CA       -35.2380  -19.6530  -12.0150 C.3    27  VAL27       0.1561
     78  C        -35.1060  -19.3820  -10.5200 C.2    27  VAL27       0.2260
     79  O        -35.2680  -18.2490  -10.0760 O.2    27  VAL27      -0.2867
     80  CB       -34.0240  -19.0580  -12.7640 C.3    27  VAL27       0.0252
     81  CG1      -32.7230  -19.6010  -12.1940 C.3    27  VAL27       0.0019
     82  CG2      -34.1180  -19.3860  -14.2560 C.3    27  VAL27       0.0019
     83  N        -32.3680  -19.7830   -7.4160 N.3    29  VAL29      -0.1231
     84  CA       -30.9650  -20.0100   -7.0590 C.3    29  VAL29       0.1692
     85  C        -30.7080  -19.7080   -5.5740 C.2    29  VAL29       0.2592
     86  O        -31.3970  -18.8790   -4.9620 O.2    29  VAL29      -0.2718
     87  CB       -30.0090  -19.1290   -7.8900 C.3    29  VAL29       0.0266
     88  CG1      -30.2810  -19.3060   -9.3780 C.3    29  VAL29       0.0020
     89  CG2      -30.1650  -17.6650   -7.5050 C.3    29  VAL29       0.0020
     90  N        -29.6800  -20.3520   -5.0260 N.am   30  ASP30      -0.1974
     91  CA       -29.3820  -20.2640   -3.5990 C.3    30  ASP30       0.1709
     92  C        -30.4010  -21.0390   -2.7940 C.2    30  ASP30       0.2293
     93  O        -30.8040  -20.6080   -1.7180 O.2    30  ASP30      -0.2864
     94  CB       -29.3600  -18.8120   -3.1310 C.3    30  ASP30       0.1436
     95  CG       -28.1520  -18.0800   -3.6180 C.2    30  ASP30       0.3671
     96  OD1      -27.2650  -18.7460   -4.1980 O.co2  30  ASP30      -0.2456
     97  OD2      -28.0880  -16.8500   -3.4240 O.co2  30  ASP30      -0.2456
     98  N        -25.0980  -26.5340   -7.4810 N.3    60  GLN60      -0.1245
     99  CA       -24.1830  -25.6580   -8.1460 C.3    60  GLN60       0.1566
    100  C        -22.8320  -25.8550   -7.5100 C.2    60  GLN60       0.2260
    101  O        -22.7300  -26.4020   -6.4320 O.2    60  GLN60      -0.2867
    102  CB       -24.6580  -24.2270   -8.0110 C.3    60  GLN60       0.0367
    103  CG       -26.0620  -24.0240   -8.5340 C.3    60  GLN60       0.0905
    104  CD       -26.1640  -24.4090   -9.9800 C.2    60  GLN60       0.2608
    105  OE1      -25.6080  -23.7530  -10.8240 O.2    60  GLN60      -0.2717
    106  NE2      -26.8510  -25.4890  -10.2600 N.am   60  GLN60      -0.0878
    107  N        -30.0700  -25.1320   -7.7190 N.3    66  ARG66      -0.1245
    108  CA       -30.8100  -24.2760   -8.6580 C.3    66  ARG66       0.1563
    109  C        -32.1310  -24.9410   -9.0030 C.2    66  ARG66       0.2260
    110  O        -32.1620  -26.1180   -9.3530 O.2    66  ARG66      -0.2867
    111  CB       -30.0020  -24.0550   -9.9350 C.3    66  ARG66       0.0307
    112  CG       -30.5920  -23.0220  -10.8870 C.3    66  ARG66       0.0489
    113  CD       -29.5340  -22.5540  -11.8700 C.3    66  ARG66       0.2205
    114  NE       -30.0960  -21.8240  -13.0080 N.pl3  66  ARG66      -0.0865
    115  CZ       -30.7180  -22.4040  -14.0330 C.cat  66  ARG66       0.5346
    116  NH1      -30.8830  -23.7170  -14.0530 N.pl3  66  ARG66       0.1354
    117  NH2      -31.1840  -21.6690  -15.0310 N.pl3  66  ARG66       0.1354
@<TRIPOS>BOND
     1    52    53    1
     2    53    54    1
     3    53    56    1
     4    55    54    2
     5    58    57   ar
     6    57    56    1
     7    57    59   ar
     8    46    45    2
     9    45    44    1
    10    47    44    1
    11    47    48    1
    12    44    43    1
    13    48    49    1
    14    49    50    1
    15    43    38   am
    16    50    51    1
    17    38    39    2
    18    38    37    1
    19    40    37    1
    20    40    41    1
    21    37    36    1
    22    60    61    1
    23    41    42    1
    24    68    66   ar
    25    65    66    1
    26    65    64    1
    27    66    67   ar
    28    36    42    1
    29    36    31   am
    30    61    64    1
    31    61    62    1
    32    32    31    2
    33    31    30    1
    34    63    62    2
    35    33    34    1
    36    33    30    1
    37    34    35    1
    38    30    29    1
    39    35    29    1
    40    29    20   am
    41    74    73    1
    42    20    21    2
    43    20    19    1
    44    22    19    1
    45    22    23    1
    46    19    18    1
    47    69    70    1
    48    73    70    1
    49    73    75    1
    50    24    23   ar
    51    24    26   ar
    52    23    25   ar
    53    70    71    1
    54    26    28   ar
    55    25    27   ar
    56    71    72    2
    57    28    27   ar
    58   117   115    1
    59    82    80    1
    60   116   115    1
    61   115   114    2
    62   114   113    1
    63    10     9    2
    64     9     8    1
    65    80    81    1
    66    80    77    1
    67    76    77    1
    68    11     8    1
    69    11    12    1
    70    77    78    1
    71   113   112    1
    72     8     7    1
    73    12    13   ar
    74    12    14   ar
    75    13    15   ar
    76   112   111    1
    77   105   104    2
    78    14    16   ar
    79    15    17   ar
    80    78    79    2
    81   106   104   am
    82   104   103    1
    83   111   108    1
    84    17    16   ar
    85    88    87    1
    86   110   109    2
    87   109   108    1
    88   108   107    1
    89   103   102    1
    90    99   102    1
    91    99   100    1
    92    99    98    1
    93    87    89    1
    94    87    84    1
    95   100   101    2
    96    83    84    1
    97    84    85    1
    98     4     3    2
    99     3     2    1
   100     5     2    1
   101     5     6    1
   102    85    90   am
   103    85    86    2
   104     2     1    1
   105    90    91    1
   106    96    95   ar
   107    95    97   ar
   108    95    94    1
   109    91    94    1
   110    91    92    1
   111    92    93    2
