@<TRIPOS>MOLECULE
tmp/4bswB00.pdb
 158 150 0 0 0
SMALL
GASTEIGER

@<TRIPOS>ATOM
      1  N        -15.1420    8.3280   -1.5120 N.3     4  SER4       -0.1217
      2  CA       -14.9430    7.3950   -2.6220 C.3     4  SER4        0.1889
      3  C        -14.2540    8.0460   -3.8190 C.2     4  SER4        0.2288
      4  O        -14.3260    9.2660   -4.0120 O.2     4  SER4       -0.2866
      5  CB       -16.2720    6.7800   -3.0580 C.3     4  SER4        0.2089
      6  OG       -16.5500    5.6320   -2.2820 O.3     4  SER4       -0.2183
      7  N        -13.4660    7.8430   -8.0940 N.3     6  PHE6       -0.1241
      8  CA       -13.7280    7.3030   -9.4250 C.3     6  PHE6        0.1605
      9  C        -12.7590    7.8760  -10.4440 C.2     6  PHE6        0.2264
     10  O        -12.5230    9.0790  -10.4790 O.2     6  PHE6       -0.2867
     11  CB       -15.1730    7.5620   -9.8320 C.3     6  PHE6        0.0534
     12  CG       -16.1690    6.9150   -8.9170 C.ar    6  PHE6       -0.0203
     13  CD1      -16.4510    5.5560   -9.0220 C.ar    6  PHE6       -0.0042
     14  CD2      -16.7770    7.6490   -7.8980 C.ar    6  PHE6       -0.0042
     15  CE1      -17.3470    4.9510   -8.1540 C.ar    6  PHE6       -0.0003
     16  CE2      -17.6770    7.0520   -7.0310 C.ar    6  PHE6       -0.0003
     17  CZ       -17.9580    5.7010   -7.1580 C.ar    6  PHE6       -0.0000
     18  N        -11.4840    8.2300  -14.4280 N.3     8  PHE8       -0.1228
     19  CA       -12.0210    8.2630  -15.7840 C.3     8  PHE8        0.1721
     20  C        -10.9090    8.3830  -16.8250 C.2     8  PHE8        0.2437
     21  O         -9.9240    9.0900  -16.5850 O.2     8  PHE8       -0.2733
     22  CB       -12.9980    9.4320  -15.9250 C.3     8  PHE8        0.0547
     23  CG       -14.2350    9.2810  -15.0830 C.ar    8  PHE8       -0.0202
     24  CD1      -14.1890    9.5200  -13.7140 C.ar    8  PHE8       -0.0042
     25  CD2      -15.4360    8.8480  -15.6480 C.ar    8  PHE8       -0.0042
     26  CE1      -15.3190    9.3610  -12.9250 C.ar    8  PHE8       -0.0003
     27  CE2      -16.5740    8.6990  -14.8660 C.ar    8  PHE8       -0.0003
     28  CZ       -16.5110    8.9540  -13.5050 C.ar    8  PHE8       -0.0000
     29  N        -11.0620    7.6810  -17.9770 N.am    9  PRO9       -0.2718
     30  CA       -10.0440    7.6010  -19.0310 C.3     9  PRO9        0.1520
     31  C        -10.1790    8.7060  -20.0700 C.2     9  PRO9        0.2440
     32  O        -11.2010    9.3820  -20.1270 O.2     9  PRO9       -0.2731
     33  CB       -10.3370    6.2430  -19.6800 C.3     9  PRO9        0.0310
     34  CG       -11.8290    6.1150  -19.5640 C.3     9  PRO9        0.0237
     35  CD       -12.2260    6.8190  -18.2820 C.3     9  PRO9        0.0939
     36  N         -9.1380    8.9050  -20.8930 N.am   10  PRO10      -0.2716
     37  CA        -9.3440    9.8420  -21.9910 C.3    10  PRO10       0.1536
     38  C        -10.4690    9.3550  -22.9010 C.2    10  PRO10       0.2598
     39  O        -10.8400    8.1810  -22.8620 O.2    10  PRO10      -0.2715
     40  CB        -8.0060    9.8490  -22.7320 C.3    10  PRO10       0.0310
     41  CG        -7.0790    8.9470  -21.9970 C.3    10  PRO10       0.0237
     42  CD        -7.8680    8.1620  -20.9850 C.3    10  PRO10       0.0939
     43  N        -11.0780   10.2650  -23.6410 N.am   11  LYS11      -0.1978
     44  CA       -11.9290    9.8730  -24.7570 C.3    11  LYS11       0.1596
     45  C        -10.9980    9.3030  -25.8110 C.2    11  LYS11       0.2287
     46  O         -9.9990    9.9260  -26.1260 O.2    11  LYS11      -0.2864
     47  CB       -12.6260   11.1000  -25.3540 C.3    11  LYS11       0.0298
     48  CG       -13.7060   11.7130  -24.4780 C.3    11  LYS11       0.0038
     49  CD       -14.8330   10.7270  -24.2450 C.3    11  LYS11       0.0206
     50  CE       -15.9210   11.2980  -23.3170 C.3    11  LYS11       0.1093
     51  NZ       -15.4720   11.4970  -21.9060 N.3    11  LYS11      -0.1314
     52  N         -9.7320   11.6090  -28.2310 N.3    14  ASP14      -0.1239
     53  CA        -8.7580   12.6230  -27.7390 C.3    14  ASP14       0.1674
     54  C         -7.3610   12.0150  -27.7800 C.2    14  ASP14       0.2266
     55  O         -6.3700   12.7300  -27.9070 O.2    14  ASP14      -0.2867
     56  CB        -9.0340   13.0480  -26.2830 C.3    14  ASP14       0.1410
     57  CG       -10.3450   13.8530  -26.1020 C.2    14  ASP14       0.3668
     58  OD1      -10.9200   14.3490  -27.0850 O.co2  14  ASP14      -0.2456
     59  OD2      -10.8070   13.9420  -24.9300 O.co2  14  ASP14      -0.2456
     60  N         -6.6870   17.1290  -26.5350 N.3    21  THR21      -0.1218
     61  CA        -5.9180   16.9310  -25.3330 C.3    21  THR21       0.1862
     62  C         -6.6130   15.9130  -24.4540 C.2    21  THR21       0.2287
     63  O         -7.6650   16.1740  -23.9130 O.2    21  THR21      -0.2866
     64  CB        -5.7690   18.2610  -24.5690 C.3    21  THR21       0.1770
     65  OG1       -4.8640   19.1120  -25.2870 O.3    21  THR21      -0.2211
     66  CG2       -5.2410   18.0340  -23.1510 C.3    21  THR21       0.0375
     67  N         -7.3870   13.4540  -21.2690 N.3    23  GLU23      -0.1245
     68  CA        -7.2140   13.6420  -19.8280 C.3    23  GLU23       0.1567
     69  C         -7.6670   12.4430  -19.0650 C.2    23  GLU23       0.2260
     70  O         -8.6770   11.8300  -19.4030 O.2    23  GLU23      -0.2867
     71  CB        -8.0150   14.8640  -19.3420 C.3    23  GLU23       0.0388
     72  CG        -7.5810   16.1710  -20.0120 C.3    23  GLU23       0.1160
     73  CD        -8.6010   17.2950  -19.8680 C.2    23  GLU23       0.3649
     74  OE1       -9.6400   17.0790  -19.2030 O.co2  23  GLU23      -0.2457
     75  OE2       -8.3630   18.4010  -20.4230 O.co2  23  GLU23      -0.2457
     76  N         -9.1810   11.6770  -15.4040 N.3    25  THR25      -0.1218
     77  CA        -9.8660   12.5040  -14.4190 C.3    25  THR25       0.1862
     78  C        -10.1600   11.7320  -13.1700 C.2    25  THR25       0.2287
     79  O        -10.7580   10.6600  -13.2290 O.2    25  THR25      -0.2866
     80  CB       -11.1560   13.0500  -14.9840 C.3    25  THR25       0.1770
     81  OG1      -10.8360   13.7510  -16.1810 O.3    25  THR25      -0.2211
     82  CG2      -11.8190   14.0110  -13.9960 C.3    25  THR25       0.0375
     83  N        -11.9440   11.7090   -9.6260 N.3    27  VAL27      -0.1245
     84  CA       -13.0490   12.3330   -8.9150 C.3    27  VAL27       0.1561
     85  C        -13.1930   11.7210   -7.5220 C.2    27  VAL27       0.2260
     86  O        -13.2000   10.4860   -7.3800 O.2    27  VAL27      -0.2867
     87  CB       -14.3720   12.1630   -9.6970 C.3    27  VAL27       0.0252
     88  CG1      -15.5300   12.7810   -8.9320 C.3    27  VAL27       0.0019
     89  CG2      -14.2620   12.8090  -11.0820 C.3    27  VAL27       0.0019
     90  N        -15.8000   11.8190   -4.2420 N.3    29  VAL29      -0.1231
     91  CA       -17.0860   12.2250   -3.6840 C.3    29  VAL29       0.1692
     92  C        -17.1800   11.7320   -2.2430 C.2    29  VAL29       0.2592
     93  O        -16.3040   10.9910   -1.7820 O.2    29  VAL29      -0.2718
     94  CB       -18.2820   11.7000   -4.5180 C.3    29  VAL29       0.0266
     95  CG1      -18.3610   12.4340   -5.8630 C.3    29  VAL29       0.0020
     96  CG2      -18.2330   10.1820   -4.6930 C.3    29  VAL29       0.0020
     97  N        -18.2470   12.1310   -1.5430 N.am   30  ASP30      -0.1974
     98  CA       -18.4620   11.7470   -0.1400 C.3    30  ASP30       0.1709
     99  C        -17.3640   12.2490    0.7840 C.2    30  ASP30       0.2293
    100  O        -17.1040   11.6280    1.8100 O.2    30  ASP30      -0.2864
    101  CB       -18.5200   10.2200    0.0290 C.3    30  ASP30       0.1436
    102  CG       -19.8060    9.6060   -0.4770 C.2    30  ASP30       0.3671
    103  OD1      -20.7560   10.3200   -0.8640 O.co2  30  ASP30      -0.2456
    104  OD2      -19.8610    8.3670   -0.4720 O.co2  30  ASP30      -0.2456
    105  N        -21.8470   19.2860   -2.5410 N.3    60  GLN60      -0.1231
    106  CA       -23.0090   18.7100   -3.1970 C.3    60  GLN60       0.1698
    107  C        -24.2440   18.9080   -2.3320 C.2    60  GLN60       0.2592
    108  O        -24.1570   18.9980   -1.1040 O.2    60  GLN60      -0.2718
    109  CB       -22.7920   17.2140   -3.4720 C.3    60  GLN60       0.0381
    110  CG       -21.4970   16.9130   -4.2180 C.3    60  GLN60       0.0905
    111  CD       -21.3150   17.8050   -5.4360 C.2    60  GLN60       0.2608
    112  OE1      -22.1550   17.8210   -6.3310 O.2    60  GLN60      -0.2717
    113  NE2      -20.2210   18.5600   -5.4670 N.am   60  GLN60      -0.0878
    114  N        -25.3980   18.9790   -2.9800 N.am   61  TYR61      -0.1962
    115  CA       -26.6350   19.2120   -2.2760 C.3    61  TYR61       0.1771
    116  C        -26.8550   18.2130   -1.1380 C.2    61  TYR61       0.2619
    117  O        -27.8260   18.3300   -0.3950 O.2    61  TYR61      -0.2715
    118  CB       -27.8210   19.2180   -3.2450 C.3    61  TYR61       0.0574
    119  CG       -28.3080   20.6040   -3.5850 C.ar   61  TYR61      -0.0198
    120  CD1      -27.5240   21.4760   -4.3280 C.ar   61  TYR61      -0.0009
    121  CD2      -29.5440   21.0540   -3.1320 C.ar   61  TYR61      -0.0009
    122  CE1      -27.9640   22.7540   -4.6250 C.ar   61  TYR61       0.0417
    123  CE2      -30.0000   22.3270   -3.4230 C.ar   61  TYR61       0.0417
    124  CZ       -29.2080   23.1760   -4.1730 C.ar   61  TYR61       0.1957
    125  OH       -29.6650   24.4460   -4.4800 O.3    61  TYR61      -0.2866
    126  N        -25.9490   17.2510   -0.9820 N.am   62  ASN62      -0.1972
    127  CA       -26.1060   16.2210    0.0470 C.3    62  ASN62       0.1688
    128  C        -25.1310   16.3970    1.2230 C.2    62  ASN62       0.2292
    129  O        -25.0110   15.5190    2.0780 O.2    62  ASN62      -0.2864
    130  CB       -26.0060   14.8030   -0.5580 C.3    62  ASN62       0.1181
    131  CG       -24.6940   14.5650   -1.3010 C.2    62  ASN62       0.2629
    132  OD1      -23.6650   15.1540   -0.9680 O.2    62  ASN62      -0.2716
    133  ND2      -24.7260   13.6900   -2.3140 N.am   62  ASN62      -0.0877
    134  N        -21.6840   16.8660    1.2020 N.3    64  THR64      -0.1218
    135  CA       -20.3070   16.4130    1.0200 C.3    64  THR64       0.1862
    136  C        -19.6560   17.2430   -0.0560 C.2    64  THR64       0.2287
    137  O        -20.3380   17.7930   -0.9210 O.2    64  THR64      -0.2866
    138  CB       -20.2520   14.9730    0.5250 C.3    64  THR64       0.1770
    139  OG1      -21.1470   14.8460   -0.5880 O.3    64  THR64      -0.2211
    140  CG2      -20.6500   14.0080    1.6470 C.3    64  THR64       0.0375
    141  N        -17.1340   17.4590   -3.3670 N.3    66  ARG66      -0.1245
    142  CA       -16.6680   16.6590   -4.4830 C.3    66  ARG66       0.1563
    143  C        -15.4460   17.3860   -5.0040 C.2    66  ARG66       0.2260
    144  O        -15.4670   18.6010   -5.1940 O.2    66  ARG66      -0.2867
    145  CB       -17.7520   16.5620   -5.5620 C.3    66  ARG66       0.0307
    146  CG       -17.3030   15.9710   -6.8930 C.3    66  ARG66       0.0489
    147  CD       -18.4680   15.9760   -7.8720 C.3    66  ARG66       0.2205
    148  NE       -18.1340   15.3990   -9.1710 N.pl3  66  ARG66      -0.0865
    149  CZ       -17.6830   16.1090  -10.2000 C.cat  66  ARG66       0.5346
    150  NH1      -17.5000   17.4100  -10.0780 N.pl3  66  ARG66       0.1354
    151  NH2      -17.4140   15.5180  -11.3510 N.pl3  66  ARG66       0.1354
    152  N        -12.1020   17.3270   -7.7660 N.3    68  VAL68      -0.1245
    153  CA       -11.7340   16.7790   -9.0520 C.3    68  VAL68       0.1561
    154  C        -10.3080   17.1250   -9.4000 C.2    68  VAL68       0.2260
    155  O         -9.9430   18.3020   -9.4270 O.2    68  VAL68      -0.2867
    156  CB       -12.6330   17.3580  -10.1580 C.3    68  VAL68       0.0252
    157  CG1      -12.0890   16.9720  -11.5270 C.3    68  VAL68       0.0019
    158  CG2      -14.0620   16.8680   -9.9700 C.3    68  VAL68       0.0019
@<TRIPOS>BOND
     1    52    53    1
     2    55    54    2
     3    54    53    1
     4    53    56    1
     5    58    57   ar
     6    60    61    1
     7    56    57    1
     8    46    45    2
     9    57    59   ar
    10    45    44    1
    11    47    44    1
    12    47    48    1
    13    61    64    1
    14    61    62    1
    15    65    64    1
    16    44    43    1
    17    64    66    1
    18    48    49    1
    19    62    63    2
    20    49    50    1
    21    43    38   am
    22    50    51    1
    23    38    39    2
    24    38    37    1
    25    40    41    1
    26    40    37    1
    27    41    42    1
    28    37    36    1
    29    67    68    1
    30    42    36    1
    31    36    31   am
    32    75    73   ar
    33    32    31    2
    34    31    30    1
    35    72    73    1
    36    72    71    1
    37    73    74   ar
    38    68    71    1
    39    68    69    1
    40    33    34    1
    41    33    30    1
    42    34    35    1
    43    70    69    2
    44    30    29    1
    45    35    29    1
    46    29    20   am
    47    20    21    2
    48    20    19    1
    49    81    80    1
    50    22    19    1
    51    22    23    1
    52    19    18    1
    53    25    23   ar
    54    25    27   ar
    55    76    77    1
    56    23    24   ar
    57    80    77    1
    58    80    82    1
    59    27    28   ar
    60    77    78    1
    61    24    26   ar
    62    28    26   ar
    63    79    78    2
    64   157   156    1
    65   151   149    1
    66    89    87    1
    67    10     9    2
    68     9     8    1
    69   149   150    1
    70   149   148    2
    71   156   158    1
    72   156   153    1
    73    11     8    1
    74    11    12    1
    75    87    88    1
    76    87    84    1
    77    83    84    1
    78   155   154    2
    79     8     7    1
    80   154   153    1
    81   148   147    1
    82   153   152    1
    83    13    12   ar
    84    13    15   ar
    85    12    14   ar
    86    84    85    1
    87    15    17   ar
    88    14    16   ar
    89   147   146    1
    90    85    86    2
    91    17    16   ar
    92   146   145    1
    93   112   111    2
    94    95    94    1
    95   145   142    1
    96   113   111   am
    97   111   110    1
    98   144   143    2
    99   143   142    1
   100    96    94    1
   101   122   120   ar
   102   122   124   ar
   103    94    91    1
   104   142   141    1
   105   125   124    1
   106   120   119   ar
   107    90    91    1
   108   110   109    1
   109   124   123   ar
   110     4     3    2
   111     3     2    1
   112    91    92    1
   113   119   118    1
   114   119   121   ar
   115   109   106    1
   116   123   121   ar
   117   118   115    1
   118   106   105    1
   119   106   107    1
   120     5     2    1
   121     5     6    1
   122   114   107   am
   123   114   115    1
   124     2     1    1
   125   107   108    2
   126   133   131   am
   127   115   116    1
   128    92    93    2
   129    92    97   am
   130    97    98    1
   131   131   132    2
   132   131   130    1
   133   116   126   am
   134   116   117    2
   135   126   127    1
   136   137   136    2
   137   103   102   ar
   138   139   138    1
   139   130   127    1
   140   102   104   ar
   141   102   101    1
   142    98   101    1
   143    98    99    1
   144   136   135    1
   145   127   128    1
   146   138   135    1
   147   138   140    1
   148    99   100    2
   149   135   134    1
   150   128   129    2
