@<TRIPOS>MOLECULE
tmp/4bt9A00.pdb
 132 131 0 0 0
SMALL
GASTEIGER

@<TRIPOS>ATOM
      1  N         94.9720   16.5790    3.4920 N.3   156  TYR156     -0.1241
      2  CA        94.2900   17.4980    2.5860 C.3   156  TYR156      0.1605
      3  C         94.7140   18.9480    2.8040 C.2   156  TYR156      0.2264
      4  O         94.9620   19.6830    1.8450 O.2   156  TYR156     -0.2867
      5  CB        92.7650   17.3660    2.7140 C.3   156  TYR156      0.0534
      6  CG        92.0410   18.5310    2.0900 C.ar  156  TYR156     -0.0201
      7  CD1       91.8690   18.6080    0.7150 C.ar  156  TYR156     -0.0009
      8  CD2       91.5400   19.5690    2.8790 C.ar  156  TYR156     -0.0009
      9  CE1       91.2160   19.6920    0.1350 C.ar  156  TYR156      0.0417
     10  CE2       90.8940   20.6480    2.3120 C.ar  156  TYR156      0.0417
     11  CZ        90.7350   20.7060    0.9430 C.ar  156  TYR156      0.1957
     12  OH        90.0930   21.7920    0.3910 O.3   156  TYR156     -0.2866
     13  N         83.2150   12.9130   -0.4820 N.3   190  ASP190     -0.1225
     14  CA        83.4550   14.3030   -0.8730 C.3   190  ASP190      0.1805
     15  C         84.9600   14.5390   -1.0030 C.2   190  ASP190      0.2597
     16  O         85.4580   14.9290   -2.0690 O.2   190  ASP190     -0.2718
     17  CB        82.8230   15.2420    0.1710 C.3   190  ASP190      0.1424
     18  CG        82.7210   16.6860   -0.3060 C.2   190  ASP190      0.3668
     19  OD1       83.0490   16.9580   -1.4800 O.co2 190  ASP190     -0.2456
     20  OD2       82.2940   17.5500    0.4950 O.co2 190  ASP190     -0.2456
     21  N         85.6870   14.2610    0.0760 N.am  191  TYR191     -0.1976
     22  CA        87.1350   14.4040    0.0910 C.3   191  TYR191      0.1639
     23  C         87.8310   13.4320   -0.8540 C.2   191  TYR191      0.2290
     24  O         88.7890   13.8060   -1.5310 O.2   191  TYR191     -0.2864
     25  CB        87.6730   14.2140    1.5090 C.3   191  TYR191      0.0560
     26  CG        87.5000   15.4250    2.3860 C.ar  191  TYR191     -0.0198
     27  CD1       86.3450   15.6050    3.1430 C.ar  191  TYR191     -0.0009
     28  CD2       88.4880   16.3960    2.4510 C.ar  191  TYR191     -0.0009
     29  CE1       86.1870   16.7210    3.9410 C.ar  191  TYR191      0.0417
     30  CE2       88.3380   17.5140    3.2470 C.ar  191  TYR191      0.0417
     31  CZ        87.1940   17.6720    3.9870 C.ar  191  TYR191      0.1957
     32  OH        87.0600   18.7930    4.7780 O.3   191  TYR191     -0.2866
     33  N         87.4990   14.4020   -4.5410 N.3   194  TYR194     -0.1241
     34  CA        88.3450   15.5690   -4.7790 C.3   194  TYR194      0.1605
     35  C         89.8190   15.1790   -4.8720 C.2   194  TYR194      0.2264
     36  O         90.5190   15.5980   -5.8030 O.2   194  TYR194     -0.2867
     37  CB        88.1430   16.5830   -3.6630 C.3   194  TYR194      0.0534
     38  CG        88.8380   17.9060   -3.8810 C.ar  194  TYR194     -0.0201
     39  CD1       88.2050   18.9270   -4.5790 C.ar  194  TYR194     -0.0009
     40  CD2       90.1070   18.1480   -3.3600 C.ar  194  TYR194     -0.0009
     41  CE1       88.8180   20.1460   -4.7690 C.ar  194  TYR194      0.0417
     42  CE2       90.7350   19.3740   -3.5460 C.ar  194  TYR194      0.0417
     43  CZ        90.0710   20.3660   -4.2460 C.ar  194  TYR194      0.1957
     44  OH        90.6580   21.5890   -4.4480 O.3   194  TYR194     -0.2866
     45  N         90.6240   13.2880   -8.0830 N.3   197  TYR197     -0.1227
     46  CA        90.6920   14.2110   -9.2110 C.3   197  TYR197      0.1736
     47  C         92.0100   14.9900   -9.2330 C.2   197  TYR197      0.2595
     48  O         92.6180   15.1570  -10.2970 O.2   197  TYR197     -0.2718
     49  CB        89.5080   15.1820   -9.2110 C.3   197  TYR197      0.0548
     50  CG        89.5990   16.1740  -10.3450 C.ar  197  TYR197     -0.0200
     51  CD1       89.5430   15.7420  -11.6580 C.ar  197  TYR197     -0.0009
     52  CD2       89.7480   17.5350  -10.1060 C.ar  197  TYR197     -0.0009
     53  CE1       89.6310   16.6300  -12.7150 C.ar  197  TYR197      0.0417
     54  CE2       89.8370   18.4430  -11.1630 C.ar  197  TYR197      0.0417
     55  CZ        89.7780   17.9770  -12.4640 C.ar  197  TYR197      0.1957
     56  OH        89.8690   18.8460  -13.5310 O.3   197  TYR197     -0.2866
     57  N         92.4580   15.4700   -8.0740 N.am  198  GLN198     -0.1979
     58  CA        93.7720   16.1190   -7.9970 C.3   198  GLN198      0.1601
     59  C         94.8900   15.1720   -8.4130 C.2   198  GLN198      0.2287
     60  O         95.9050   15.5990   -8.9780 O.2   198  GLN198     -0.2864
     61  CB        94.0490   16.6310   -6.5760 C.3   198  GLN198      0.0394
     62  CG        93.0130   17.6090   -6.0580 C.3   198  GLN198      0.0908
     63  CD        92.8420   18.8030   -6.9700 C.2   198  GLN198      0.2608
     64  OE1       93.8080   19.4930   -7.2840 O.2   198  GLN198     -0.2717
     65  NE2       91.6080   19.0500   -7.4100 N.am  198  GLN198     -0.0878
     66  N         77.5680   20.4700   -4.8050 N.3   221  ARG221     -0.1245
     67  CA        78.9030   20.4230   -5.3920 C.3   221  ARG221      0.1563
     68  C         79.1380   19.1150   -6.1400 C.2   221  ARG221      0.2260
     69  O         79.7610   19.1070   -7.1960 O.2   221  ARG221     -0.2867
     70  CB        79.9930   20.6470   -4.3390 C.3   221  ARG221      0.0307
     71  CG        80.3550   22.1130   -4.1190 C.3   221  ARG221      0.0489
     72  CD        81.4880   22.2420   -3.1030 C.3   221  ARG221      0.2205
     73  NE        81.1420   21.6120   -1.8320 N.pl3 221  ARG221     -0.0865
     74  CZ        81.6840   20.4820   -1.3790 C.cat 221  ARG221      0.5346
     75  NH1       82.6010   19.8440   -2.0890 N.pl3 221  ARG221      0.1354
     76  NH2       81.2950   19.9840   -0.2150 N.pl3 221  ARG221      0.1354
     77  N         77.4670   19.3890   -9.4520 N.3   224  GLY224     -0.1210
     78  CA        78.2860   20.2400  -10.3000 C.3   224  GLY224      0.1956
     79  C         79.5400   19.5370  -10.7920 C.2   224  GLY224      0.2611
     80  O         79.9440   19.7040  -11.9510 O.2   224  GLY224     -0.2717
     81  N         80.1710   18.7570   -9.9170 N.am  225  ASN225     -0.1974
     82  CA        81.3570   18.0040  -10.3160 C.3   225  ASN225      0.1688
     83  C         81.0230   16.9480  -11.3610 C.2   225  ASN225      0.2292
     84  O         81.8090   16.6980  -12.2730 O.2   225  ASN225     -0.2864
     85  CB        82.0120   17.3310   -9.1090 C.3   225  ASN225      0.1181
     86  CG        82.5460   18.3240   -8.1050 C.2   225  ASN225      0.2629
     87  OD1       82.7020   19.5070   -8.4100 O.2   225  ASN225     -0.2716
     88  ND2       82.8500   17.8420   -6.8980 N.am  225  ASN225     -0.0877
     89  N         78.6050   17.0750  -13.6620 N.3   227  LYS227     -0.1231
     90  CA        78.4580   17.8010  -14.9220 C.3   227  LYS227      0.1693
     91  C         79.8290   18.1940  -15.4820 C.2   227  LYS227      0.2592
     92  O         80.0790   18.0650  -16.6820 O.2   227  LYS227     -0.2718
     93  CB        77.5940   19.0520  -14.7180 C.3   227  LYS227      0.0285
     94  CG        76.1500   18.7720  -14.3010 C.3   227  LYS227      0.0035
     95  CD        75.3700   18.1110  -15.4290 C.3   227  LYS227      0.0206
     96  CE        73.9180   17.8810  -15.0410 C.3   227  LYS227      0.1093
     97  NZ        73.3350   16.7850  -15.8530 N.3   227  LYS227     -0.1314
     98  N         80.7140   18.6670  -14.6070 N.am  228  TYR228     -0.1962
     99  CA        82.0550   19.0770  -15.0200 C.3   228  TYR228      0.1771
    100  C         82.8780   17.9150  -15.5650 C.2   228  TYR228      0.2619
    101  O         83.4560   18.0150  -16.6400 O.2   228  TYR228     -0.2715
    102  CB        82.7980   19.7600  -13.8670 C.3   228  TYR228      0.0574
    103  CG        84.2570   20.0280  -14.1710 C.ar  228  TYR228     -0.0198
    104  CD1       84.6350   21.0790  -14.9990 C.ar  228  TYR228     -0.0009
    105  CD2       85.2570   19.2310  -13.6230 C.ar  228  TYR228     -0.0009
    106  CE1       85.9790   21.3270  -15.2790 C.ar  228  TYR228      0.0417
    107  CE2       86.5980   19.4700  -13.9000 C.ar  228  TYR228      0.0417
    108  CZ        86.9470   20.5210  -14.7210 C.ar  228  TYR228      0.1957
    109  OH        88.2770   20.7510  -14.9930 O.3   228  TYR228     -0.2866
    110  N         82.9390   16.8200  -14.8150 N.am  229  PHE229     -0.1974
    111  CA        83.6860   15.6520  -15.2630 C.3   229  PHE229      0.1639
    112  C         83.1720   15.1710  -16.6110 C.2   229  PHE229      0.2290
    113  O         83.9510   14.9610  -17.5290 O.2   229  PHE229     -0.2864
    114  CB        83.6160   14.5240  -14.2310 C.3   229  PHE229      0.0560
    115  CG        84.3100   14.8360  -12.9460 C.ar  229  PHE229     -0.0200
    116  CD1       85.4460   15.6330  -12.9270 C.ar  229  PHE229     -0.0042
    117  CD2       83.8220   14.3380  -11.7450 C.ar  229  PHE229     -0.0042
    118  CE1       86.0890   15.9210  -11.7330 C.ar  229  PHE229     -0.0003
    119  CE2       84.4530   14.6240  -10.5530 C.ar  229  PHE229     -0.0003
    120  CZ        85.5850   15.4190  -10.5390 C.ar  229  PHE229     -0.0000
    121  N         81.6230   16.8200  -18.9300 N.3   231  TYR231     -0.1241
    122  CA        81.9270   17.7910  -19.9830 C.3   231  TYR231      0.1605
    123  C         83.3680   17.6050  -20.4630 C.2   231  TYR231      0.2264
    124  O         83.6180   17.4650  -21.6600 O.2   231  TYR231     -0.2867
    125  CB        81.7070   19.2170  -19.4660 C.3   231  TYR231      0.0534
    126  CG        81.9630   20.3190  -20.4750 C.ar  231  TYR231     -0.0201
    127  CD1       80.9950   20.6770  -21.4030 C.ar  231  TYR231     -0.0009
    128  CD2       83.1680   21.0230  -20.4780 C.ar  231  TYR231     -0.0009
    129  CE1       81.2210   21.6930  -22.3230 C.ar  231  TYR231      0.0417
    130  CE2       83.3990   22.0450  -21.3940 C.ar  231  TYR231      0.0417
    131  CZ        82.4240   22.3720  -22.3110 C.ar  231  TYR231      0.1957
    132  OH        82.6550   23.3810  -23.2250 O.3   231  TYR231     -0.2866
@<TRIPOS>BOND
     1   132   131    1
     2   129   131   ar
     3   129   127   ar
     4   131   130   ar
     5   124   123    2
     6   127   126   ar
     7   130   128   ar
     8   128   126   ar
     9   126   125    1
    10   123   122    1
    11   122   125    1
    12   122   121    1
    13   113   112    2
    14    92    91    2
    15   101   100    2
    16   112   111    1
    17    97    96    1
    18   100    99    1
    19   100   110   am
    20    91    90    1
    21    91    98   am
    22    95    96    1
    23    95    94    1
    24   106   104   ar
    25   106   108   ar
    26   111   110    1
    27   111   114    1
    28    99    98    1
    29    99   102    1
    30   104   103   ar
    31   109   108    1
    32    90    93    1
    33    90    89    1
    34   108   107   ar
    35    93    94    1
    36   114   115    1
    37   103   102    1
    38   103   105   ar
    39   107   105   ar
    40    56    55    1
    41   115   116   ar
    42   115   117   ar
    43   116   118   ar
    44    53    55   ar
    45    53    51   ar
    46    55    54   ar
    47    84    83    2
    48    80    79    2
    49   117   119   ar
    50   118   120   ar
    51    51    50   ar
    52    83    82    1
    53    54    52   ar
    54    79    78    1
    55    79    81   am
    56   119   120   ar
    57    50    52   ar
    58    50    49    1
    59    82    81    1
    60    82    85    1
    61    78    77    1
    62    48    47    2
    63    47    46    1
    64    47    57   am
    65    46    49    1
    66    46    45    1
    67    85    86    1
    68    60    59    2
    69    59    58    1
    70    87    86    2
    71    86    88   am
    72    57    58    1
    73    58    61    1
    74    65    63   am
    75    64    63    2
    76    69    68    2
    77    63    62    1
    78    61    62    1
    79    68    67    1
    80    36    35    2
    81    67    66    1
    82    67    70    1
    83    35    34    1
    84    34    33    1
    85    34    37    1
    86    41    39   ar
    87    41    43   ar
    88    39    38   ar
    89    44    43    1
    90    70    71    1
    91    43    42   ar
    92    71    72    1
    93    38    37    1
    94    38    40   ar
    95    42    40   ar
    96    72    73    1
    97    75    74    1
    98    16    15    2
    99    73    74    2
   100    24    23    2
   101    19    18   ar
   102    74    76    1
   103    15    14    1
   104    15    21   am
   105    14    13    1
   106    14    17    1
   107    23    22    1
   108    18    17    1
   109    18    20   ar
   110    21    22    1
   111    22    25    1
   112     9     7   ar
   113     9    11   ar
   114    12    11    1
   115     7     6   ar
   116    11    10   ar
   117    25    26    1
   118     4     3    2
   119     6     5    1
   120     6     8   ar
   121    10     8   ar
   122    26    28   ar
   123    26    27   ar
   124    28    30   ar
   125     2     5    1
   126     2     3    1
   127     2     1    1
   128    27    29   ar
   129    30    31   ar
   130    29    31   ar
   131    31    32    1
