@<TRIPOS>MOLECULE
tmp/4btjA00.pdb
 181 169 0 0 0
SMALL
GASTEIGER

@<TRIPOS>ATOM
      1  N         -5.2400   10.5700  -38.5480 N.3    20  ILE20      -0.1231
      2  CA        -6.2040    9.7860  -37.7500 C.3    20  ILE20       0.1692
      3  C         -5.9660    9.8790  -36.2350 C.2    20  ILE20       0.2593
      4  O         -6.8080    9.4590  -35.4420 O.2    20  ILE20      -0.2718
      5  CB        -6.3680    8.3340  -38.2820 C.3    20  ILE20       0.0266
      6  CG1       -5.0450    7.5330  -38.1880 C.3    20  ILE20       0.0019
      7  CG2       -6.9320    8.3470  -39.7210 C.3    20  ILE20       0.0020
      8  CD1       -5.2160    6.0400  -38.2230 C.3    20  ILE20       0.0001
      9  N         -4.8360   10.4540  -35.8510 N.am   21  GLY21      -0.1942
     10  CA        -4.5010   10.6500  -34.4510 C.3    21  GLY21       0.2014
     11  C         -3.2590   11.4770  -34.2250 C.2    21  GLY21       0.2639
     12  O         -2.5190   11.7920  -35.1610 O.2    21  GLY21      -0.2714
     13  N         -3.0200   11.8060  -32.9700 N.am   22  GLY22      -0.1954
     14  CA        -1.8420   12.5600  -32.5930 C.3    22  GLY22       0.1869
     15  C         -1.8220   12.9940  -31.1520 C.2    22  GLY22       0.2309
     16  O         -2.3160   12.2880  -30.2590 O.2    22  GLY22      -0.2863
     17  N          0.5350   13.7380  -28.2200 N.3    24  GLY24      -0.1210
     18  CA         1.8290   13.4510  -27.6200 C.3    24  GLY24       0.1956
     19  C          2.8050   12.7780  -28.5580 C.2    24  GLY24       0.2612
     20  O          2.4700   11.7700  -29.1900 O.2    24  GLY24      -0.2717
     21  N          4.0190   13.3680  -28.6580 N.am   25  PHE25      -0.1962
     22  CA         5.1810   12.8970  -29.4260 C.3    25  PHE25       0.1771
     23  C          5.1330   12.9030  -30.9700 C.2    25  PHE25       0.2620
     24  O          6.1290   12.5290  -31.5960 O.2    25  PHE25      -0.2715
     25  CB         5.7380   11.5720  -28.8660 C.3    25  PHE25       0.0574
     26  CG         6.2410   11.6620  -27.4430 C.ar   25  PHE25      -0.0200
     27  CD1        7.4810   12.2320  -27.1600 C.ar   25  PHE25      -0.0042
     28  CD2        5.4890   11.1560  -26.3890 C.ar   25  PHE25      -0.0042
     29  CE1        7.9520   12.3030  -25.8450 C.ar   25  PHE25      -0.0003
     30  CE2        5.9620   11.2300  -25.0730 C.ar   25  PHE25      -0.0003
     31  CZ         7.1900   11.8020  -24.8110 C.ar   25  PHE25      -0.0000
     32  N          4.0220   13.3520  -31.5610 N.am   26  GLY26      -0.1954
     33  CA         3.8750   13.3980  -33.0110 C.3    26  GLY26       0.1869
     34  C          2.4920   13.0610  -33.5280 C.2    26  GLY26       0.2309
     35  O          1.5000   13.1760  -32.8020 O.2    26  GLY26      -0.2863
     36  N         -0.1820   10.5220  -36.2730 N.3    28  ILE28      -0.1245
     37  CA        -0.4800    9.2590  -36.9260 C.3    28  ILE28       0.1561
     38  C         -1.4600    9.4560  -38.0940 C.2    28  ILE28       0.2260
     39  O         -2.4430   10.1810  -37.9650 O.2    28  ILE28      -0.2867
     40  CB        -0.7200    8.0220  -35.9740 C.3    28  ILE28       0.0252
     41  CG1       -1.9610    7.2260  -36.2920 C.3    28  ILE28       0.0019
     42  CG2       -0.5080    8.2850  -34.4490 C.3    28  ILE28       0.0019
     43  CD1       -1.6700    6.0850  -37.0680 C.3    28  ILE28       0.0001
     44  N         -1.2590    2.1930  -41.1660 N.3    41  ALA41      -0.1245
     45  CA        -1.0920    3.2780  -40.2110 C.3    41  ALA41       0.1562
     46  C          0.3710    3.7140  -40.2710 C.2    41  ALA41       0.2260
     47  O          1.2900    2.8860  -40.1670 O.2    41  ALA41      -0.2867
     48  CB        -1.4560    2.8160  -38.7990 C.3    41  ALA41       0.0290
     49  N          2.9980    6.2250  -38.4460 N.3    43  LYS43      -0.1245
     50  CA         3.2500    7.0100  -37.2450 C.3    43  LYS43       0.1561
     51  C          4.5130    7.8080  -37.4500 C.2    43  LYS43       0.2260
     52  O          5.5610    7.2500  -37.7490 O.2    43  LYS43      -0.2867
     53  CB         3.3320    6.0990  -35.9960 C.3    43  LYS43       0.0271
     54  CG         3.6120    6.8460  -34.6870 C.3    43  LYS43       0.0035
     55  CD         3.2240    6.0070  -33.4670 C.3    43  LYS43       0.0206
     56  CE         3.2560    6.8240  -32.1950 C.3    43  LYS43       0.1093
     57  NZ         2.8940    6.0080  -31.0060 N.3    43  LYS43      -0.1314
     58  N          9.6720    2.5770  -29.8600 N.3    57  GLU57      -0.1245
     59  CA         8.4330    2.0790  -30.4610 C.3    57  GLU57       0.1567
     60  C          8.7010    0.9520  -31.4490 C.2    57  GLU57       0.2260
     61  O          8.0650   -0.1090  -31.3630 O.2    57  GLU57      -0.2867
     62  CB         7.7080    3.2260  -31.1590 C.3    57  GLU57       0.0388
     63  CG         6.3780    2.8310  -31.7640 C.3    57  GLU57       0.1160
     64  CD         5.1560    3.4130  -31.0930 C.2    57  GLU57       0.3649
     65  OE1        5.2150    4.5700  -30.6230 O.co2  57  GLU57      -0.2457
     66  OE2        4.1020    2.7440  -31.1330 O.co2  57  GLU57      -0.2457
     67  N         -0.2140   -5.0680  -33.7410 N.3    71  CYS71      -0.1235
     68  CA        -0.2010   -4.6840  -35.1600 C.3    71  CYS71       0.1677
     69  C          0.9740   -5.3560  -35.8440 C.2    71  CYS71       0.2270
     70  O          2.0670   -5.4690  -35.2690 O.2    71  CYS71      -0.2867
     71  CB        -0.1050   -3.1690  -35.3320 C.3    71  CYS71       0.0956
     72  SG        -1.5280   -2.2480  -34.7110 S.3    71  CYS71      -0.0801
     73  N          2.6790    0.3580  -39.8060 N.3    87  MET87      -0.1230
     74  CA         2.1200   -0.8250  -39.1770 C.3    87  MET87       0.1702
     75  C          0.7210   -1.0640  -39.6830 C.2    87  MET87       0.2592
     76  O          0.1220   -0.1820  -40.3070 O.2    87  MET87      -0.2718
     77  CB         2.0970   -0.6190  -37.6270 C.3    87  MET87       0.0401
     78  CG         1.0480    0.4110  -37.1720 C.3    87  MET87       0.0596
     79  SD         1.1420    0.9190  -35.4320 S.3    87  MET87      -0.1393
     80  CE         2.5290    2.0850  -35.5330 C.3    87  MET87       0.0692
     81  N          0.1720   -2.2280  -39.3380 N.am   88  GLN88      -0.1966
     82  CA        -1.2000   -2.6090  -39.6500 C.3    88  GLN88       0.1733
     83  C         -2.1690   -1.5490  -39.1100 C.2    88  GLN88       0.2616
     84  O         -2.0100   -1.0660  -37.9740 O.2    88  GLN88      -0.2715
     85  CB        -1.4840   -3.9730  -39.0080 C.3    88  GLN88       0.0408
     86  CG        -2.8860   -4.5030  -39.2310 C.3    88  GLN88       0.0908
     87  CD        -3.0680   -5.8230  -38.5510 C.2    88  GLN88       0.2608
     88  OE1       -2.1800   -6.3120  -37.8620 O.2    88  GLN88      -0.2717
     89  NE2       -4.2240   -6.4400  -38.7430 N.am   88  GLN88      -0.0878
     90  N         -3.1410   -1.1640  -39.9520 N.am   89  LEU89      -0.1963
     91  CA        -4.1540   -0.1860  -39.6150 C.3    89  LEU89       0.1728
     92  C         -5.3070   -0.8780  -38.8710 C.2    89  LEU89       0.2616
     93  O         -5.7890   -1.9320  -39.2880 O.2    89  LEU89      -0.2715
     94  CB        -4.6590    0.5230  -40.8970 C.3    89  LEU89       0.0311
     95  CG        -5.7650    1.5690  -40.7320 C.3    89  LEU89       0.0022
     96  CD1       -5.2540    2.8410  -40.0430 C.3    89  LEU89       0.0001
     97  CD2       -6.4510    1.8630  -42.0570 C.3    89  LEU89       0.0001
     98  N         -5.7490   -0.2750  -37.7670 N.am   90  GLN90      -0.1963
     99  CA        -6.8600   -0.8130  -36.9800 C.3    90  GLN90       0.1733
    100  C         -8.0490    0.1480  -37.0510 C.2    90  GLN90       0.2617
    101  O         -7.9980    1.1390  -37.7750 O.2    90  GLN90      -0.2715
    102  CB        -6.4080   -1.0550  -35.5160 C.3    90  GLN90       0.0408
    103  CG        -5.1820   -1.9560  -35.3620 C.3    90  GLN90       0.0908
    104  CD        -5.3280   -3.3460  -35.9430 C.2    90  GLN90       0.2608
    105  OE1       -6.4110   -3.7980  -36.3100 O.2    90  GLN90      -0.2717
    106  NE2       -4.2400   -4.0900  -35.9690 N.am   90  GLN90      -0.0878
    107  N         -9.1000   -0.1500  -36.2910 N.am   91  GLY91      -0.1940
    108  CA       -10.3020    0.6720  -36.2290 C.3    91  GLY91       0.2014
    109  C        -10.2580    1.7000  -35.1200 C.2    91  GLY91       0.2639
    110  O         -9.2000    2.2460  -34.7960 O.2    91  GLY91      -0.2714
    111  N        -11.4130    1.9740  -34.5390 N.am   92  ARG92      -0.1963
    112  CA       -11.5820    2.9720  -33.4790 C.3    92  ARG92       0.1729
    113  C        -10.9660    2.5760  -32.1320 C.2    92  ARG92       0.2616
    114  O        -10.9470    1.3990  -31.7750 O.2    92  ARG92      -0.2715
    115  CB       -13.0590    3.3160  -33.3090 C.3    92  ARG92       0.0348
    116  CG       -13.6740    3.9410  -34.5790 C.3    92  ARG92       0.0492
    117  CD       -15.1800    4.0240  -34.4940 C.3    92  ARG92       0.2205
    118  NE       -15.5860    5.0370  -33.5200 N.pl3  92  ARG92      -0.0865
    119  CZ       -16.8090    5.1470  -33.0160 C.cat  92  ARG92       0.5346
    120  NH1      -17.7680    4.3080  -33.3920 N.pl3  92  ARG92       0.1354
    121  NH2      -17.0830    6.0940  -32.1290 N.pl3  92  ARG92       0.1354
    122  N        -10.4450    3.5670  -31.4050 N.am   93  ASN93      -0.1972
    123  CA        -9.8620    3.3490  -30.0770 C.3    93  ASN93       0.1688
    124  C        -10.9600    3.2680  -28.9910 C.2    93  ASN93       0.2292
    125  O        -12.0840    3.7330  -29.2080 O.2    93  ASN93      -0.2864
    126  CB        -8.7260    4.3670  -29.7570 C.3    93  ASN93       0.1181
    127  CG        -9.1750    5.7630  -29.4170 C.2    93  ASN93       0.2629
    128  OD1      -10.0070    5.9730  -28.5550 O.2    93  ASN93      -0.2716
    129  ND2       -8.5480    6.7650  -30.0020 N.am   93  ASN93      -0.0877
    130  N          2.1760    3.4100  -20.4320 N.3   134  ASP134     -0.1239
    131  CA         1.1840    4.3730  -20.8910 C.3   134  ASP134      0.1674
    132  C         -0.1360    3.6790  -21.2220 C.2   134  ASP134      0.2266
    133  O         -0.7640    3.9850  -22.2380 O.2   134  ASP134     -0.2867
    134  CB         1.7600    5.1960  -22.0710 C.3   134  ASP134      0.1410
    135  CG         0.9490    6.4180  -22.4300 C.2   134  ASP134      0.3668
    136  OD1        0.3130    6.9970  -21.5240 O.co2 134  ASP134     -0.2456
    137  OD2        0.9650    6.8120  -23.6170 O.co2 134  ASP134     -0.2456
    138  N         -3.8040    3.0570  -21.3710 N.3   136  LYS136     -0.1245
    139  CA        -4.9690    3.9640  -21.3790 C.3   136  LYS136      0.1561
    140  C         -5.9510    3.5380  -22.4940 C.2   136  LYS136      0.2260
    141  O         -5.5250    2.8420  -23.4290 O.2   136  LYS136     -0.2867
    142  CB        -4.5460    5.4340  -21.5370 C.3   136  LYS136      0.0271
    143  CG        -3.8790    5.7710  -22.8540 C.3   136  LYS136      0.0035
    144  CD        -3.4690    7.2180  -22.8540 C.3   136  LYS136      0.0206
    145  CE        -2.6750    7.5760  -24.0790 C.3   136  LYS136      0.1093
    146  NZ        -2.1440    8.9600  -23.9980 N.3   136  LYS136     -0.1314
    147  N         -7.2840    5.0690  -25.1070 N.3   138  SER138     -0.1202
    148  CA        -6.9200    5.5140  -26.4650 C.3   138  SER138      0.2020
    149  C         -5.7280    4.7400  -27.0730 C.2   138  SER138      0.2618
    150  O         -5.5430    4.7740  -28.2950 O.2   138  SER138     -0.2717
    151  CB        -6.7450    7.0250  -26.5300 C.3   138  SER138      0.2103
    152  OG        -5.6370    7.3930  -25.7340 O.3   138  SER138     -0.2182
    153  N         -4.9810    3.9680  -26.2400 N.am  139  ASN139     -0.1974
    154  CA        -3.8960    3.0940  -26.7200 C.3   139  ASN139      0.1688
    155  C         -4.3640    1.6600  -26.9680 C.2   139  ASN139      0.2292
    156  O         -3.5550    0.7220  -26.9930 O.2   139  ASN139     -0.2864
    157  CB        -2.6650    3.1430  -25.8140 C.3   139  ASN139      0.1181
    158  CG        -1.8700    4.4120  -25.9610 C.2   139  ASN139      0.2629
    159  OD1       -1.9700    5.1150  -26.9510 O.2   139  ASN139     -0.2716
    160  ND2       -1.0210    4.7100  -24.9970 N.am  139  ASN139     -0.0877
    161  N         -7.2340   -0.3170  -29.6620 N.3   141  ALA141     -0.1245
    162  CA        -8.1200   -0.1500  -30.8160 C.3   141  ALA141      0.1562
    163  C         -8.6610   -1.4770  -31.3050 C.2   141  ALA141      0.2260
    164  O         -7.9620   -2.4940  -31.2890 O.2   141  ALA141     -0.2867
    165  CB        -7.3830    0.5630  -31.9530 C.3   141  ALA141      0.0290
    166  N         -1.6370   -0.4870  -28.5540 N.3   155  LEU155     -0.1231
    167  CA        -0.8730    0.4930  -29.3310 C.3   155  LEU155      0.1693
    168  C          0.0660    1.2780  -28.4630 C.2   155  LEU155      0.2592
    169  O         -0.0750    1.2660  -27.2390 O.2   155  LEU155     -0.2718
    170  CB        -1.8180    1.5150  -30.0000 C.3   155  LEU155      0.0284
    171  CG        -2.9540    0.9720  -30.8540 C.3   155  LEU155      0.0019
    172  CD1       -3.9390    2.0770  -31.1600 C.3   155  LEU155      0.0001
    173  CD2       -2.4150    0.3000  -32.1390 C.3   155  LEU155      0.0001
    174  N          0.9990    2.0190  -29.1300 N.am  156  ASP156     -0.1974
    175  CA         1.8950    3.0230  -28.5580 C.3   156  ASP156      0.1709
    176  C          2.9410    2.5190  -27.5740 C.2   156  ASP156      0.2293
    177  O          2.7200    2.5030  -26.3620 O.2   156  ASP156     -0.2864
    178  CB         1.0480    4.1800  -27.9770 C.3   156  ASP156      0.1436
    179  CG         1.8080    5.4240  -27.5650 C.2   156  ASP156      0.3671
    180  OD1        3.0030    5.5340  -27.9150 O.co2 156  ASP156     -0.2456
    181  OD2        1.2100    6.2800  -26.8740 O.co2 156  ASP156     -0.2456
@<TRIPOS>BOND
     1    97    95    1
     2    44    45    1
     3    94    95    1
     4    94    91    1
     5    95    96    1
     6    76    75    2
     7    46    45    1
     8    46    47    2
     9    45    48    1
    10    90    91    1
    11    90    83   am
    12    73    74    1
    13     7     5    1
    14    75    81   am
    15    75    74    1
    16    82    81    1
    17    82    83    1
    18    82    85    1
    19    91    92    1
    20    93    92    2
    21    86    85    1
    22    86    87    1
    23    74    77    1
    24    83    84    2
    25    92    98   am
    26    89    87   am
    27    87    88    2
    28     1     2    1
    29    49    50    1
    30     5     6    1
    31     5     2    1
    32     8     6    1
    33    38    39    2
    34    38    37    1
    35   101   100    2
    36    98    99    1
    37     2     3    1
    38    52    51    2
    39    77    78    1
    40    51    50    1
    41    50    53    1
    42    78    79    1
    43    43    41    1
    44   100    99    1
    45   100   107   am
    46    99   102    1
    47    37    36    1
    48    37    40    1
    49   105   104    2
    50    41    40    1
    51   107   108    1
    52     3     9   am
    53     3     4    2
    54   108   109    1
    55    53    54    1
    56    40    42    1
    57   106   104   am
    58   104   103    1
    59     9    10    1
    60    69    70    2
    61    69    68    1
    62    80    79    1
    63   102   103    1
    64    71    68    1
    65    71    72    1
    66    12    11    2
    67    68    67    1
    68   109   110    2
    69   109   111   am
    70    54    55    1
    71   116   117    1
    72   116   115    1
    73   111   112    1
    74   117   118    1
    75    10    11    1
    76    11    13   am
    77    34    33    1
    78    34    35    2
    79   118   119    2
    80   112   115    1
    81   112   113    1
    82    55    56    1
    83   120   119    1
    84   119   121    1
    85    33    32    1
    86    13    14    1
    87    14    15    1
    88    56    57    1
    89   173   171    1
    90   113   114    2
    91   113   122   am
    92   165   162    1
    93    63    62    1
    94    63    64    1
    95    24    23    2
    96    32    23   am
    97    60    61    2
    98    60    59    1
    99   122   123    1
   100   163   164    2
   101   163   162    1
   102   172   171    1
   103    62    59    1
   104    15    16    2
   105    66    64   ar
   106    64    65   ar
   107    23    22    1
   108   171   170    1
   109   162   161    1
   110    59    58    1
   111   123   126    1
   112   123   124    1
   113   129   127   am
   114   170   167    1
   115   126   127    1
   116    22    25    1
   117    22    21    1
   118   127   128    2
   119   167   166    1
   120   167   168    1
   121   125   124    2
   122    20    19    2
   123   174   175    1
   124   174   168   am
   125    25    26    1
   126    21    19   am
   127    19    18    1
   128   175   178    1
   129   175   176    1
   130   168   169    2
   131   150   149    2
   132    17    18    1
   133   178   179    1
   134   180   179   ar
   135   176   177    2
   136   179   181   ar
   137    26    27   ar
   138    26    28   ar
   139    27    29   ar
   140   149   148    1
   141   149   153   am
   142   156   155    2
   143   155   154    1
   144   159   158    2
   145   154   153    1
   146   154   157    1
   147   151   148    1
   148   151   152    1
   149   148   147    1
   150    28    30   ar
   151   158   157    1
   152   158   160   am
   153    29    31   ar
   154    30    31   ar
   155   145   146    1
   156   145   144    1
   157   137   135   ar
   158   141   140    2
   159   144   143    1
   160   143   142    1
   161   140   139    1
   162   135   134    1
   163   135   136   ar
   164   133   132    2
   165   134   131    1
   166   142   139    1
   167   139   138    1
   168   132   131    1
   169   131   130    1
