@<TRIPOS>MOLECULE
tmp/4btjB00.pdb
 162 152 0 0 0
SMALL
GASTEIGER

@<TRIPOS>ATOM
      1  N         35.5480   44.3910   -1.4600 N.3    20  ILE20      -0.1231
      2  CA        35.2380   43.7800   -2.7600 C.3    20  ILE20       0.1692
      3  C         33.8130   43.1880   -2.8400 C.2    20  ILE20       0.2593
      4  O         33.4000   42.7090   -3.8940 O.2    20  ILE20      -0.2718
      5  CB        36.3550   42.8730   -3.3480 C.3    20  ILE20       0.0266
      6  CG1       36.6310   41.6320   -2.4690 C.3    20  ILE20       0.0019
      7  CG2       37.6170   43.6920   -3.6730 C.3    20  ILE20       0.0020
      8  CD1       37.5930   40.6210   -3.0710 C.3    20  ILE20       0.0001
      9  N         33.0800   43.2760   -1.7390 N.am   21  GLY21      -0.1942
     10  CA        31.7050   42.8140   -1.6290 C.3    21  GLY21       0.2014
     11  C         31.2300   42.7500   -0.1960 C.2    21  GLY21       0.2639
     12  O         32.0070   42.9760    0.7350 O.2    21  GLY21      -0.2714
     13  N         29.9570   42.4330   -0.0150 N.am   22  GLY22      -0.1939
     14  CA        29.4170   42.2630    1.3250 C.3    22  GLY22       0.2014
     15  C         28.2800   43.1580    1.7510 C.2    22  GLY22       0.2639
     16  O         28.3840   44.3890    1.7150 O.2    22  GLY22      -0.2714
     17  N         27.2270   42.5000    2.2210 N.am   23  GLY23      -0.1954
     18  CA        26.0120   43.1020    2.7470 C.3    23  GLY23       0.1869
     19  C         25.3200   42.1470    3.6970 C.2    23  GLY23       0.2309
     20  O         25.4370   40.9220    3.5410 O.2    23  GLY23      -0.2863
     21  N         25.0110   39.8450    6.0710 N.3    25  PHE25      -0.1227
     22  CA        25.7650   38.7990    6.7770 C.3    25  PHE25       0.1736
     23  C         27.1870   39.1830    7.2050 C.2    25  PHE25       0.2596
     24  O         27.6490   38.7200    8.2540 O.2    25  PHE25      -0.2718
     25  CB        25.7930   37.4930    5.9670 C.3    25  PHE25       0.0547
     26  CG        24.5360   36.6650    6.0900 C.ar   25  PHE25      -0.0202
     27  CD1       24.3290   35.8440    7.1930 C.ar   25  PHE25      -0.0042
     28  CD2       23.5660   36.6910    5.0930 C.ar   25  PHE25      -0.0042
     29  CE1       23.1650   35.0770    7.3060 C.ar   25  PHE25      -0.0003
     30  CE2       22.4040   35.9190    5.2040 C.ar   25  PHE25      -0.0003
     31  CZ        22.2090   35.1210    6.3110 C.ar   25  PHE25      -0.0000
     32  N         27.8630   39.9890    6.3820 N.am   26  GLY26      -0.1942
     33  CA        29.2310   40.4370    6.6160 C.3    26  GLY26       0.2014
     34  C         29.8430   41.1730    5.4460 C.2    26  GLY26       0.2639
     35  O         29.1250   41.6650    4.5700 O.2    26  GLY26      -0.2714
     36  N         31.1860   41.2820    5.4360 N.am   27  GLU27      -0.1963
     37  CA        31.9040   41.9820    4.3730 C.3    27  GLU27       0.1733
     38  C         33.1330   41.2170    3.8990 C.2    27  GLU27       0.2616
     39  O         33.7110   40.4270    4.6430 O.2    27  GLU27      -0.2715
     40  CB        32.2750   43.4080    4.8070 C.3    27  GLU27       0.0429
     41  CG        31.0720   44.2770    5.1410 C.3    27  GLU27       0.1163
     42  CD        31.3860   45.6460    5.6950 C.2    27  GLU27       0.3649
     43  OE1       32.4120   45.7780    6.3980 O.co2  27  GLU27      -0.2457
     44  OE2       30.5890   46.5810    5.4550 O.co2  27  GLU27      -0.2457
     45  N         33.5190   41.4460    2.6510 N.am   28  ILE28      -0.1977
     46  CA        34.6820   40.8030    2.0490 C.3    28  ILE28       0.1596
     47  C         35.6050   41.8470    1.4630 C.2    28  ILE28       0.2287
     48  O         35.1570   42.7650    0.7910 O.2    28  ILE28      -0.2864
     49  CB        34.3730   39.5750    1.1260 C.3    28  ILE28       0.0276
     50  CG1       35.6520   39.0050    0.4600 C.3    28  ILE28       0.0022
     51  CG2       33.3190   39.8880    0.0840 C.3    28  ILE28       0.0022
     52  CD1       35.7490   37.5090    0.4880 C.3    28  ILE28       0.0001
     53  N         41.8470   37.2690   -0.3030 N.3    41  ALA41      -0.1245
     54  CA        40.4910   37.6910    0.0110 C.3    41  ALA41       0.1562
     55  C         40.3220   37.5550    1.5380 C.2    41  ALA41       0.2260
     56  O         40.7080   36.5430    2.1230 O.2    41  ALA41      -0.2867
     57  CB        39.4790   36.8140   -0.7140 C.3    41  ALA41       0.0290
     58  N         37.4610   37.6940    4.4600 N.3    43  LYS43      -0.1245
     59  CA        36.0260   37.7090    4.7590 C.3    43  LYS43       0.1561
     60  C         35.8270   37.8880    6.2600 C.2    43  LYS43       0.2260
     61  O         36.4510   37.1830    7.0400 O.2    43  LYS43      -0.2867
     62  CB        35.3190   36.4420    4.2290 C.3    43  LYS43       0.0271
     63  CG        33.7980   36.4940    4.3960 C.3    43  LYS43       0.0035
     64  CD        33.0990   35.4330    3.5420 C.3    43  LYS43       0.0206
     65  CE        31.5940   35.5690    3.6110 C.3    43  LYS43       0.1093
     66  NZ        30.9080   34.6060    2.7060 N.3    43  LYS43      -0.1314
     67  N         38.7390   27.7700   -3.2190 N.3    71  CYS71      -0.1235
     68  CA        39.8060   28.6670   -2.7640 C.3    71  CYS71       0.1677
     69  C         40.6870   27.9660   -1.7570 C.2    71  CYS71       0.2270
     70  O         40.1860   27.2620   -0.8610 O.2    71  CYS71      -0.2867
     71  CB        39.2230   29.9360   -2.1540 C.3    71  CYS71       0.0956
     72  SG        38.2770   30.9390   -3.3070 S.3    71  CYS71      -0.0801
     73  N         41.5020   33.6070    2.5070 N.3    87  MET87      -0.1230
     74  CA        41.5130   32.6150    1.4400 C.3    87  MET87       0.1702
     75  C         42.0940   33.2360    0.1690 C.2    87  MET87       0.2592
     76  O         42.2360   34.4480    0.0740 O.2    87  MET87      -0.2718
     77  CB        40.0740   32.1000    1.1730 C.3    87  MET87       0.0401
     78  CG        39.2380   33.0850    0.3600 C.3    87  MET87       0.0596
     79  SD        37.4630   32.8380    0.3740 S.3    87  MET87      -0.1393
     80  CE        37.0880   33.3340    2.1000 C.3    87  MET87       0.0692
     81  N         42.3830   32.3800   -0.8080 N.am   88  GLN88      -0.1966
     82  CA        42.8620   32.7120   -2.1310 C.3    88  GLN88       0.1733
     83  C         41.9000   33.7040   -2.7870 C.2    88  GLN88       0.2616
     84  O         40.6850   33.5160   -2.7320 O.2    88  GLN88      -0.2715
     85  CB        42.9340   31.4190   -2.9540 C.3    88  GLN88       0.0408
     86  CG        43.5230   31.5780   -4.3620 C.3    88  GLN88       0.0908
     87  CD        43.5340   30.2660   -5.1180 C.2    88  GLN88       0.2608
     88  OE1       43.0200   29.2470   -4.6600 O.2    88  GLN88      -0.2717
     89  NE2       44.1210   30.2540   -6.2940 N.am   88  GLN88      -0.0878
     90  N         42.4580   34.7700   -3.3850 N.am   89  LEU89      -0.1963
     91  CA        41.7070   35.7920   -4.0950 C.3    89  LEU89       0.1728
     92  C         41.4510   35.2940   -5.5220 C.2    89  LEU89       0.2616
     93  O         42.3600   34.7670   -6.1690 O.2    89  LEU89      -0.2715
     94  CB        42.5270   37.0980   -4.1300 C.3    89  LEU89       0.0311
     95  CG        41.9080   38.3110   -4.8410 C.3    89  LEU89       0.0022
     96  CD1       40.6780   38.8260   -4.0990 C.3    89  LEU89       0.0001
     97  CD2       42.9480   39.4170   -5.0020 C.3    89  LEU89       0.0001
     98  N         40.2200   35.4790   -6.0120 N.am   90  GLN90      -0.1963
     99  CA        39.8560   35.1000   -7.3760 C.3    90  GLN90       0.1733
    100  C         39.5620   36.3570   -8.1900 C.2    90  GLN90       0.2616
    101  O         39.6210   37.4740   -7.6470 O.2    90  GLN90      -0.2715
    102  CB        38.6460   34.1060   -7.3850 C.3    90  GLN90       0.0408
    103  CG        38.8650   32.8000   -6.6050 C.3    90  GLN90       0.0908
    104  CD        40.1030   32.0400   -7.0030 C.2    90  GLN90       0.2608
    105  OE1       40.7270   32.2860   -8.0440 O.2    90  GLN90      -0.2717
    106  NE2       40.4710   31.0660   -6.1980 N.am   90  GLN90      -0.0878
    107  N         39.2540   36.1630   -9.4710 N.am   91  GLY91      -0.1955
    108  CA        38.9090   37.2240  -10.4040 C.3    91  GLY91       0.1869
    109  C         37.4490   37.6230  -10.3320 C.2    91  GLY91       0.2309
    110  O         36.8460   37.6370   -9.2540 O.2    91  GLY91      -0.2863
    111  N         33.3570   37.6440  -10.6690 N.3    93  ASN93      -0.1240
    112  CA        32.2840   36.6750  -10.4580 C.3    93  ASN93       0.1653
    113  C         31.4330   36.5290  -11.7480 C.2    93  ASN93       0.2266
    114  O         31.4590   37.4230  -12.6100 O.2    93  ASN93      -0.2867
    115  CB        31.4500   37.0140   -9.2300 C.3    93  ASN93       0.1155
    116  CG        30.5260   38.1960   -9.3610 C.2    93  ASN93       0.2627
    117  OD1       29.7540   38.3160  -10.3060 O.2    93  ASN93      -0.2716
    118  ND2       30.4430   38.9900   -8.3190 N.am   93  ASN93      -0.0877
    119  N         24.3170   30.6900   -7.0140 N.3   136  LYS136     -0.1245
    120  CA        23.9890   31.8630   -7.8480 C.3   136  LYS136      0.1561
    121  C         25.2530   32.3640   -8.5920 C.2   136  LYS136      0.2260
    122  O         26.3650   32.0250   -8.1730 O.2   136  LYS136     -0.2867
    123  CB        23.3450   32.9910   -7.0090 C.3   136  LYS136      0.0271
    124  CG        24.2360   33.5550   -5.9250 C.3   136  LYS136      0.0035
    125  CD        23.5080   34.6430   -5.1980 C.3   136  LYS136      0.0206
    126  CE        24.2980   35.2060   -4.0450 C.3   136  LYS136      0.1093
    127  NZ        23.5200   36.2900   -3.3920 N.3   136  LYS136     -0.1314
    128  N         26.9420   35.1930   -8.6960 N.3   138  SER138     -0.1202
    129  CA        27.9010   35.9650   -7.8850 C.3   138  SER138      0.2020
    130  C         28.6900   35.1160   -6.8720 C.2   138  SER138      0.2618
    131  O         29.6790   35.6050   -6.3200 O.2   138  SER138     -0.2717
    132  CB        27.2310   37.1540   -7.2070 C.3   138  SER138      0.2103
    133  OG        26.2170   36.7150   -6.3230 O.3   138  SER138     -0.2182
    134  N         28.2770   33.8400   -6.6500 N.am  139  ASN139     -0.1974
    135  CA        28.9870   32.9160   -5.7580 C.3   139  ASN139      0.1688
    136  C         29.9440   32.0000   -6.4830 C.2   139  ASN139      0.2292
    137  O         30.3740   30.9800   -5.9410 O.2   139  ASN139     -0.2864
    138  CB        28.0310   32.1670   -4.8360 C.3   139  ASN139      0.1181
    139  CG        27.6340   32.9960   -3.6450 C.2   139  ASN139      0.2629
    140  OD1       28.3310   33.9370   -3.2430 O.2   139  ASN139     -0.2716
    141  ND2       26.5080   32.6690   -3.0510 N.am  139  ASN139     -0.0877
    142  N         33.4240   32.4550   -9.3140 N.3   141  ALA141     -0.1245
    143  CA        34.3600   33.4180   -9.8760 C.3   141  ALA141      0.1562
    144  C         35.4610   32.7350  -10.6230 C.2   141  ALA141      0.2260
    145  O         35.9000   31.6640  -10.2200 O.2   141  ALA141     -0.2867
    146  CB        34.9490   34.2930   -8.7610 C.3   141  ALA141      0.0290
    147  N         32.2390   29.9650   -4.2540 N.3   155  LEU155     -0.1231
    148  CA        32.4410   30.8510   -3.1030 C.3   155  LEU155      0.1693
    149  C         31.2820   30.7970   -2.1350 C.2   155  LEU155      0.2592
    150  O         30.1890   30.3540   -2.5050 O.2   155  LEU155     -0.2718
    151  CB        32.5600   32.3220   -3.6000 C.3   155  LEU155      0.0284
    152  CG        33.4890   32.5700   -4.8050 C.3   155  LEU155      0.0019
    153  CD1       33.2420   33.9410   -5.3920 C.3   155  LEU155      0.0001
    154  CD2       34.9560   32.3620   -4.4150 C.3   155  LEU155      0.0001
    155  N         31.4900   31.3990   -0.9410 N.am  156  ASP156     -0.1974
    156  CA        30.4820   31.6230    0.0920 C.3   156  ASP156      0.1709
    157  C         29.8070   30.3670    0.6630 C.2   156  ASP156      0.2293
    158  O         28.7420   29.9550    0.2020 O.2   156  ASP156     -0.2864
    159  CB        29.4740   32.7080   -0.3460 C.3   156  ASP156      0.1436
    160  CG        28.3970   33.0730    0.6660 C.2   156  ASP156      0.3671
    161  OD1       28.6500   32.9320    1.8860 O.co2 156  ASP156     -0.2456
    162  OD2       27.3040   33.5160    0.2360 O.co2 156  ASP156     -0.2456
@<TRIPOS>BOND
     1   114   113    2
     2   113   112    1
     3   111   112    1
     4   144   145    2
     5   144   143    1
     6   112   115    1
     7   108   109    1
     8   108   107    1
     9   109   110    2
    10   117   116    2
    11   143   142    1
    12   143   146    1
    13   107   100   am
    14   116   115    1
    15   116   118   am
    16   128   129    1
    17   121   122    2
    18   121   120    1
    19   100   101    2
    20   100    99    1
    21   105   104    2
    22   129   132    1
    23   129   130    1
    24   120   119    1
    25   120   123    1
    26   102    99    1
    27   102   103    1
    28    99    98    1
    29   132   133    1
    30   123   124    1
    31   104   103    1
    32   104   106   am
    33   130   134   am
    34   130   131    2
    35   134   135    1
    36   136   137    2
    37   136   135    1
    38    89    87   am
    39    93    92    2
    40    98    92   am
    41   124   125    1
    42   135   138    1
    43    92    91    1
    44   153   152    1
    45   125   126    1
    46    87    88    2
    47    87    86    1
    48    97    95    1
    49    95    94    1
    50    95    96    1
    51   138   139    1
    52   152   154    1
    53   152   151    1
    54    86    85    1
    55   147   148    1
    56    94    91    1
    57    91    90    1
    58   126   127    1
    59     4     3    2
    60     7     5    1
    61   139   140    2
    62   139   141   am
    63   151   148    1
    64    90    83   am
    65     5     2    1
    66     5     6    1
    67    72    71    1
    68    67    68    1
    69   148   149    1
    70     8     6    1
    71    85    82    1
    72     3     2    1
    73     3     9   am
    74    83    84    2
    75    83    82    1
    76    68    71    1
    77    68    69    1
    78     2     1    1
    79   150   149    2
    80   149   155   am
    81    82    81    1
    82    69    70    2
    83     9    10    1
    84    10    11    1
    85   155   156    1
    86    81    75   am
    87    57    54    1
    88   159   156    1
    89   159   160    1
    90    53    54    1
    91    11    13   am
    92    11    12    2
    93    13    14    1
    94    54    55    1
    95    76    75    2
    96    51    49    1
    97   156   157    1
    98    75    74    1
    99   158   157    2
   100   162   160   ar
   101    78    79    1
   102    78    77    1
   103    79    80    1
   104    50    52    1
   105    50    49    1
   106   160   161   ar
   107    48    47    2
   108    49    46    1
   109    77    74    1
   110    14    15    1
   111    74    73    1
   112    47    46    1
   113    55    56    2
   114    16    15    2
   115    15    17   am
   116    46    45    1
   117    17    18    1
   118    45    38   am
   119    66    65    1
   120    18    19    1
   121    20    19    2
   122    64    65    1
   123    64    63    1
   124    38    37    1
   125    38    39    2
   126    62    63    1
   127    62    59    1
   128    37    40    1
   129    37    36    1
   130    58    59    1
   131    35    34    2
   132    59    60    1
   133    40    41    1
   134    28    30   ar
   135    28    26   ar
   136    41    42    1
   137    30    31   ar
   138    36    34   am
   139    34    33    1
   140    44    42   ar
   141    42    43   ar
   142    25    26    1
   143    25    22    1
   144    21    22    1
   145    26    27   ar
   146    60    61    2
   147    31    29   ar
   148    32    33    1
   149    32    23   am
   150    22    23    1
   151    27    29   ar
   152    23    24    2
