@<TRIPOS>MOLECULE
tmp/4btkA00.pdb
 156 144 0 0 0
SMALL
GASTEIGER

@<TRIPOS>ATOM
      1  N         66.1510   29.2510   26.5100 N.3    19  ILE19      -0.1231
      2  CA        66.1100   28.7520   25.1410 C.3    19  ILE19       0.1692
      3  C         64.7510   28.9140   24.4530 C.2    19  ILE19       0.2592
      4  O         64.7000   29.2980   23.2750 O.2    19  ILE19      -0.2718
      5  CB        66.8500   27.3970   24.9030 C.3    19  ILE19       0.0266
      6  CG1       66.2970   26.2460   25.7640 C.3    19  ILE19       0.0019
      7  CG2       68.3620   27.5790   25.1190 C.3    19  ILE19       0.0020
      8  CD1       67.1080   24.8520   25.7180 C.3    19  ILE19       0.0001
      9  N         63.6710   28.7200   25.2070 N.am   20  GLY20      -0.1957
     10  CA        62.3260   28.8050   24.6440 C.3    20  GLY20       0.1869
     11  C         61.1810   29.3100   25.4990 C.2    20  GLY20       0.2309
     12  O         60.1560   29.7260   24.9440 O.2    20  GLY20      -0.2863
     13  N         62.2370   27.0580   29.7420 N.3    24  ILE24      -0.1245
     14  CA        63.3180   26.1340   29.3770 C.3    24  ILE24       0.1561
     15  C         64.6390   26.8750   29.1380 C.2    24  ILE24       0.2260
     16  O         64.6870   27.8040   28.3370 O.2    24  ILE24      -0.2867
     17  CB        62.9270   25.1050   28.2630 C.3    24  ILE24       0.0252
     18  CG1       64.0850   24.1020   27.9730 C.3    24  ILE24       0.0019
     19  CG2       62.4130   25.7640   26.9850 C.3    24  ILE24       0.0019
     20  CD1       63.6670   22.6840   27.7140 C.3    24  ILE24       0.0001
     21  N         69.6590   20.7240   29.3510 N.3    37  ALA37      -0.1245
     22  CA        68.4030   21.4750   29.2010 C.3    37  ALA37       0.1562
     23  C         67.7820   21.4720   30.6170 C.2    37  ALA37       0.2260
     24  O         67.8250   20.4440   31.3030 O.2    37  ALA37      -0.2867
     25  CB        67.4800   20.7740   28.2040 C.3    37  ALA37       0.0290
     26  N         64.3000   22.7260   32.6410 N.3    39  LYS39      -0.1245
     27  CA        62.9220   23.2390   32.5410 C.3    39  LYS39       0.1561
     28  C         62.3620   23.4550   33.9490 C.2    39  LYS39       0.2260
     29  O         62.4900   22.5820   34.8130 O.2    39  LYS39      -0.2867
     30  CB        62.0080   22.3180   31.7160 C.3    39  LYS39       0.0271
     31  CG        60.7570   23.0520   31.2500 C.3    39  LYS39       0.0035
     32  CD        59.8920   22.2250   30.3360 C.3    39  LYS39       0.0206
     33  CE        58.6210   22.9570   29.9640 C.3    39  LYS39       0.1093
     34  NZ        57.8630   22.2460   28.8970 N.3    39  LYS39      -0.1314
     35  N         55.3010   15.8210   33.1060 N.3    53  GLU53      -0.1245
     36  CA        56.3900   15.7720   32.1190 C.3    53  GLU53       0.1567
     37  C         57.5120   14.8140   32.5740 C.2    53  GLU53       0.2260
     38  O         58.0040   14.0270   31.7670 O.2    53  GLU53      -0.2867
     39  CB        56.9630   17.1750   31.9130 C.3    53  GLU53       0.0388
     40  CG        56.0280   18.1290   31.1960 C.3    53  GLU53       0.1160
     41  CD        56.7500   19.0640   30.2440 C.2    53  GLU53       0.3649
     42  OE1       57.5300   18.5740   29.3920 O.co2  53  GLU53      -0.2457
     43  OE2       56.5460   20.2930   30.3600 O.co2  53  GLU53      -0.2457
     44  N         58.8880   11.4310   30.8540 N.3    57  LEU57      -0.1245
     45  CA        60.3310   11.3080   30.5800 C.3    57  LEU57       0.1561
     46  C         60.9430   10.0950   31.3150 C.2    57  LEU57       0.2260
     47  O         61.6890    9.3390   30.6980 O.2    57  LEU57      -0.2867
     48  CB        61.0560   12.6360   30.9200 C.3    57  LEU57       0.0270
     49  CG        62.5260   12.7900   30.5010 C.3    57  LEU57       0.0019
     50  CD1       62.6900   12.7190   28.9850 C.3    57  LEU57       0.0001
     51  CD2       63.0810   14.1290   30.9790 C.3    57  LEU57       0.0001
     52  N         65.2490   12.4000   25.3490 N.3    67  CYS67      -0.1235
     53  CA        66.3610   12.9840   26.1000 C.3    67  CYS67       0.1677
     54  C         66.6690   12.1340   27.3220 C.2    67  CYS67       0.2270
     55  O         65.7600   11.5730   27.9250 O.2    67  CYS67      -0.2867
     56  CB        66.0410   14.4150   26.5090 C.3    67  CYS67       0.0956
     57  SG        65.7420   15.5310   25.1220 S.3    67  CYS67      -0.0801
     58  N         63.2890   20.2490   36.1890 N.3    81  VAL81      -0.1245
     59  CA        63.7130   18.9740   35.5890 C.3    81  VAL81       0.1561
     60  C         64.9950   19.2560   34.8010 C.2    81  VAL81       0.2260
     61  O         65.1470   20.3280   34.2320 O.2    81  VAL81      -0.2867
     62  CB        62.6440   18.1890   34.7570 C.3    81  VAL81       0.0252
     63  CG1       62.2370   18.9280   33.4790 C.3    81  VAL81       0.0019
     64  CG2       63.1210   16.7680   34.4370 C.3    81  VAL81       0.0019
     65  N         67.5320   17.6390   31.8910 N.3    83  MET83      -0.1230
     66  CA        67.6420   16.6000   30.8750 C.3    83  MET83       0.1702
     67  C         68.7070   16.9370   29.8250 C.2    83  MET83       0.2592
     68  O         69.1600   18.0880   29.7170 O.2    83  MET83      -0.2718
     69  CB        66.2720   16.3140   30.2160 C.3    83  MET83       0.0401
     70  CG        65.7090   17.4900   29.4560 C.3    83  MET83       0.0596
     71  SD        63.9360   17.7180   29.6960 S.3    83  MET83      -0.1393
     72  CE        63.8320   19.4430   29.4520 C.3    83  MET83       0.0692
     73  N         69.0520   15.9200   29.0210 N.am   84  GLN84      -0.1966
     74  CA        70.0210   16.0300   27.9310 C.3    84  GLN84       0.1733
     75  C         69.5510   17.0900   26.9330 C.2    84  GLN84       0.2616
     76  O         68.4020   17.0680   26.4950 O.2    84  GLN84      -0.2715
     77  CB        70.1660   14.6720   27.2500 C.3    84  GLN84       0.0408
     78  CG        71.0370   14.6760   25.9910 C.3    84  GLN84       0.0908
     79  CD        70.9850   13.3520   25.2880 C.2    84  GLN84       0.2608
     80  OE1       70.1270   12.5160   25.5550 O.2    84  GLN84      -0.2717
     81  NE2       71.8830   13.1450   24.3310 N.am   84  GLN84      -0.0878
     82  N         70.4530   18.0240   26.6170 N.am   85  LEU85      -0.1963
     83  CA        70.2430   19.1030   25.6800 C.3    85  LEU85       0.1728
     84  C         70.3570   18.5850   24.2420 C.2    85  LEU85       0.2616
     85  O         71.2860   17.8350   23.9130 O.2    85  LEU85      -0.2715
     86  CB        71.2900   20.2090   25.9460 C.3    85  LEU85       0.0311
     87  CG        71.2740   21.4480   25.1040 C.3    85  LEU85       0.0022
     88  CD1       69.9770   22.2930   25.3540 C.3    85  LEU85       0.0001
     89  CD2       72.5100   22.3180   25.4360 C.3    85  LEU85       0.0001
     90  N         69.4040   18.9820   23.3910 N.am   86  GLN86      -0.1963
     91  CA        69.4550   18.5900   21.9990 C.3    86  GLN86       0.1733
     92  C         69.8620   19.7820   21.1380 C.2    86  GLN86       0.2616
     93  O         70.1720   20.8520   21.6680 O.2    86  GLN86      -0.2715
     94  CB        68.1390   17.9340   21.5510 C.3    86  GLN86       0.0408
     95  CG        67.7640   16.6420   22.3180 C.3    86  GLN86       0.0908
     96  CD        68.7710   15.5130   22.2920 C.2    86  GLN86       0.2608
     97  OE1       69.6640   15.4740   21.4620 O.2    86  GLN86      -0.2717
     98  NE2       68.6450   14.5460   23.2100 N.am   86  GLN86      -0.0878
     99  N         69.8440   19.5960   19.8270 N.am   87  GLY87      -0.1955
    100  CA        70.2480   20.6260   18.8860 C.3    87  GLY87       0.1869
    101  C         69.1270   21.2630   18.0990 C.2    87  GLY87       0.2309
    102  O         68.1170   21.6790   18.6580 O.2    87  GLY87      -0.2863
    103  N         65.9980   22.2150   15.7890 N.3    89  ASN89      -0.1240
    104  CA        64.6310   21.7140   15.6550 C.3    89  ASN89       0.1653
    105  C         64.1880   21.6480   14.1840 C.2    89  ASN89       0.2266
    106  O         64.7250   22.3880   13.3440 O.2    89  ASN89      -0.2867
    107  CB        63.6320   22.4010   16.6240 C.3    89  ASN89       0.1155
    108  CG        63.1660   23.7680   16.2200 C.2    89  ASN89       0.2627
    109  OD1       62.5180   23.9470   15.2010 O.2    89  ASN89      -0.2716
    110  ND2       63.3830   24.7480   17.0690 N.am   89  ASN89      -0.0877
    111  N         58.5180   21.9380   15.4860 N.3   134  SER134     -0.1217
    112  CA        59.3280   22.5640   16.5590 C.3   134  SER134      0.1889
    113  C         59.5040   21.7370   17.8470 C.2   134  SER134      0.2288
    114  O         60.3520   22.0880   18.6770 O.2   134  SER134     -0.2866
    115  CB        58.8510   23.9780   16.8650 C.3   134  SER134      0.2089
    116  OG        57.5890   23.9150   17.5060 O.3   134  SER134     -0.2183
    117  N         63.8220   17.6260   17.5140 N.3   137  ALA137     -0.1245
    118  CA        65.1500   18.2000   17.3150 C.3   137  ALA137      0.1562
    119  C         66.1720   17.1410   17.0610 C.2   137  ALA137      0.2260
    120  O         66.0710   16.0370   17.6130 O.2   137  ALA137     -0.2867
    121  CB        65.5760   19.0260   18.5270 C.3   137  ALA137      0.0290
    122  N         62.0250   13.5020   20.3440 N.3   150  MET150     -0.1230
    123  CA        60.7130   14.0210   20.6820 C.3   150  MET150      0.1702
    124  C         60.8810   14.9460   21.8840 C.2   150  MET150      0.2592
    125  O         61.5250   14.5610   22.8530 O.2   150  MET150     -0.2718
    126  CB        59.7730   12.8610   21.0140 C.3   150  MET150      0.0401
    127  CG        58.3600   13.3090   21.3400 C.3   150  MET150      0.0596
    128  SD        57.2940   11.9420   21.7890 S.3   150  MET150     -0.1393
    129  CE        56.4480   11.7130   20.2600 C.3   150  MET150      0.0692
    130  N         60.3170   16.1720   21.8090 N.am  151  LEU151     -0.1966
    131  CA        60.3910   17.1870   22.8820 C.3   151  LEU151      0.1728
    132  C         59.0000   17.6100   23.3670 C.2   151  LEU151      0.2616
    133  O         58.0050   17.3350   22.6870 O.2   151  LEU151     -0.2715
    134  CB        61.1170   18.4560   22.3770 C.3   151  LEU151      0.0311
    135  CG        62.3550   18.2690   21.4830 C.3   151  LEU151      0.0022
    136  CD1       62.7610   19.5830   20.8760 C.3   151  LEU151      0.0001
    137  CD2       63.5000   17.5820   22.2240 C.3   151  LEU151      0.0001
    138  N         58.9650   18.3160   24.5300 N.am  152  ASP152     -0.1957
    139  CA        57.8210   18.9750   25.1980 C.3   152  ASP152      0.1840
    140  C         56.5910   18.0790   25.4600 C.2   152  ASP152      0.2622
    141  O         55.7390   17.9080   24.5930 O.2   152  ASP152     -0.2715
    142  CB        57.4500   20.2750   24.4660 C.3   152  ASP152      0.1450
    143  CG        56.7200   21.3360   25.3030 C.2   152  ASP152      0.3671
    144  OD1       55.9650   20.9590   26.2370 O.co2 152  ASP152     -0.2456
    145  OD2       56.8650   22.5330   24.9930 O.co2 152  ASP152     -0.2456
    146  N         56.5000   17.5530   26.6820 N.am  153  PHE153     -0.1974
    147  CA        55.3990   16.7110   27.0950 C.3   153  PHE153      0.1639
    148  C         54.3650   17.5140   27.9040 C.2   153  PHE153      0.2290
    149  O         53.5220   16.9200   28.5540 O.2   153  PHE153     -0.2864
    150  CB        55.9270   15.4950   27.8690 C.3   153  PHE153      0.0560
    151  CG        56.9610   14.6920   27.0980 C.ar  153  PHE153     -0.0200
    152  CD1       56.5990   13.9550   25.9730 C.ar  153  PHE153     -0.0042
    153  CD2       58.2850   14.6390   27.5220 C.ar  153  PHE153     -0.0042
    154  CE1       57.5640   13.2270   25.2490 C.ar  153  PHE153     -0.0003
    155  CE2       59.2400   13.9000   26.8010 C.ar  153  PHE153     -0.0003
    156  CZ        58.8710   13.2160   25.6640 C.ar  153  PHE153     -0.0000
@<TRIPOS>BOND
     1   106   105    2
     2   105   104    1
     3   109   108    2
     4   111   112    1
     5   104   103    1
     6   104   107    1
     7   108   107    1
     8   108   110   am
     9   112   115    1
    10   112   113    1
    11   115   116    1
    12   119   118    1
    13   119   120    2
    14   118   117    1
    15   118   121    1
    16   113   114    2
    17   101   102    2
    18   101   100    1
    19   100    99    1
    20    99    92   am
    21   129   128    1
    22   122   123    1
    23   123   126    1
    24   123   124    1
    25   136   135    1
    26   126   127    1
    27    92    93    2
    28    92    91    1
    29   127   128    1
    30    97    96    2
    31   135   137    1
    32   135   134    1
    33    94    91    1
    34    94    95    1
    35   130   124   am
    36   130   131    1
    37   124   125    2
    38    91    90    1
    39    96    95    1
    40    96    98   am
    41   134   131    1
    42   133   132    2
    43   131   132    1
    44     4     3    2
    45   132   138   am
    46    90    84   am
    47    85    84    2
    48    84    83    1
    49    81    79   am
    50     3     2    1
    51     3     9   am
    52   142   139    1
    53   142   143    1
    54   138   139    1
    55   141   140    2
    56    10     9    1
    57    10    11    1
    58     5     7    1
    59     5     2    1
    60     5     6    1
    61    12    11    2
    62   145   143   ar
    63    87    88    1
    64    87    89    1
    65    87    86    1
    66    57    56    1
    67     2     1    1
    68   139   140    1
    69   154   156   ar
    70   154   152   ar
    71    79    80    2
    72    79    78    1
    73   143   144   ar
    74    52    53    1
    75   140   146   am
    76   156   155   ar
    77    83    86    1
    78    83    82    1
    79     8     6    1
    80   152   151   ar
    81    78    77    1
    82    53    56    1
    83    53    54    1
    84    76    75    2
    85    82    75   am
    86   146   147    1
    87   155   153   ar
    88    75    74    1
    89    19    17    1
    90   147   150    1
    91   147   148    1
    92   151   153   ar
    93   151   150    1
    94    77    74    1
    95    54    55    2
    96    20    18    1
    97   148   149    2
    98    74    73    1
    99    18    17    1
   100    25    22    1
   101    17    14    1
   102    16    15    2
   103    34    33    1
   104    50    49    1
   105    73    67   am
   106    15    14    1
   107    22    21    1
   108    22    23    1
   109    14    13    1
   110    42    41   ar
   111    72    71    1
   112    70    71    1
   113    70    69    1
   114    68    67    2
   115    67    66    1
   116    33    32    1
   117    69    66    1
   118    41    43   ar
   119    41    40    1
   120    32    31    1
   121    49    48    1
   122    49    51    1
   123    45    44    1
   124    45    48    1
   125    45    46    1
   126    23    24    2
   127    47    46    2
   128    66    65    1
   129    40    39    1
   130    31    30    1
   131    30    27    1
   132    38    37    2
   133    39    36    1
   134    36    37    1
   135    36    35    1
   136    27    26    1
   137    27    28    1
   138    63    62    1
   139    28    29    2
   140    61    60    2
   141    64    62    1
   142    62    59    1
   143    60    59    1
   144    59    58    1
