@<TRIPOS>MOLECULE
tmp/4btlB00.pdb
 221 222 0 0 0
SMALL
GASTEIGER

@<TRIPOS>ATOM
      1  N         11.4660   -9.6670  -46.9540 N.3    69  TYR69      -0.1241
      2  CA        11.2310  -10.7070  -45.9660 C.3    69  TYR69       0.1605
      3  C          9.7720  -10.7100  -45.5050 C.2    69  TYR69       0.2264
      4  O          9.2070   -9.6560  -45.2020 O.2    69  TYR69      -0.2867
      5  CB        12.1660  -10.4590  -44.7730 C.3    69  TYR69       0.0534
      6  CG        11.9380  -11.3560  -43.5880 C.ar   69  TYR69      -0.0201
      7  CD1       12.2120  -12.7190  -43.6630 C.ar   69  TYR69      -0.0009
      8  CD2       11.4650  -10.8430  -42.3860 C.ar   69  TYR69      -0.0009
      9  CE1       12.0120  -13.5520  -42.5770 C.ar   69  TYR69       0.0417
     10  CE2       11.2640  -11.6670  -41.2840 C.ar   69  TYR69       0.0417
     11  CZ        11.5390  -13.0220  -41.3860 C.ar   69  TYR69       0.1957
     12  OH        11.3400  -13.8510  -40.3040 O.3    69  TYR69      -0.2866
     13  N          7.2200  -12.0200  -42.5880 N.3    71  ASP71      -0.1239
     14  CA         7.2570  -12.4980  -41.2030 C.3    71  ASP71       0.1674
     15  C          6.5680  -13.8430  -40.9370 C.2    71  ASP71       0.2266
     16  O          5.5470  -14.1580  -41.5510 O.2    71  ASP71      -0.2867
     17  CB         6.7020  -11.4480  -40.2510 C.3    71  ASP71       0.1410
     18  CG         6.9420  -11.8130  -38.8180 C.2    71  ASP71       0.3668
     19  OD1        8.1020  -11.6790  -38.3870 O.co2  71  ASP71      -0.2456
     20  OD2        5.9980  -12.2850  -38.1490 O.co2  71  ASP71      -0.2456
     21  N          0.5520   -6.5490  -41.4140 N.3    83  TRP83      -0.1241
     22  CA         1.7680   -5.8540  -41.8330 C.3    83  TRP83       0.1605
     23  C          2.4840   -6.5770  -42.9800 C.2    83  TRP83       0.2264
     24  O          3.3810   -6.0200  -43.6040 O.2    83  TRP83      -0.2867
     25  CB         2.7180   -5.6880  -40.6410 C.3    83  TRP83       0.0550
     26  CG         2.0390   -5.0490  -39.4870 C.ar   83  TRP83       0.0003
     27  CD1        1.5930   -5.6600  -38.3510 C.ar   83  TRP83       0.0946
     28  CD2        1.6850   -3.6680  -39.3640 C.ar   83  TRP83       0.0152
     29  NE1        0.9940   -4.7420  -37.5250 N.ar   83  TRP83      -0.2442
     30  CE2        1.0360   -3.5120  -38.1250 C.ar   83  TRP83       0.0810
     31  CE3        1.8570   -2.5460  -40.1820 C.ar   83  TRP83       0.0012
     32  CZ2        0.5610   -2.2800  -37.6830 C.ar   83  TRP83       0.0191
     33  CZ3        1.3850   -1.3240  -39.7390 C.ar   83  TRP83       0.0001
     34  CH2        0.7440   -1.2000  -38.5040 C.ar   83  TRP83       0.0015
     35  N          6.5680    2.4080  -42.8040 N.3   117  GLY117     -0.1210
     36  CA         7.6850    1.8540  -42.0580 C.3   117  GLY117      0.1956
     37  C          7.8270    0.3680  -42.3300 C.2   117  GLY117      0.2612
     38  O          7.2110   -0.1620  -43.2560 O.2   117  GLY117     -0.2717
     39  N          8.6350   -0.3110  -41.5230 N.am  118  GLY118     -0.1942
     40  CA         8.9690   -1.7040  -41.7730 C.3   118  GLY118      0.2014
     41  C         10.4600   -1.9710  -41.6100 C.2   118  GLY118      0.2639
     42  O         10.9950   -2.9250  -42.1800 O.2   118  GLY118     -0.2714
     43  N         11.1310   -1.1160  -40.8380 N.am  119  GLY119     -0.1954
     44  CA        12.5410   -1.2820  -40.5250 C.3   119  GLY119      0.1869
     45  C         13.4630   -1.1740  -41.7250 C.2   119  GLY119      0.2309
     46  O         14.5860   -1.6750  -41.7010 O.2   119  GLY119     -0.2863
     47  N         13.2340   -2.8450  -44.2370 N.3   121  TYR121     -0.1227
     48  CA        13.3810   -4.1930  -44.8100 C.3   121  TYR121      0.1736
     49  C         12.0410   -4.7050  -45.3220 C.2   121  TYR121      0.2596
     50  O         11.9650   -5.7770  -45.9340 O.2   121  TYR121     -0.2718
     51  CB        13.9500   -5.1970  -43.7970 C.3   121  TYR121      0.0548
     52  CG        12.9500   -5.6800  -42.7560 C.ar  121  TYR121     -0.0200
     53  CD1       12.1440   -6.7880  -42.9920 C.ar  121  TYR121     -0.0009
     54  CD2       12.8310   -5.0390  -41.5270 C.ar  121  TYR121     -0.0009
     55  CE1       11.2340   -7.2290  -42.0450 C.ar  121  TYR121      0.0417
     56  CE2       11.9160   -5.4720  -40.5750 C.ar  121  TYR121      0.0417
     57  CZ        11.1240   -6.5680  -40.8400 C.ar  121  TYR121      0.1957
     58  OH        10.2150   -7.0070  -39.9110 O.3   121  TYR121     -0.2866
     59  N         10.9850   -3.9380  -45.0670 N.am  122  SER122     -0.1952
     60  CA         9.6400   -4.3890  -45.3820 C.3   122  SER122      0.1924
     61  C          8.6760   -3.2220  -45.4320 C.2   122  SER122      0.2314
     62  O          9.0440   -2.0880  -45.1170 O.2   122  SER122     -0.2863
     63  CB         9.1520   -5.4060  -44.3460 C.3   122  SER122      0.2116
     64  OG         8.6830   -4.7460  -43.1850 O.3   122  SER122     -0.2180
     65  N         -3.3240    1.7410  -44.7090 N.3   130  TYR130     -0.1241
     66  CA        -2.7510    2.8850  -45.4180 C.3   130  TYR130      0.1605
     67  C         -3.7460    3.4130  -46.4230 C.2   130  TYR130      0.2264
     68  O         -3.4370    4.2870  -47.2190 O.2   130  TYR130     -0.2867
     69  CB        -1.4250    2.5240  -46.0970 C.3   130  TYR130      0.0534
     70  CG        -0.3540    2.0650  -45.1190 C.ar  130  TYR130     -0.0201
     71  CD1       -0.4310    2.3810  -43.7610 C.ar  130  TYR130     -0.0009
     72  CD2        0.7190    1.3040  -45.5490 C.ar  130  TYR130     -0.0009
     73  CE1        0.5420    1.9520  -42.8710 C.ar  130  TYR130      0.0417
     74  CE2        1.6900    0.8740  -44.6790 C.ar  130  TYR130      0.0417
     75  CZ         1.6030    1.1970  -43.3380 C.ar  130  TYR130      0.1957
     76  OH         2.5800    0.7550  -42.4730 O.3   130  TYR130     -0.2866
     77  N          5.5170    6.6390  -40.4410 N.3   199  GLU199     -0.1231
     78  CA         5.5770    5.9820  -39.1470 C.3   199  GLU199      0.1699
     79  C          6.7760    5.0510  -39.0500 C.2   199  GLU199      0.2592
     80  O          7.0810    4.3270  -39.9910 O.2   199  GLU199     -0.2718
     81  CB         4.2930    5.2110  -38.8790 C.3   199  GLU199      0.0402
     82  CG         4.1670    4.6800  -37.4550 C.3   199  GLU199      0.1161
     83  CD         4.6790    3.2610  -37.2940 C.2   199  GLU199      0.3649
     84  OE1        5.0450    2.6210  -38.2980 O.co2 199  GLU199     -0.2457
     85  OE2        4.7210    2.7830  -36.1470 O.co2 199  GLU199     -0.2457
     86  N          7.4560    5.0910  -37.9060 N.am  200  SER200     -0.1952
     87  CA         8.6100    4.2370  -37.6540 C.3   200  SER200      0.1924
     88  C          9.6980    4.4890  -38.6990 C.2   200  SER200      0.2314
     89  O         10.1640    5.6250  -38.8410 O.2   200  SER200     -0.2863
     90  CB         8.1840    2.7700  -37.6310 C.3   200  SER200      0.2116
     91  OG         9.2180    1.9450  -37.1300 O.3   200  SER200     -0.2180
     92  N         19.1810  -11.4030  -42.4270 N.3   277  TRP277     -0.1241
     93  CA        19.3070  -11.2330  -40.9810 C.3   277  TRP277      0.1605
     94  C         20.6550  -11.6980  -40.4190 C.2   277  TRP277      0.2264
     95  O         21.0420  -11.3030  -39.3280 O.2   277  TRP277     -0.2867
     96  CB        18.1450  -11.9170  -40.2480 C.3   277  TRP277      0.0550
     97  CG        16.8240  -11.2480  -40.5020 C.ar  277  TRP277      0.0003
     98  CD1       15.8290  -11.6830  -41.3290 C.ar  277  TRP277      0.0946
     99  CD2       16.3660  -10.0070  -39.9410 C.ar  277  TRP277      0.0152
    100  NE1       14.7780  -10.7970  -41.3090 N.ar  277  TRP277     -0.2442
    101  CE2       15.0840   -9.7600  -40.4650 C.ar  277  TRP277      0.0810
    102  CE3       16.9150   -9.0840  -39.0430 C.ar  277  TRP277      0.0012
    103  CZ2       14.3440   -8.6260  -40.1270 C.ar  277  TRP277      0.0191
    104  CZ3       16.1760   -7.9580  -38.7070 C.ar  277  TRP277      0.0001
    105  CH2       14.9090   -7.7390  -39.2510 C.ar  277  TRP277      0.0015
    106  N         23.9100   -9.0800  -38.8440 N.3   280  LEU280     -0.1245
    107  CA        23.9170   -8.1870  -37.6840 C.3   280  LEU280      0.1561
    108  C         25.0890   -8.5220  -36.7550 C.2   280  LEU280      0.2260
    109  O         25.3660   -9.6910  -36.5020 O.2   280  LEU280     -0.2867
    110  CB        22.5770   -8.2450  -36.9360 C.3   280  LEU280      0.0270
    111  CG        21.4090   -7.5580  -37.6500 C.3   280  LEU280      0.0019
    112  CD1       20.0580   -7.9400  -37.0560 C.3   280  LEU280      0.0001
    113  CD2       21.6010   -6.0530  -37.6180 C.3   280  LEU280      0.0001
    114  N         20.1890   -9.1040  -31.1760 N.3   284  SER284     -0.1202
    115  CA        19.4960   -7.8630  -30.8790 C.3   284  SER284      0.2020
    116  C         18.0150   -7.8720  -31.2280 C.2   284  SER284      0.2619
    117  O         17.5270   -8.7610  -31.9260 O.2   284  SER284     -0.2717
    118  CB        20.1850   -6.7060  -31.6090 C.3   284  SER284      0.2103
    119  OG        20.4420   -7.0330  -32.9660 O.3   284  SER284     -0.2182
    120  N         17.3050   -6.8740  -30.7140 N.am  285  ILE285     -0.1965
    121  CA        16.0090   -6.4980  -31.2570 C.3   285  ILE285      0.1727
    122  C         16.0350   -5.0220  -31.6300 C.2   285  ILE285      0.2616
    123  O         16.8880   -4.2750  -31.1600 O.2   285  ILE285     -0.2715
    124  CB        14.8300   -6.7870  -30.3040 C.3   285  ILE285      0.0290
    125  CG1       15.0160   -6.0480  -28.9830 C.3   285  ILE285      0.0022
    126  CG2       14.6560   -8.2880  -30.0900 C.3   285  ILE285      0.0023
    127  CD1       13.8390   -6.1810  -28.0660 C.3   285  ILE285      0.0001
    128  N         15.1000   -4.6220  -32.4850 N.am  286  PHE286     -0.1960
    129  CA        15.0340   -3.2610  -33.0070 C.3   286  PHE286      0.1771
    130  C         16.3240   -2.8730  -33.7240 C.2   286  PHE286      0.2619
    131  O         16.7480   -1.7180  -33.6710 O.2   286  PHE286     -0.2715
    132  CB        14.7020   -2.2610  -31.8990 C.3   286  PHE286      0.0574
    133  CG        13.7520   -1.1710  -32.3240 C.ar  286  PHE286     -0.0200
    134  CD1       13.8990   -0.5360  -33.5500 C.ar  286  PHE286     -0.0042
    135  CD2       12.7010   -0.7880  -31.5000 C.ar  286  PHE286     -0.0042
    136  CE1       13.0180    0.4610  -33.9440 C.ar  286  PHE286     -0.0003
    137  CE2       11.8250    0.2220  -31.8800 C.ar  286  PHE286     -0.0003
    138  CZ        11.9760    0.8400  -33.1010 C.ar  286  PHE286     -0.0000
    139  N         16.9410   -3.8530  -34.3800 N.am  287  ARG287     -0.1963
    140  CA        18.0700   -3.6150  -35.2670 C.3   287  ARG287      0.1729
    141  C         17.8000   -4.2300  -36.6420 C.2   287  ARG287      0.2616
    142  O         17.2930   -5.3450  -36.7450 O.2   287  ARG287     -0.2715
    143  CB        19.3510   -4.2010  -34.6860 C.3   287  ARG287      0.0348
    144  CG        19.8810   -3.4590  -33.4730 C.3   287  ARG287      0.0492
    145  CD        20.2340   -2.0250  -33.7830 C.3   287  ARG287      0.2205
    146  NE        20.7590   -1.3880  -32.5900 N.pl3 287  ARG287     -0.0865
    147  CZ        20.0130   -0.7410  -31.6950 C.cat 287  ARG287      0.5346
    148  NH1       18.6970   -0.6150  -31.8680 N.pl3 287  ARG287      0.1354
    149  NH2       20.5860   -0.2090  -30.6270 N.pl3 287  ARG287      0.1354
    150  N         18.1390   -3.5060  -37.7000 N.am  288  PHE288     -0.1974
    151  CA        17.8340   -3.9690  -39.0580 C.3   288  PHE288      0.1639
    152  C         19.0860   -3.9650  -39.9290 C.2   288  PHE288      0.2290
    153  O         19.9210   -3.0580  -39.8330 O.2   288  PHE288     -0.2864
    154  CB        16.7040   -3.1340  -39.6570 C.3   288  PHE288      0.0560
    155  CG        15.6060   -2.8370  -38.6690 C.ar  288  PHE288     -0.0200
    156  CD1       14.8100   -3.8600  -38.1720 C.ar  288  PHE288     -0.0042
    157  CD2       15.4080   -1.5470  -38.1920 C.ar  288  PHE288     -0.0042
    158  CE1       13.8200   -3.6000  -37.2440 C.ar  288  PHE288     -0.0003
    159  CE2       14.4180   -1.2750  -37.2640 C.ar  288  PHE288     -0.0003
    160  CZ        13.6200   -2.3050  -36.7920 C.ar  288  PHE288     -0.0000
    161  N          5.9940   -4.4680  -28.6590 N.3   328  TYR328     -0.1227
    162  CA         5.8710   -5.3110  -29.8470 C.3   328  TYR328      0.1736
    163  C          7.1440   -6.1180  -30.0990 C.2   328  TYR328      0.2595
    164  O          7.0840   -7.2910  -30.4670 O.2   328  TYR328     -0.2718
    165  CB         5.5670   -4.4260  -31.0620 C.3   328  TYR328      0.0548
    166  CG         5.1480   -5.1430  -32.3350 C.ar  328  TYR328     -0.0200
    167  CD1        6.0880   -5.7290  -33.1810 C.ar  328  TYR328     -0.0009
    168  CD2        3.8110   -5.2050  -32.7040 C.ar  328  TYR328     -0.0009
    169  CE1        5.6960   -6.3810  -34.3530 C.ar  328  TYR328      0.0417
    170  CE2        3.4130   -5.8460  -33.8660 C.ar  328  TYR328      0.0417
    171  CZ         4.3550   -6.4310  -34.6880 C.ar  328  TYR328      0.1957
    172  OH         3.9380   -7.0620  -35.8480 O.3   328  TYR328     -0.2866
    173  N          8.2910   -5.4820  -29.8810 N.am  329  PHE329     -0.1976
    174  CA         9.5860   -6.0490  -30.2450 C.3   329  PHE329      0.1639
    175  C         10.0580   -7.1720  -29.3510 C.2   329  PHE329      0.2290
    176  O         10.8700   -7.9930  -29.7730 O.2   329  PHE329     -0.2864
    177  CB        10.6430   -4.9540  -30.2550 C.3   329  PHE329      0.0560
    178  CG        10.3790   -3.8980  -31.2610 C.ar  329  PHE329     -0.0200
    179  CD1       10.8100   -4.0550  -32.5670 C.ar  329  PHE329     -0.0042
    180  CD2        9.6700   -2.7620  -30.9150 C.ar  329  PHE329     -0.0042
    181  CE1       10.5570   -3.0850  -33.5160 C.ar  329  PHE329     -0.0003
    182  CE2        9.4030   -1.7960  -31.8500 C.ar  329  PHE329     -0.0003
    183  CZ         9.8490   -1.9570  -33.1600 C.ar  329  PHE329     -0.0000
    184  N          9.9230  -10.7920  -30.2100 N.3   332  TYR332     -0.1241
    185  CA        10.7180  -11.0830  -31.3970 C.3   332  TYR332      0.1605
    186  C         12.1930  -11.3490  -31.1040 C.2   332  TYR332      0.2264
    187  O         13.0220  -11.3020  -32.0100 O.2   332  TYR332     -0.2867
    188  CB        10.5790   -9.9440  -32.4220 C.3   332  TYR332      0.0534
    189  CG         9.3710  -10.0820  -33.3260 C.ar  332  TYR332     -0.0201
    190  CD1        9.3660  -11.0040  -34.3660 C.ar  332  TYR332     -0.0009
    191  CD2        8.2310   -9.3060  -33.1350 C.ar  332  TYR332     -0.0009
    192  CE1        8.2630  -11.1480  -35.1990 C.ar  332  TYR332      0.0417
    193  CE2        7.1130   -9.4490  -33.9680 C.ar  332  TYR332      0.0417
    194  CZ         7.1430  -10.3710  -35.0010 C.ar  332  TYR332      0.1957
    195  OH         6.0620  -10.5360  -35.8410 O.3   332  TYR332     -0.2866
    196  N          3.7790   -0.1880  -30.8010 N.3   438  HIS438     -0.1226
    197  CA         4.3500    0.4850  -31.9580 C.3   438  HIS438      0.1752
    198  C          3.4370    0.2710  -33.1790 C.2   438  HIS438      0.2597
    199  O          3.1120   -0.8640  -33.5300 O.2   438  HIS438     -0.2718
    200  CB         5.7530   -0.0970  -32.1950 C.3   438  HIS438      0.0759
    201  CG         6.5660    0.6280  -33.2220 C.ar  438  HIS438      0.0818
    202  ND1        6.9460    1.9460  -33.0840 N.ar  438  HIS438     -0.2268
    203  CD2        7.0980    0.2050  -34.3930 C.ar  438  HIS438      0.1154
    204  CE1        7.6680    2.3070  -34.1300 C.ar  438  HIS438      0.1986
    205  NE2        7.7760    1.2670  -34.9380 N.ar  438  HIS438     -0.2212
    206  N          2.9680    1.3590  -33.7820 N.am  439  GLY439     -0.1942
    207  CA         2.2200    1.2600  -35.0290 C.3   439  GLY439      0.2014
    208  C          0.7050    1.2820  -34.9550 C.2   439  GLY439      0.2638
    209  O          0.0410    1.3130  -35.9910 O.2   439  GLY439     -0.2714
    210  N          0.1340    1.2890  -33.7550 N.am  440  TYR440     -0.1973
    211  CA        -1.3200    1.1840  -33.6560 C.3   440  TYR440      0.1639
    212  C         -2.0960    2.4960  -33.5430 C.2   440  TYR440      0.2290
    213  O         -3.3140    2.4970  -33.3800 O.2   440  TYR440     -0.2864
    214  CB        -1.7300    0.1200  -32.6310 C.3   440  TYR440      0.0560
    215  CG        -1.4170   -1.2450  -33.1840 C.ar  440  TYR440     -0.0198
    216  CD1       -0.1580   -1.8070  -33.0230 C.ar  440  TYR440     -0.0009
    217  CD2       -2.3560   -1.9370  -33.9460 C.ar  440  TYR440     -0.0009
    218  CE1        0.1450   -3.0440  -33.5720 C.ar  440  TYR440      0.0417
    219  CE2       -2.0700   -3.1740  -34.4830 C.ar  440  TYR440      0.0417
    220  CZ        -0.8140   -3.7240  -34.2980 C.ar  440  TYR440      0.1957
    221  OH        -0.5170   -4.9560  -34.8450 O.3   440  TYR440     -0.2866
@<TRIPOS>BOND
     1    68    67    2
     2     1     2    1
     3    67    66    1
     4    69    66    1
     5    69    70    1
     6     2     3    1
     7     2     5    1
     8    50    49    2
     9    72    70   ar
    10    72    74   ar
    11     3     4    2
    12    61    60    1
    13    61    62    2
    14    66    65    1
    15    60    59    1
    16    60    63    1
    17    49    59   am
    18    49    48    1
    19    70    71   ar
    20    48    47    1
    21    48    51    1
    22     5     6    1
    23    74    75   ar
    24    63    64    1
    25    51    52    1
    26    71    73   ar
    27     7     6   ar
    28     7     9   ar
    29    24    23    2
    30     6     8   ar
    31    75    73   ar
    32    75    76    1
    33    38    37    2
    34    53    52   ar
    35    53    55   ar
    36    23    22    1
    37    35    36    1
    38    52    54   ar
    39    13    14    1
    40     9    11   ar
    41    92    93    1
    42     8    10   ar
    43    37    36    1
    44    37    39   am
    45    42    41    2
    46    55    57   ar
    47    22    21    1
    48    22    25    1
    49    40    41    1
    50    40    39    1
    51    45    46    2
    52    45    44    1
    53    41    43   am
    54    16    15    2
    55    54    56   ar
    56    11    10   ar
    57    11    12    1
    58    98   100   ar
    59    98    97   ar
    60   100   101   ar
    61    14    15    1
    62    14    17    1
    63    93    94    1
    64    93    96    1
    65    57    56   ar
    66    57    58    1
    67    43    44    1
    68    25    26    1
    69    97    96    1
    70    97    99   ar
    71   101   103   ar
    72   101    99   ar
    73    77    78    1
    74    94    95    2
    75    17    18    1
    76    31    33   ar
    77    31    28   ar
    78   103   105   ar
    79    80    79    2
    80    99   102   ar
    81   152   153    2
    82   152   151    1
    83    33    34   ar
    84   154   151    1
    85   154   155    1
    86    26    28   ar
    87    26    27   ar
    88    28    30   ar
    89   105   104   ar
    90    78    79    1
    91    78    81    1
    92   151   150    1
    93    79    86   am
    94   102   104   ar
    95    81    82    1
    96   106   107    1
    97    89    88    2
    98    18    19   ar
    99    18    20   ar
   100    88    87    1
   101   155   157   ar
   102   155   156   ar
   103    34    32   ar
   104    27    29   ar
   105    84    83   ar
   106   157   159   ar
   107   156   158   ar
   108    30    32   ar
   109    30    29   ar
   110    86    87    1
   111   150   141   am
   112   107   110    1
   113   107   108    1
   114    87    90    1
   115   111   113    1
   116   111   112    1
   117   111   110    1
   118    90    91    1
   119    82    83    1
   120    83    85   ar
   121   159   160   ar
   122   158   160   ar
   123   108   109    2
   124   142   141    2
   125   141   140    1
   126   209   208    2
   127   172   171    1
   128   195   194    1
   129   140   143    1
   130   140   139    1
   131   192   194   ar
   132   192   190   ar
   133   207   208    1
   134   207   206    1
   135   194   193   ar
   136   208   210   am
   137   205   203   ar
   138   205   204   ar
   139   221   220    1
   140   171   169   ar
   141   171   170   ar
   142   143   144    1
   143   219   220   ar
   144   219   217   ar
   145   203   201   ar
   146   139   130   am
   147   190   189   ar
   148   169   167   ar
   149   220   218   ar
   150   204   202   ar
   151   193   191   ar
   152   217   215   ar
   153   136   134   ar
   154   136   138   ar
   155   170   168   ar
   156   145   144    1
   157   145   146    1
   158   206   198   am
   159   210   211    1
   160   130   131    2
   161   130   129    1
   162   211   212    1
   163   211   214    1
   164   218   216   ar
   165   134   133   ar
   166   212   213    2
   167   199   198    2
   168   181   183   ar
   169   181   179   ar
   170   189   191   ar
   171   189   188    1
   172   201   202   ar
   173   201   200    1
   174   215   216   ar
   175   215   214    1
   176   167   166   ar
   177   198   197    1
   178   183   182   ar
   179   138   137   ar
   180   129   128    1
   181   129   132    1
   182   119   118    1
   183   168   166   ar
   184   146   147    2
   185   179   178   ar
   186   128   122   am
   187   188   185    1
   188   166   165    1
   189   133   132    1
   190   133   135   ar
   191   200   197    1
   192   187   186    2
   193   197   196    1
   194   117   116    2
   195   137   135   ar
   196   148   147    1
   197   182   180   ar
   198   147   149    1
   199   122   121    1
   200   122   123    2
   201   118   115    1
   202   185   186    1
   203   185   184    1
   204   178   180   ar
   205   178   177    1
   206   121   120    1
   207   121   124    1
   208   116   115    1
   209   116   120   am
   210   114   115    1
   211   165   162    1
   212   164   163    2
   213   124   126    1
   214   124   125    1
   215   177   174    1
   216   174   173    1
   217   174   175    1
   218   163   173   am
   219   163   162    1
   220   162   161    1
   221   176   175    2
   222   125   127    1
