@<TRIPOS>MOLECULE
tmp/4btlB02.pdb
 95 94 0 0 0
SMALL
GASTEIGER

@<TRIPOS>ATOM
      1  N         18.7240    1.9440  -13.6180 N.3   372  HIS372     -0.1226
      2  CA        17.7960    3.0490  -13.8400 C.3   372  HIS372      0.1752
      3  C         16.3460    2.5820  -13.9540 C.2   372  HIS372      0.2596
      4  O         15.4200    3.2820  -13.5420 O.2   372  HIS372     -0.2718
      5  CB        18.1720    3.8090  -15.1140 C.3   372  HIS372      0.0759
      6  CG        17.2810    4.9750  -15.3970 C.ar  372  HIS372      0.0818
      7  ND1       17.5430    6.2410  -14.9200 N.ar  372  HIS372     -0.2268
      8  CD2       16.1160    5.0620  -16.0810 C.ar  372  HIS372      0.1154
      9  CE1       16.5810    7.0610  -15.3050 C.ar  372  HIS372      0.1986
     10  NE2       15.7030    6.3710  -16.0120 N.ar  372  HIS372     -0.2212
     11  N         16.1540    1.3940  -14.5120 N.am  373  TYR373     -0.1962
     12  CA        14.8120    0.9080  -14.8190 C.3   373  TYR373      0.1771
     13  C         14.2070   -0.0090  -13.7550 C.2   373  TYR373      0.2620
     14  O         12.9860   -0.1920  -13.7100 O.2   373  TYR373     -0.2715
     15  CB        14.7720    0.2430  -16.2120 C.3   373  TYR373      0.0574
     16  CG        14.6510    1.2440  -17.3380 C.ar  373  TYR373     -0.0198
     17  CD1       15.7780    1.8550  -17.8800 C.ar  373  TYR373     -0.0009
     18  CD2       13.4100    1.5930  -17.8480 C.ar  373  TYR373     -0.0009
     19  CE1       15.6680    2.7790  -18.9050 C.ar  373  TYR373      0.0417
     20  CE2       13.2870    2.5120  -18.8730 C.ar  373  TYR373      0.0417
     21  CZ        14.4170    3.1040  -19.3980 C.ar  373  TYR373      0.1957
     22  OH        14.2910    4.0230  -20.4170 O.3   373  TYR373     -0.2866
     23  N         15.0530   -0.5940  -12.9140 N.am  374  THR374     -0.1937
     24  CA        14.5680   -1.3660  -11.7760 C.3   374  THR374      0.2028
     25  C         13.7810   -0.4450  -10.8460 C.2   374  THR374      0.2642
     26  O         14.2240    0.6660  -10.5580 O.2   374  THR374     -0.2714
     27  CB        15.7330   -2.0270  -11.0120 C.3   374  THR374      0.1808
     28  OG1       16.3430   -3.0260  -11.8410 O.3   374  THR374     -0.2208
     29  CG2       15.2400   -2.6740   -9.7050 C.3   374  THR374      0.0379
     30  N         12.5950   -0.8790  -10.4240 N.am  375  ASP375     -0.1957
     31  CA        11.8830   -0.1960   -9.3420 C.3   375  ASP375      0.1840
     32  C         12.4070   -0.7570   -8.0220 C.2   375  ASP375      0.2622
     33  O         12.0660   -1.8710   -7.6300 O.2   375  ASP375     -0.2715
     34  CB        10.3610   -0.3910   -9.4440 C.3   375  ASP375      0.1450
     35  CG         9.5830    0.4550   -8.4300 C.2   375  ASP375      0.3671
     36  OD1       10.1470    0.8430   -7.3840 O.co2 375  ASP375     -0.2456
     37  OD2        8.3920    0.7330   -8.6670 O.co2 375  ASP375     -0.2456
     38  N         13.2310    0.0190   -7.3300 N.am  376  TRP376     -0.1960
     39  CA        13.8530   -0.4750   -6.1040 C.3   376  TRP376      0.1771
     40  C         12.8840   -0.6730   -4.9430 C.2   376  TRP376      0.2619
     41  O         13.2670   -1.1720   -3.8950 O.2   376  TRP376     -0.2715
     42  CB        15.0890    0.3640   -5.7450 C.3   376  TRP376      0.0590
     43  CG        16.0840    0.1780   -6.8200 C.ar  376  TRP376      0.0006
     44  CD1       16.3150    1.0070   -7.8850 C.ar  376  TRP376      0.0946
     45  CD2       16.9080   -0.9720   -7.0220 C.ar  376  TRP376      0.0152
     46  NE1       17.2730    0.4670   -8.7000 N.ar  376  TRP376     -0.2442
     47  CE2       17.6440   -0.7540   -8.2030 C.ar  376  TRP376      0.0810
     48  CE3       17.1070   -2.1570   -6.3100 C.ar  376  TRP376      0.0012
     49  CZ2       18.5690   -1.6760   -8.6860 C.ar  376  TRP376      0.0191
     50  CZ3       18.0230   -3.0700   -6.7900 C.ar  376  TRP376      0.0001
     51  CH2       18.7410   -2.8280   -7.9710 C.ar  376  TRP376      0.0015
     52  N         11.6230   -0.3110   -5.1440 N.am  377  LEU377     -0.1977
     53  CA        10.5850   -0.6580   -4.1810 C.3   377  LEU377      0.1596
     54  C         10.0990   -2.0770   -4.4570 C.2   377  LEU377      0.2287
     55  O          9.6920   -2.7960   -3.5420 O.2   377  LEU377     -0.2864
     56  CB         9.4230    0.3360   -4.2560 C.3   377  LEU377      0.0297
     57  CG         9.7880    1.7650   -3.8500 C.3   377  LEU377      0.0022
     58  CD1        8.6440    2.7470   -4.0690 C.3   377  LEU377      0.0001
     59  CD2       10.2170    1.7540   -2.4060 C.3   377  LEU377      0.0001
     60  N          7.1880   -4.7770  -17.6670 N.3   387  ASP387     -0.1225
     61  CA         6.8570   -3.4360  -18.1320 C.3   387  ASP387      0.1805
     62  C          8.0930   -2.5730  -18.3430 C.2   387  ASP387      0.2597
     63  O          8.0900   -1.6840  -19.1960 O.2   387  ASP387     -0.2718
     64  CB         5.8560   -2.7410  -17.2010 C.3   387  ASP387      0.1424
     65  CG         4.4410   -3.3100  -17.3320 C.2   387  ASP387      0.3668
     66  OD1        4.2020   -4.1220  -18.2590 O.co2 387  ASP387     -0.2456
     67  OD2        3.5640   -2.9430  -16.5120 O.co2 387  ASP387     -0.2456
     68  N          9.1560   -2.8460  -17.5910 N.am  388  ALA388     -0.1979
     69  CA        10.3530   -2.0090  -17.6670 C.3   388  ALA388      0.1597
     70  C         11.2370   -2.4260  -18.8330 C.2   388  ALA388      0.2287
     71  O         11.8650   -1.5870  -19.4820 O.2   388  ALA388     -0.2864
     72  CB        11.1400   -2.0360  -16.3460 C.3   388  ALA388      0.0319
     73  N          9.8560   -0.7130  -21.6540 N.3   391  ALA391     -0.1245
     74  CA        10.1550    0.7160  -21.6160 C.3   391  ALA391      0.1562
     75  C         11.5980    1.0030  -22.0400 C.2   391  ALA391      0.2260
     76  O         11.8650    2.0080  -22.6950 O.2   391  ALA391     -0.2867
     77  CB         9.8610    1.3030  -20.2360 C.3   391  ALA391      0.0290
     78  N          9.3050   12.2860  -21.0230 N.3   516  ARG516     -0.1245
     79  CA        10.2520   11.4420  -20.2820 C.3   516  ARG516      0.1563
     80  C         11.5680   12.1790  -20.0290 C.2   516  ARG516      0.2260
     81  O         12.6440   11.6790  -20.3710 O.2   516  ARG516     -0.2867
     82  CB        10.5420   10.1480  -21.0390 C.3   516  ARG516      0.0307
     83  CG         9.3240    9.3750  -21.4320 C.3   516  ARG516      0.0489
     84  CD         8.8730    8.4430  -20.3360 C.3   516  ARG516      0.2205
     85  NE         8.6970    7.0940  -20.8620 N.pl3 516  ARG516     -0.0865
     86  CZ         7.6550    6.6970  -21.5890 C.cat 516  ARG516      0.5346
     87  NH1        6.6740    7.5460  -21.8790 N.pl3 516  ARG516      0.1354
     88  NH2        7.5930    5.4440  -22.0240 N.pl3 516  ARG516      0.1354
     89  N         14.4190   10.4450  -17.7390 N.3   519  THR519     -0.1218
     90  CA        14.8870    9.2430  -18.4110 C.3   519  THR519      0.1862
     91  C         15.6180    9.5520  -19.7300 C.2   519  THR519      0.2287
     92  O         16.6300    8.9240  -20.0520 O.2   519  THR519     -0.2866
     93  CB        13.7280    8.2710  -18.6730 C.3   519  THR519      0.1770
     94  OG1       13.3100    7.6870  -17.4340 O.3   519  THR519     -0.2211
     95  CG2       14.1420    7.1580  -19.6570 C.3   519  THR519      0.0375
@<TRIPOS>BOND
     1    76    75    2
     2    75    74    1
     3    88    86    1
     4    87    86    1
     5    73    74    1
     6    74    77    1
     7    86    85    2
     8    83    82    1
     9    83    84    1
    10    82    79    1
    11    78    79    1
    12    85    84    1
    13    22    21    1
    14    81    80    2
    15    79    80    1
    16    92    91    2
    17    91    90    1
    18    95    93    1
    19    71    70    2
    20    21    19   ar
    21    21    20   ar
    22    63    62    2
    23    19    17   ar
    24    20    18   ar
    25    70    69    1
    26    93    90    1
    27    93    94    1
    28    90    89    1
    29    62    61    1
    30    62    68   am
    31    66    65   ar
    32    61    60    1
    33    61    64    1
    34    17    16   ar
    35    18    16   ar
    36    69    68    1
    37    69    72    1
    38    16    15    1
    39    65    64    1
    40    65    67   ar
    41    15    12    1
    42     8    10   ar
    43     8     6   ar
    44    10     9   ar
    45     6     5    1
    46     6     7   ar
    47     9     7   ar
    48     5     2    1
    49    12    11    1
    50    12    13    1
    51    11     3   am
    52     3     2    1
    53     3     4    2
    54     2     1    1
    55    13    14    2
    56    13    23   am
    57    23    24    1
    58    28    27    1
    59    24    27    1
    60    24    25    1
    61    27    29    1
    62    25    26    2
    63    25    30   am
    64    30    31    1
    65    34    31    1
    66    34    35    1
    67    31    32    1
    68    46    47   ar
    69    46    44   ar
    70    49    47   ar
    71    49    51   ar
    72    37    35   ar
    73    35    36   ar
    74    47    45   ar
    75    32    33    2
    76    32    38   am
    77    51    50   ar
    78    44    43   ar
    79    38    39    1
    80    45    43   ar
    81    45    48   ar
    82    43    42    1
    83    50    48   ar
    84    39    42    1
    85    39    40    1
    86    52    40   am
    87    52    53    1
    88    40    41    2
    89    54    53    1
    90    54    55    2
    91    56    53    1
    92    56    57    1
    93    58    57    1
    94    57    59    1
