@<TRIPOS>MOLECULE
tmp/4btlB07.pdb
 87 85 0 0 0
SMALL
GASTEIGER

@<TRIPOS>ATOM
      1  N         24.1750    0.3690  -15.9190 N.3   368  ALA368     -0.1245
      2  CA        23.5210    1.6590  -15.7250 C.3   368  ALA368      0.1562
      3  C         22.0470    1.6080  -16.1050 C.2   368  ALA368      0.2260
      4  O         21.2090    2.1980  -15.4340 O.2   368  ALA368     -0.2867
      5  CB        24.2330    2.7410  -16.5130 C.3   368  ALA368      0.0290
      6  N         19.9890   -0.5640  -13.5830 N.3   371  LEU371     -0.1231
      7  CA        19.8220    0.1760  -12.3350 C.3   371  LEU371      0.1693
      8  C         18.8050    1.3260  -12.4440 C.2   371  LEU371      0.2592
      9  O         18.0850    1.6240  -11.4910 O.2   371  LEU371     -0.2718
     10  CB        21.1820    0.6600  -11.8200 C.3   371  LEU371      0.0284
     11  CG        22.1210   -0.5100  -11.4660 C.3   371  LEU371      0.0019
     12  CD1       23.5480   -0.0460  -11.2750 C.3   371  LEU371      0.0001
     13  CD2       21.6540   -1.2690  -10.2220 C.3   371  LEU371      0.0001
     14  N         18.7240    1.9440  -13.6180 N.am  372  HIS372     -0.1976
     15  CA        17.7960    3.0490  -13.8400 C.3   372  HIS372      0.1656
     16  C         16.3460    2.5820  -13.9540 C.2   372  HIS372      0.2291
     17  O         15.4200    3.2820  -13.5420 O.2   372  HIS372     -0.2864
     18  CB        18.1720    3.8090  -15.1140 C.3   372  HIS372      0.0771
     19  CG        17.2810    4.9750  -15.3970 C.ar  372  HIS372      0.0820
     20  ND1       17.5430    6.2410  -14.9200 N.ar  372  HIS372     -0.2267
     21  CD2       16.1160    5.0620  -16.0810 C.ar  372  HIS372      0.1154
     22  CE1       16.5810    7.0610  -15.3050 C.ar  372  HIS372      0.1986
     23  NE2       15.7030    6.3710  -16.0120 N.ar  372  HIS372     -0.2212
     24  N         15.0530   -0.5940  -12.9140 N.3   374  THR374     -0.1218
     25  CA        14.5680   -1.3660  -11.7760 C.3   374  THR374      0.1862
     26  C         13.7810   -0.4450  -10.8460 C.2   374  THR374      0.2287
     27  O         14.2240    0.6660  -10.5580 O.2   374  THR374     -0.2866
     28  CB        15.7330   -2.0270  -11.0120 C.3   374  THR374      0.1770
     29  OG1       16.3430   -3.0260  -11.8410 O.3   374  THR374     -0.2211
     30  CG2       15.2400   -2.6740   -9.7050 C.3   374  THR374      0.0375
     31  N         13.2310    0.0190   -7.3300 N.3   376  TRP376     -0.1241
     32  CA        13.8530   -0.4750   -6.1040 C.3   376  TRP376      0.1605
     33  C         12.8840   -0.6730   -4.9430 C.2   376  TRP376      0.2264
     34  O         13.2670   -1.1720   -3.8950 O.2   376  TRP376     -0.2867
     35  CB        15.0890    0.3640   -5.7450 C.3   376  TRP376      0.0550
     36  CG        16.0840    0.1780   -6.8200 C.ar  376  TRP376      0.0003
     37  CD1       16.3150    1.0070   -7.8850 C.ar  376  TRP376      0.0946
     38  CD2       16.9080   -0.9720   -7.0220 C.ar  376  TRP376      0.0152
     39  NE1       17.2730    0.4670   -8.7000 N.ar  376  TRP376     -0.2442
     40  CE2       17.6440   -0.7540   -8.2030 C.ar  376  TRP376      0.0810
     41  CE3       17.1070   -2.1570   -6.3100 C.ar  376  TRP376      0.0012
     42  CZ2       18.5690   -1.6760   -8.6860 C.ar  376  TRP376      0.0191
     43  CZ3       18.0230   -3.0700   -6.7900 C.ar  376  TRP376      0.0001
     44  CH2       18.7410   -2.8280   -7.9710 C.ar  376  TRP376      0.0015
     45  N         13.5660   13.1380  -17.4480 N.3   518  GLN518     -0.1231
     46  CA        14.6640   12.5940  -16.6440 C.3   518  GLN518      0.1698
     47  C         15.2680   11.3710  -17.3060 C.2   518  GLN518      0.2592
     48  O         16.4830   11.2670  -17.4150 O.2   518  GLN518     -0.2718
     49  CB        14.2360   12.2450  -15.2070 C.3   518  GLN518      0.0381
     50  CG        13.7890   13.4260  -14.3590 C.3   518  GLN518      0.0905
     51  CD        14.8000   14.5550  -14.3210 C.2   518  GLN518      0.2608
     52  OE1       14.5390   15.6520  -14.8290 O.2   518  GLN518     -0.2717
     53  NE2       15.9540   14.3020  -13.7000 N.am  518  GLN518     -0.0878
     54  N         14.4190   10.4450  -17.7390 N.am  519  THR519     -0.1953
     55  CA        14.8870    9.2430  -18.4110 C.3   519  THR519      0.1897
     56  C         15.6180    9.5520  -19.7300 C.2   519  THR519      0.2313
     57  O         16.6300    8.9240  -20.0520 O.2   519  THR519     -0.2863
     58  CB        13.7280    8.2710  -18.6730 C.3   519  THR519      0.1794
     59  OG1       13.3100    7.6870  -17.4340 O.3   519  THR519     -0.2208
     60  CG2       14.1420    7.1580  -19.6570 C.3   519  THR519      0.0378
     61  N         17.1850   12.3570  -20.5250 N.3   521  ALA521     -0.1231
     62  CA        18.4700   12.9240  -20.1190 C.3   521  ALA521      0.1694
     63  C         19.5050   11.8180  -19.8920 C.2   521  ALA521      0.2592
     64  O         20.6730   11.9720  -20.2450 O.2   521  ALA521     -0.2718
     65  CB        18.3130   13.7670  -18.8570 C.3   521  ALA521      0.0304
     66  N         19.0640   10.7040  -19.3090 N.am  522  PHE522     -0.1976
     67  CA        19.9180    9.5340  -19.1260 C.3   522  PHE522      0.1639
     68  C         20.3970    8.9140  -20.4400 C.2   522  PHE522      0.2290
     69  O         21.5710    8.5620  -20.5810 O.2   522  PHE522     -0.2864
     70  CB        19.1960    8.4750  -18.3020 C.3   522  PHE522      0.0560
     71  CG        19.9050    7.1550  -18.2560 C.ar  522  PHE522     -0.0200
     72  CD1       21.0400    6.9920  -17.4840 C.ar  522  PHE522     -0.0042
     73  CD2       19.4270    6.0710  -18.9730 C.ar  522  PHE522     -0.0042
     74  CE1       21.6880    5.7660  -17.4310 C.ar  522  PHE522     -0.0003
     75  CE2       20.0700    4.8440  -18.9290 C.ar  522  PHE522     -0.0003
     76  CZ        21.1990    4.6910  -18.1590 C.ar  522  PHE522     -0.0000
     77  N         23.7180   11.2890  -20.7120 N.3   526  PHE526     -0.1241
     78  CA        24.6810   10.5490  -19.9140 C.3   526  PHE526      0.1605
     79  C         25.2890    9.3550  -20.6180 C.2   526  PHE526      0.2264
     80  O         26.5090    9.2590  -20.7130 O.2   526  PHE526     -0.2867
     81  CB        24.1230   10.0890  -18.5680 C.3   526  PHE526      0.0534
     82  CG        25.1000    9.2670  -17.7990 C.ar  526  PHE526     -0.0203
     83  CD1       26.2320    9.8570  -17.2570 C.ar  526  PHE526     -0.0042
     84  CD2       24.9220    7.8980  -17.6610 C.ar  526  PHE526     -0.0042
     85  CE1       27.1590    9.1060  -16.5670 C.ar  526  PHE526     -0.0003
     86  CE2       25.8430    7.1390  -16.9790 C.ar  526  PHE526     -0.0003
     87  CZ        26.9650    7.7440  -16.4270 C.ar  526  PHE526     -0.0000
@<TRIPOS>BOND
     1    80    79    2
     2    77    78    1
     3    79    78    1
     4    69    68    2
     5    61    62    1
     6    68    67    1
     7    64    63    2
     8    62    63    1
     9    62    65    1
    10    57    56    2
    11    78    81    1
    12    63    66   am
    13    56    55    1
    14    60    58    1
    15    66    67    1
    16    67    70    1
    17    73    75   ar
    18    73    71   ar
    19    75    76   ar
    20    58    55    1
    21    58    59    1
    22    81    82    1
    23    55    54    1
    24    70    71    1
    25    71    72   ar
    26    76    74   ar
    27    82    84   ar
    28    82    83   ar
    29    54    47   am
    30    84    86   ar
    31    72    74   ar
    32    45    46    1
    33    48    47    2
    34    47    46    1
    35    83    85   ar
    36    86    87   ar
    37    46    49    1
    38    85    87   ar
    39     5     2    1
    40     3     2    1
    41     3     4    2
    42    21    23   ar
    43    21    19   ar
    44    23    22   ar
    45     1     2    1
    46    19    18    1
    47    19    20   ar
    48    22    20   ar
    49    49    50    1
    50    18    15    1
    51    52    51    2
    52    50    51    1
    53    51    53   am
    54    16    15    1
    55    16    17    2
    56    15    14    1
    57    14     8   am
    58     6     7    1
    59    24    25    1
    60     8     7    1
    61     8     9    2
    62     7    10    1
    63    29    28    1
    64    10    11    1
    65    25    28    1
    66    25    26    1
    67    11    12    1
    68    11    13    1
    69    28    30    1
    70    26    27    2
    71    39    40   ar
    72    39    37   ar
    73    42    40   ar
    74    42    44   ar
    75    40    38   ar
    76    44    43   ar
    77    37    36   ar
    78    31    32    1
    79    38    36   ar
    80    38    41   ar
    81    36    35    1
    82    43    41   ar
    83    32    35    1
    84    32    33    1
    85    33    34    2
