@<TRIPOS>MOLECULE
tmp/4btlB05.pdb
 102 102 0 0 0
SMALL
GASTEIGER

@<TRIPOS>ATOM
      1  N         29.7250   -9.2640  -46.0530 N.3   247  LEU247     -0.1245
      2  CA        29.4220  -10.5100  -45.3620 C.3   247  LEU247      0.1561
      3  C         28.3160  -11.2440  -46.0990 C.2   247  LEU247      0.2260
      4  O         28.3870  -12.4560  -46.3160 O.2   247  LEU247     -0.2867
      5  CB        29.0210  -10.2550  -43.9100 C.3   247  LEU247      0.0270
      6  CG        28.8990  -11.5060  -43.0320 C.3   247  LEU247      0.0019
      7  CD1       30.1780  -12.3380  -43.0860 C.3   247  LEU247      0.0001
      8  CD2       28.5550  -11.1390  -41.5850 C.3   247  LEU247      0.0001
      9  N         19.1810  -11.4030  -42.4270 N.3   277  TRP277     -0.1227
     10  CA        19.3070  -11.2330  -40.9810 C.3   277  TRP277      0.1737
     11  C         20.6550  -11.6980  -40.4190 C.2   277  TRP277      0.2595
     12  O         21.0420  -11.3030  -39.3280 O.2   277  TRP277     -0.2718
     13  CB        18.1450  -11.9170  -40.2480 C.3   277  TRP277      0.0564
     14  CG        16.8240  -11.2480  -40.5020 C.ar  277  TRP277      0.0003
     15  CD1       15.8290  -11.6830  -41.3290 C.ar  277  TRP277      0.0946
     16  CD2       16.3660  -10.0070  -39.9410 C.ar  277  TRP277      0.0152
     17  NE1       14.7780  -10.7970  -41.3090 N.ar  277  TRP277     -0.2442
     18  CE2       15.0840   -9.7600  -40.4650 C.ar  277  TRP277      0.0810
     19  CE3       16.9150   -9.0840  -39.0430 C.ar  277  TRP277      0.0012
     20  CZ2       14.3440   -8.6260  -40.1270 C.ar  277  TRP277      0.0191
     21  CZ3       16.1760   -7.9580  -38.7070 C.ar  277  TRP277      0.0001
     22  CH2       14.9090   -7.7390  -39.2510 C.ar  277  TRP277      0.0015
     23  N         21.3810  -12.5150  -41.1720 N.am  278  HIS278     -0.1975
     24  CA        22.6060  -13.1120  -40.6540 C.3   278  HIS278      0.1656
     25  C         23.8040  -12.1630  -40.5570 C.2   278  HIS278      0.2291
     26  O         24.8680  -12.5790  -40.1000 O.2   278  HIS278     -0.2864
     27  CB        23.0000  -14.3400  -41.4750 C.3   278  HIS278      0.0771
     28  CG        21.9500  -15.4030  -41.5130 C.ar  278  HIS278      0.0820
     29  ND1       20.9640  -15.5060  -40.5590 N.ar  278  HIS278     -0.2267
     30  CD2       21.7290  -16.4040  -42.3960 C.ar  278  HIS278      0.1154
     31  CE1       20.1790  -16.5290  -40.8490 C.ar  278  HIS278      0.1986
     32  NE2       20.6220  -17.0910  -41.9580 N.ar  278  HIS278     -0.2212
     33  N         23.9100   -9.0800  -38.8440 N.3   280  LEU280     -0.1231
     34  CA        23.9170   -8.1870  -37.6840 C.3   280  LEU280      0.1678
     35  C         25.0890   -8.5220  -36.7550 C.2   280  LEU280      0.2434
     36  O         25.3660   -9.6910  -36.5020 O.2   280  LEU280     -0.2733
     37  CB        22.5770   -8.2450  -36.9360 C.3   280  LEU280      0.0284
     38  CG        21.4090   -7.5580  -37.6500 C.3   280  LEU280      0.0019
     39  CD1       20.0580   -7.9400  -37.0560 C.3   280  LEU280      0.0001
     40  CD2       21.6010   -6.0530  -37.6180 C.3   280  LEU280      0.0001
     41  N         25.7900   -7.4900  -36.2570 N.am  281  PRO281     -0.2718
     42  CA        26.9780   -7.6820  -35.4090 C.3   281  PRO281      0.1535
     43  C         26.6960   -8.3810  -34.0690 C.2   281  PRO281      0.2598
     44  O         27.5280   -9.1560  -33.6050 O.2   281  PRO281     -0.2715
     45  CB        27.4810   -6.2480  -35.1770 C.3   281  PRO281      0.0310
     46  CG        26.2780   -5.3920  -35.3660 C.3   281  PRO281      0.0237
     47  CD        25.4850   -6.0620  -36.4600 C.3   281  PRO281      0.0939
     48  N         25.5480   -8.1120  -33.4570 N.am  282  GLN282     -0.1964
     49  CA        25.1910   -8.7660  -32.2010 C.3   282  GLN282      0.1733
     50  C         23.7540   -9.2680  -32.2210 C.2   282  GLN282      0.2616
     51  O         22.9290   -8.7990  -33.0000 O.2   282  GLN282     -0.2715
     52  CB        25.3630   -7.8160  -30.9960 C.3   282  GLN282      0.0408
     53  CG        26.6580   -7.0130  -30.9550 C.3   282  GLN282      0.0908
     54  CD        26.4840   -5.6030  -31.5010 C.2   282  GLN282      0.2608
     55  OE1       25.3590   -5.1350  -31.6950 O.2   282  GLN282     -0.2717
     56  NE2       27.6000   -4.9230  -31.7600 N.am  282  GLN282     -0.0878
     57  N         23.4620  -10.2220  -31.3450 N.am  283  GLU283     -0.1963
     58  CA        22.0880  -10.6160  -31.0710 C.3   283  GLU283      0.1733
     59  C         21.3400   -9.3830  -30.5810 C.2   283  GLU283      0.2617
     60  O         21.8010   -8.6900  -29.6740 O.2   283  GLU283     -0.2715
     61  CB        22.0590  -11.7080  -30.0010 C.3   283  GLU283      0.0429
     62  CG        20.6640  -12.1390  -29.5920 C.3   283  GLU283      0.1163
     63  CD        20.6750  -13.2740  -28.5920 C.2   283  GLU283      0.3649
     64  OE1       21.7710  -13.6440  -28.1180 O.co2 283  GLU283     -0.2457
     65  OE2       19.5830  -13.7970  -28.2830 O.co2 283  GLU283     -0.2457
     66  N         20.1890   -9.1040  -31.1760 N.am  284  SER284     -0.1936
     67  CA        19.4960   -7.8630  -30.8790 C.3   284  SER284      0.2055
     68  C         18.0150   -7.8720  -31.2280 C.2   284  SER284      0.2642
     69  O         17.5270   -8.7610  -31.9260 O.2   284  SER284     -0.2714
     70  CB        20.1850   -6.7060  -31.6090 C.3   284  SER284      0.2130
     71  OG        20.4420   -7.0330  -32.9660 O.3   284  SER284     -0.2179
     72  N         17.3050   -6.8740  -30.7140 N.am  285  ILE285     -0.1977
     73  CA        16.0090   -6.4980  -31.2570 C.3   285  ILE285      0.1596
     74  C         16.0350   -5.0220  -31.6300 C.2   285  ILE285      0.2287
     75  O         16.8880   -4.2750  -31.1600 O.2   285  ILE285     -0.2864
     76  CB        14.8300   -6.7870  -30.3040 C.3   285  ILE285      0.0276
     77  CG1       15.0160   -6.0480  -28.9830 C.3   285  ILE285      0.0022
     78  CG2       14.6560   -8.2880  -30.0900 C.3   285  ILE285      0.0022
     79  CD1       13.8390   -6.1810  -28.0660 C.3   285  ILE285      0.0001
     80  N         16.9410   -3.8530  -34.3800 N.3   287  ARG287     -0.1245
     81  CA        18.0700   -3.6150  -35.2670 C.3   287  ARG287      0.1563
     82  C         17.8000   -4.2300  -36.6420 C.2   287  ARG287      0.2260
     83  O         17.2930   -5.3450  -36.7450 O.2   287  ARG287     -0.2867
     84  CB        19.3510   -4.2010  -34.6860 C.3   287  ARG287      0.0307
     85  CG        19.8810   -3.4590  -33.4730 C.3   287  ARG287      0.0489
     86  CD        20.2340   -2.0250  -33.7830 C.3   287  ARG287      0.2205
     87  NE        20.7590   -1.3880  -32.5900 N.pl3 287  ARG287     -0.0865
     88  CZ        20.0130   -0.7410  -31.6950 C.cat 287  ARG287      0.5346
     89  NH1       18.6970   -0.6150  -31.8680 N.pl3 287  ARG287      0.1354
     90  NH2       20.5860   -0.2090  -30.6270 N.pl3 287  ARG287      0.1354
     91  N          9.9230  -10.7920  -30.2100 N.3   332  TYR332     -0.1241
     92  CA        10.7180  -11.0830  -31.3970 C.3   332  TYR332      0.1605
     93  C         12.1930  -11.3490  -31.1040 C.2   332  TYR332      0.2264
     94  O         13.0220  -11.3020  -32.0100 O.2   332  TYR332     -0.2867
     95  CB        10.5790   -9.9440  -32.4220 C.3   332  TYR332      0.0534
     96  CG         9.3710  -10.0820  -33.3260 C.ar  332  TYR332     -0.0201
     97  CD1        9.3660  -11.0040  -34.3660 C.ar  332  TYR332     -0.0009
     98  CD2        8.2310   -9.3060  -33.1350 C.ar  332  TYR332     -0.0009
     99  CE1        8.2630  -11.1480  -35.1990 C.ar  332  TYR332      0.0417
    100  CE2        7.1130   -9.4490  -33.9680 C.ar  332  TYR332      0.0417
    101  CZ         7.1430  -10.3710  -35.0010 C.ar  332  TYR332      0.1957
    102  OH         6.0620  -10.5360  -35.8410 O.3   332  TYR332     -0.2866
@<TRIPOS>BOND
     1     4     3    2
     2     3     2    1
     3     1     2    1
     4     2     5    1
     5     5     6    1
     6     7     6    1
     7     6     8    1
     8     9    10    1
     9    30    32   ar
    10    30    28   ar
    11    32    31   ar
    12    28    27    1
    13    28    29   ar
    14    27    24    1
    15    15    17   ar
    16    15    14   ar
    17    17    18   ar
    18    23    24    1
    19    23    11   am
    20    10    11    1
    21    10    13    1
    22    31    29   ar
    23    24    25    1
    24    25    26    2
    25    14    13    1
    26    14    16   ar
    27    18    20   ar
    28    18    16   ar
    29    11    12    2
    30    20    22   ar
    31    16    19   ar
    32    22    21   ar
    33    19    21   ar
    34    33    34    1
    35    34    37    1
    36    34    35    1
    37    38    40    1
    38    38    39    1
    39    38    37    1
    40    35    36    2
    41    35    41   am
    42    83    82    2
    43    82    81    1
    44    47    41    1
    45    47    46    1
    46    41    42    1
    47   102   101    1
    48    42    45    1
    49    42    43    1
    50    46    45    1
    51    81    84    1
    52    81    80    1
    53    99   101   ar
    54    99    97   ar
    55   101   100   ar
    56    84    85    1
    57    97    96   ar
    58    43    44    2
    59    43    48   am
    60   100    98   ar
    61    86    85    1
    62    86    87    1
    63    48    49    1
    64    96    98   ar
    65    96    95    1
    66    51    50    2
    67    71    70    1
    68    87    88    2
    69    95    92    1
    70    50    49    1
    71    50    57   am
    72    49    52    1
    73    94    93    2
    74    69    68    2
    75    89    88    1
    76    56    54   am
    77    88    90    1
    78    55    54    2
    79    74    73    1
    80    74    75    2
    81    70    67    1
    82    54    53    1
    83    92    93    1
    84    92    91    1
    85    57    58    1
    86    73    72    1
    87    73    76    1
    88    68    67    1
    89    68    72   am
    90    66    67    1
    91    66    59   am
    92    58    59    1
    93    58    61    1
    94    52    53    1
    95    59    60    2
    96    76    78    1
    97    76    77    1
    98    61    62    1
    99    62    63    1
   100    77    79    1
   101    63    65   ar
   102    63    64   ar
