@<TRIPOS>MOLECULE
tmp/4btmA00.pdb
 121 111 0 0 0
SMALL
GASTEIGER

@<TRIPOS>ATOM
      1  N         -4.7290   11.2760  -38.8290 N.3    20  ILE20      -0.1231
      2  CA        -5.7660   10.6120  -38.0160 C.3    20  ILE20       0.1692
      3  C         -5.6750   10.8880  -36.5050 C.2    20  ILE20       0.2593
      4  O         -6.5470   10.4610  -35.7550 O.2    20  ILE20      -0.2718
      5  CB        -5.9990    9.1150  -38.3820 C.3    20  ILE20       0.0266
      6  CG1       -4.7450    8.2560  -38.1050 C.3    20  ILE20       0.0019
      7  CG2       -6.5120    8.9780  -39.8300 C.3    20  ILE20       0.0020
      8  CD1       -4.9580    6.7330  -38.1540 C.3    20  ILE20       0.0001
      9  N         -4.6390   11.6050  -36.0870 N.am   21  GLY21      -0.1942
     10  CA        -4.4320   12.0030  -34.7020 C.3    21  GLY21       0.2014
     11  C         -2.9780   12.2430  -34.3700 C.2    21  GLY21       0.2639
     12  O         -2.1710   12.5670  -35.2530 O.2    21  GLY21      -0.2714
     13  N         -2.6490   12.0360  -33.0950 N.am   22  GLY22      -0.1954
     14  CA        -1.2830   12.1250  -32.5960 C.3    22  GLY22       0.1869
     15  C         -1.1180   12.8390  -31.2750 C.2    22  GLY22       0.2309
     16  O         -1.1930   12.2100  -30.2090 O.2    22  GLY22      -0.2863
     17  N          0.1080   10.8160  -36.2570 N.3    28  ILE28      -0.1245
     18  CA        -0.3190    9.5630  -36.8850 C.3    28  ILE28       0.1561
     19  C         -1.1770    9.8500  -38.1320 C.2    28  ILE28       0.2260
     20  O         -2.1150   10.6540  -38.0810 O.2    28  ILE28      -0.2867
     21  CB        -0.9320    8.5240  -35.8760 C.3    28  ILE28       0.0252
     22  CG1       -1.5150    7.2920  -36.5740 C.3    28  ILE28       0.0019
     23  CG2       -1.9520    9.1200  -34.9160 C.3    28  ILE28       0.0019
     24  CD1       -0.7950    6.0840  -36.3120 C.3    28  ILE28       0.0001
     25  N         -1.1650    2.4750  -41.2230 N.3    41  ALA41      -0.1245
     26  CA        -1.0210    3.5650  -40.2690 C.3    41  ALA41       0.1562
     27  C          0.4280    4.0140  -40.3340 C.2    41  ALA41       0.2260
     28  O          1.3350    3.1720  -40.4200 O.2    41  ALA41      -0.2867
     29  CB        -1.3780    3.0980  -38.8730 C.3    41  ALA41       0.0290
     30  N          3.1980    6.5520  -38.4990 N.3    43  LYS43      -0.1245
     31  CA         3.5860    7.3730  -37.3500 C.3    43  LYS43       0.1561
     32  C          4.8280    8.1240  -37.7130 C.2    43  LYS43       0.2260
     33  O          5.8140    7.5240  -38.1610 O.2    43  LYS43      -0.2867
     34  CB         3.8500    6.5160  -36.0860 C.3    43  LYS43       0.0271
     35  CG         2.5970    6.1050  -35.3430 C.3    43  LYS43       0.0035
     36  CD         2.8450    5.0800  -34.2270 C.3    43  LYS43       0.0206
     37  CE         1.5270    4.5850  -33.6480 C.3    43  LYS43       0.1093
     38  NZ         1.7190    3.6360  -32.5190 N.3    43  LYS43      -0.1314
     39  N         -0.2880   -4.8400  -33.8800 N.3    71  CYS71      -0.1235
     40  CA        -0.2900   -4.4600  -35.2930 C.3    71  CYS71       0.1677
     41  C          0.8650   -5.1210  -35.9860 C.2    71  CYS71       0.2270
     42  O          1.9640   -5.2200  -35.4120 O.2    71  CYS71      -0.2867
     43  CB        -0.2090   -2.9500  -35.4540 C.3    71  CYS71       0.0956
     44  SG        -1.6000   -2.0640  -34.7300 S.3    71  CYS71      -0.0801
     45  N          2.7530    0.5930  -39.8310 N.3    87  MET87      -0.1230
     46  CA         2.1700   -0.6260  -39.2840 C.3    87  MET87       0.1702
     47  C          0.7050   -0.7720  -39.6630 C.2    87  MET87       0.2592
     48  O          0.0960    0.1680  -40.1990 O.2    87  MET87      -0.2718
     49  CB         2.3990   -0.7600  -37.7520 C.3    87  MET87       0.0401
     50  CG         1.6100    0.2080  -36.9090 C.3    87  MET87       0.0596
     51  SD         2.6200    1.6300  -36.4930 S.3    87  MET87      -0.1393
     52  CE         1.5250    2.9050  -36.9060 C.3    87  MET87       0.0692
     53  N          0.1400   -1.9650  -39.3750 N.am   88  GLN88      -0.1966
     54  CA        -1.2490   -2.3050  -39.6340 C.3    88  GLN88       0.1733
     55  C         -2.1800   -1.2270  -39.0850 C.2    88  GLN88       0.2616
     56  O         -1.9620   -0.7450  -37.9780 O.2    88  GLN88      -0.2715
     57  CB        -1.5550   -3.6760  -39.0290 C.3    88  GLN88       0.0408
     58  CG        -2.9990   -4.1370  -39.2270 C.3    88  GLN88       0.0908
     59  CD        -3.2480   -5.5270  -38.7310 C.2    88  GLN88       0.2608
     60  OE1       -2.4120   -6.1410  -38.0530 O.2    88  GLN88      -0.2717
     61  NE2       -4.4410   -6.0420  -39.0360 N.am   88  GLN88      -0.0878
     62  N         -3.1820   -0.8150  -39.8840 N.am   89  LEU89      -0.1963
     63  CA        -4.1830    0.1820  -39.5040 C.3    89  LEU89       0.1728
     64  C         -5.3510   -0.5550  -38.8660 C.2    89  LEU89       0.2616
     65  O         -5.6830   -1.6630  -39.2860 O.2    89  LEU89      -0.2715
     66  CB        -4.6410    0.9460  -40.7560 C.3    89  LEU89       0.0311
     67  CG        -5.7090    2.0490  -40.5830 C.3    89  LEU89       0.0022
     68  CD1       -5.1310    3.2910  -39.9410 C.3    89  LEU89       0.0001
     69  CD2       -6.3470    2.3660  -41.8930 C.3    89  LEU89       0.0001
     70  N         -5.9750    0.0560  -37.8480 N.am   90  GLN90      -0.1963
     71  CA        -7.0860   -0.5260  -37.0860 C.3    90  GLN90       0.1733
     72  C         -8.2970    0.4160  -37.0990 C.2    90  GLN90       0.2616
     73  O         -8.2510    1.4950  -37.7050 O.2    90  GLN90      -0.2715
     74  CB        -6.6420   -0.8600  -35.6290 C.3    90  GLN90       0.0408
     75  CG        -5.3790   -1.7200  -35.5200 C.3    90  GLN90       0.0908
     76  CD        -5.5440   -3.1210  -36.0350 C.2    90  GLN90       0.2608
     77  OE1       -6.6450   -3.5690  -36.3360 O.2    90  GLN90      -0.2717
     78  NE2       -4.4500   -3.8820  -36.1000 N.am   90  GLN90      -0.0878
     79  N         -9.3680    0.0030  -36.4400 N.am   91  GLY91      -0.1955
     80  CA       -10.5940    0.7780  -36.3580 C.3    91  GLY91       0.1869
     81  C        -10.5960    1.8260  -35.2770 C.2    91  GLY91       0.2309
     82  O         -9.5720    2.4470  -35.0090 O.2    91  GLY91      -0.2863
     83  N        -10.7410    3.6960  -31.5570 N.3    93  ASN93      -0.1240
     84  CA       -10.1330    3.4650  -30.2520 C.3    93  ASN93       0.1653
     85  C        -11.1560    3.4940  -29.1210 C.2    93  ASN93       0.2266
     86  O        -12.2270    4.0790  -29.2620 O.2    93  ASN93      -0.2867
     87  CB        -8.9080    4.3680  -29.9830 C.3    93  ASN93       0.1155
     88  CG        -9.2070    5.8130  -29.9570 C.2    93  ASN93       0.2627
     89  OD1       -9.6940    6.3600  -28.9730 O.2    93  ASN93      -0.2716
     90  ND2       -8.9750    6.4350  -31.0750 N.am   93  ASN93      -0.0877
     91  N         -3.9780    3.2670  -21.4570 N.3   136  LYS136     -0.1245
     92  CA        -5.1360    4.1810  -21.4570 C.3   136  LYS136      0.1561
     93  C         -6.0970    3.7770  -22.5760 C.2   136  LYS136      0.2260
     94  O         -5.6430    3.0610  -23.4790 O.2   136  LYS136     -0.2867
     95  CB        -4.6910    5.6570  -21.5870 C.3   136  LYS136      0.0271
     96  CG        -3.7550    5.9280  -22.7320 C.3   136  LYS136      0.0035
     97  CD        -3.4850    7.3790  -22.9380 C.3   136  LYS136      0.0206
     98  CE        -2.6680    7.5340  -24.2280 C.3   136  LYS136      0.1093
     99  NZ        -1.9950    8.8680  -24.3540 N.3   136  LYS136     -0.1314
    100  N         -7.2990    5.2850  -25.2730 N.3   138  SER138     -0.1202
    101  CA        -6.8610    5.7420  -26.5960 C.3   138  SER138      0.2020
    102  C         -5.6930    4.9480  -27.1590 C.2   138  SER138      0.2618
    103  O         -5.3830    5.0980  -28.3420 O.2   138  SER138     -0.2717
    104  CB        -6.6050    7.2400  -26.6200 C.3   138  SER138      0.2103
    105  OG        -5.6740    7.6140  -25.6240 O.3   138  SER138     -0.2182
    106  N         -5.0680    4.0710  -26.3450 N.am  139  ASN139     -0.1974
    107  CA        -3.9830    3.1990  -26.8120 C.3   139  ASN139      0.1688
    108  C         -4.4810    1.8230  -27.2190 C.2   139  ASN139      0.2292
    109  O         -3.6900    0.9580  -27.5410 O.2   139  ASN139     -0.2864
    110  CB        -2.8260    3.1090  -25.8050 C.3   139  ASN139      0.1181
    111  CG        -1.7470    4.1580  -25.9900 C.2   139  ASN139      0.2629
    112  OD1       -1.5430    4.7120  -27.0700 O.2   139  ASN139     -0.2716
    113  ND2       -1.0380    4.4750  -24.9340 N.am  139  ASN139     -0.0877
    114  N         -2.0340   -0.2180  -29.4540 N.3   155  LEU155     -0.1245
    115  CA        -1.6130    0.6620  -30.5490 C.3   155  LEU155      0.1561
    116  C         -0.2250    1.3040  -30.5290 C.2   155  LEU155      0.2260
    117  O          0.3480    1.5180  -31.6030 O.2   155  LEU155     -0.2867
    118  CB        -2.6540    1.7910  -30.7530 C.3   155  LEU155      0.0270
    119  CG        -4.1000    1.4270  -31.1180 C.3   155  LEU155      0.0019
    120  CD1       -4.9010    2.6720  -31.3360 C.3   155  LEU155      0.0001
    121  CD2       -4.1710    0.5250  -32.3310 C.3   155  LEU155      0.0001
@<TRIPOS>BOND
     1    69    67    1
     2    25    26    1
     3    66    67    1
     4    66    63    1
     5    67    68    1
     6    28    27    2
     7    27    26    1
     8    26    29    1
     9    48    47    2
    10    62    63    1
    11    62    55   am
    12    45    46    1
    13     7     5    1
    14    47    53   am
    15    47    46    1
    16    54    53    1
    17    54    55    1
    18    54    57    1
    19    63    64    1
    20    65    64    2
    21    46    49    1
    22    58    57    1
    23    58    59    1
    24    55    56    2
    25    61    59   am
    26    64    70   am
    27     1     2    1
    28    59    60    2
    29    30    31    1
    30     5     6    1
    31     5     2    1
    32    33    32    2
    33     8     6    1
    34    19    20    2
    35    19    18    1
    36     2     3    1
    37    70    71    1
    38    49    50    1
    39    32    31    1
    40    73    72    2
    41    31    34    1
    42    72    71    1
    43    72    79   am
    44    71    74    1
    45    50    51    1
    46    52    51    1
    47    18    17    1
    48    18    21    1
    49    22    24    1
    50    22    21    1
    51     3     9   am
    52     3     4    2
    53    79    80    1
    54    80    81    1
    55    77    76    2
    56    78    76   am
    57     9    10    1
    58    34    35    1
    59    76    75    1
    60    41    42    2
    61    41    40    1
    62    21    23    1
    63    74    75    1
    64    43    40    1
    65    43    44    1
    66    35    36    1
    67    40    39    1
    68    81    82    2
    69    12    11    2
    70    10    11    1
    71    11    13   am
    72    36    37    1
    73    37    38    1
    74    13    14    1
    75    14    15    1
    76   121   119    1
    77   117   116    2
    78    83    84    1
    79   120   119    1
    80    15    16    2
    81   119   118    1
    82    90    88   am
    83   118   115    1
    84   115   116    1
    85   115   114    1
    86    84    87    1
    87    84    85    1
    88    87    88    1
    89    88    89    2
    90    86    85    2
    91   103   102    2
    92   109   108    2
    93   108   107    1
    94   102   101    1
    95   102   106   am
    96   112   111    2
    97   107   106    1
    98   107   110    1
    99   104   101    1
   100   104   105    1
   101   101   100    1
   102   111   110    1
   103   111   113   am
   104    99    98    1
   105    98    97    1
   106    94    93    2
   107    97    96    1
   108    96    95    1
   109    93    92    1
   110    95    92    1
   111    92    91    1
