@<TRIPOS>MOLECULE
tmp/4bttB00.pdb
 195 192 0 0 0
SMALL
GASTEIGER

@<TRIPOS>ATOM
      1  N         -4.2310    1.1030  -23.5360 N.3    42  HIS42      -0.1241
      2  CA        -5.6850    1.2940  -23.4920 C.3    42  HIS42       0.1621
      3  C         -6.1800    2.1210  -22.2930 C.2    42  HIS42       0.2264
      4  O         -7.2690    2.6940  -22.3620 O.2    42  HIS42      -0.2867
      5  CB        -6.4380   -0.0430  -23.6230 C.3    42  HIS42       0.0745
      6  CG        -6.4240   -0.8950  -22.3920 C.ar   42  HIS42       0.0817
      7  ND1       -5.4140   -1.8070  -22.1570 N.ar   42  HIS42      -0.2268
      8  CD2       -7.3250   -0.9720  -21.3850 C.ar   42  HIS42       0.1154
      9  CE1       -5.7200   -2.3960  -21.0120 C.ar   42  HIS42       0.1986
     10  NE2       -6.8590   -1.9230  -20.5090 N.ar   42  HIS42      -0.2212
     11  N         -9.2500    6.0000  -21.0800 N.3    46  GLN46      -0.1245
     12  CA       -10.2470    5.9530  -20.0050 C.3    46  GLN46       0.1566
     13  C        -10.5020    7.2980  -19.3140 C.2    46  GLN46       0.2260
     14  O        -11.6110    7.5190  -18.8220 O.2    46  GLN46      -0.2867
     15  CB        -9.9000    4.8640  -18.9790 C.3    46  GLN46       0.0367
     16  CG       -10.2490    3.4560  -19.4480 C.3    46  GLN46       0.0905
     17  CD        -9.8700    2.4090  -18.4330 C.2    46  GLN46       0.2608
     18  OE1      -10.5050    2.2620  -17.3820 O.2    46  GLN46      -0.2717
     19  NE2       -8.8420    1.6350  -18.7400 N.am   46  GLN46      -0.0878
     20  N         -7.0820   -0.6590  -30.9830 N.3    82  LYS82      -0.1231
     21  CA        -8.2030   -1.0830  -30.1340 C.3    82  LYS82       0.1693
     22  C         -8.9740   -2.2800  -30.7200 C.2    82  LYS82       0.2592
     23  O         -9.7890   -2.8900  -30.0230 O.2    82  LYS82      -0.2718
     24  CB        -9.1390    0.1030  -29.7900 C.3    82  LYS82       0.0285
     25  CG        -9.8240    0.7970  -30.9840 C.3    82  LYS82       0.0035
     26  CD        -9.0160    1.9690  -31.5790 C.3    82  LYS82       0.0206
     27  CE        -9.1230    3.2580  -30.7940 C.3    82  LYS82       0.1093
     28  NZ        -8.2240    4.3070  -31.3410 N.3    82  LYS82      -0.1314
     29  N         -8.6940   -2.6150  -31.9930 N.am   83  GLU83      -0.1966
     30  CA        -9.3000   -3.7150  -32.7460 C.3    83  GLU83       0.1733
     31  C         -8.8740   -5.0780  -32.1920 C.2    83  GLU83       0.2617
     32  O         -9.7200   -5.9570  -32.0250 O.2    83  GLU83      -0.2715
     33  CB        -8.9040   -3.6310  -34.2360 C.3    83  GLU83       0.0429
     34  CG        -9.2620   -2.3270  -34.9330 C.3    83  GLU83       0.1163
     35  CD        -8.4370   -2.0200  -36.1680 C.2    83  GLU83       0.3649
     36  OE1       -8.4480   -2.8360  -37.1180 O.co2  83  GLU83      -0.2457
     37  OE2       -7.7860   -0.9510  -36.1910 O.co2  83  GLU83      -0.2457
     38  N         -7.5590   -5.2550  -31.9340 N.am   84  THR84      -0.1937
     39  CA        -6.9650   -6.5120  -31.4640 C.3    84  THR84       0.2028
     40  C         -6.2380   -6.4060  -30.1100 C.2    84  THR84       0.2642
     41  O         -5.8980   -7.4410  -29.5280 O.2    84  THR84      -0.2714
     42  CB        -6.0200   -7.0850  -32.5430 C.3    84  THR84       0.1808
     43  OG1       -4.9880   -6.1360  -32.8190 O.3    84  THR84      -0.2208
     44  CG2       -6.7470   -7.4630  -33.8340 C.3    84  THR84       0.0379
     45  N         -5.9950   -5.1640  -29.6190 N.am   85  TYR85      -0.1973
     46  CA        -5.2730   -4.8460  -28.3730 C.3    85  TYR85       0.1639
     47  C         -3.7800   -5.2270  -28.4370 C.2    85  TYR85       0.2290
     48  O         -3.1470   -5.4630  -27.4040 O.2    85  TYR85      -0.2864
     49  CB        -5.9840   -5.4000  -27.1160 C.3    85  TYR85       0.0560
     50  CG        -6.9990   -4.4660  -26.4890 C.ar   85  TYR85      -0.0198
     51  CD1       -8.0770   -3.9770  -27.2250 C.ar   85  TYR85      -0.0009
     52  CD2       -6.9270   -4.1330  -25.1400 C.ar   85  TYR85      -0.0009
     53  CE1       -9.0320   -3.1440  -26.6440 C.ar   85  TYR85       0.0417
     54  CE2       -7.8790   -3.3050  -24.5460 C.ar   85  TYR85       0.0417
     55  CZ        -8.9280   -2.8090  -25.3030 C.ar   85  TYR85       0.1957
     56  OH        -9.8660   -1.9890  -24.7240 O.3    85  TYR85      -0.2866
     57  N        -16.4160  -11.1080  -11.8050 N.3   135  GLU135     -0.1245
     58  CA       -16.6550  -10.5840  -13.1590 C.3   135  GLU135      0.1567
     59  C        -17.7340   -9.4880  -13.1680 C.2   135  GLU135      0.2260
     60  O        -17.5230   -8.4220  -13.7500 O.2   135  GLU135     -0.2867
     61  CB       -17.0260  -11.7250  -14.1240 C.3   135  GLU135      0.0388
     62  CG       -17.0140  -11.3230  -15.5910 C.3   135  GLU135      0.1160
     63  CD       -17.4750  -12.3930  -16.5600 C.2   135  GLU135      0.3649
     64  OE1      -16.8440  -13.4740  -16.6050 O.co2 135  GLU135     -0.2457
     65  OE2      -18.4450  -12.1330  -17.3080 O.co2 135  GLU135     -0.2457
     66  N        -10.4380  -14.6270  -29.8510 N.3   162  PHE162     -0.1241
     67  CA        -9.7400  -13.4960  -30.4620 C.3   162  PHE162      0.1605
     68  C         -8.2610  -13.8390  -30.6780 C.2   162  PHE162      0.2264
     69  O         -7.7190  -14.6910  -29.9710 O.2   162  PHE162     -0.2867
     70  CB        -9.9040  -12.2350  -29.5900 C.3   162  PHE162      0.0534
     71  CG       -11.3390  -11.7770  -29.4320 C.ar  162  PHE162     -0.0203
     72  CD1      -12.1670  -12.3440  -28.4680 C.ar  162  PHE162     -0.0042
     73  CD2      -11.8640  -10.7850  -30.2510 C.ar  162  PHE162     -0.0042
     74  CE1      -13.5020  -11.9470  -28.3470 C.ar  162  PHE162     -0.0003
     75  CE2      -13.1930  -10.3720  -30.1120 C.ar  162  PHE162     -0.0003
     76  CZ       -14.0010  -10.9540  -29.1600 C.ar  162  PHE162     -0.0000
     77  N         -8.3860  -15.5230  -11.3470 N.3   179  ASP179     -0.1225
     78  CA        -7.8780  -14.7460  -12.4830 C.3   179  ASP179      0.1805
     79  C         -7.9400  -13.2390  -12.1870 C.2   179  ASP179      0.2598
     80  O         -8.6420  -12.8230  -11.2630 O.2   179  ASP179     -0.2718
     81  CB        -8.7170  -15.0720  -13.7440 C.3   179  ASP179      0.1424
     82  CG        -8.2170  -14.5200  -15.0690 C.2   179  ASP179      0.3668
     83  OD1       -7.0040  -14.2310  -15.1760 O.co2 179  ASP179     -0.2456
     84  OD2       -9.0340  -14.4000  -16.0060 O.co2 179  ASP179     -0.2456
     85  N         -7.2070  -12.4240  -12.9730 N.am  180  ALA180     -0.1966
     86  CA        -7.2250  -10.9640  -12.8670 C.3   180  ALA180      0.1728
     87  C         -8.5310  -10.4540  -13.4980 C.2   180  ALA180      0.2616
     88  O         -9.0960  -11.1320  -14.3580 O.2   180  ALA180     -0.2715
     89  CB        -6.0250  -10.3730  -13.5910 C.3   180  ALA180      0.0334
     90  N         -9.0230   -9.2850  -13.0600 N.am  181  CYS181     -0.1954
     91  CA       -10.2770   -8.7280  -13.5730 C.3   181  CYS181      0.1843
     92  C        -10.1690   -7.2470  -13.9710 C.2   181  CYS181      0.2625
     93  O         -9.0560   -6.7240  -14.0530 O.2   181  CYS181     -0.2714
     94  CB       -11.4160   -8.9780  -12.5850 C.3   181  CYS181      0.0997
     95  SG       -13.0650   -9.0050  -13.3380 S.3   181  CYS181     -0.0797
     96  N        -11.3190   -6.5880  -14.2620 N.am  182  GLN182     -0.1977
     97  CA       -11.3940   -5.1750  -14.6450 C.3   182  GLN182      0.1601
     98  C        -10.9370   -4.2990  -13.4790 C.2   182  GLN182      0.2287
     99  O        -11.4020   -4.4790  -12.3510 O.2   182  GLN182     -0.2864
    100  CB       -12.8160   -4.8040  -15.0990 C.3   182  GLN182      0.0394
    101  CG       -12.8690   -3.5780  -16.0060 C.3   182  GLN182      0.0908
    102  CD       -14.2480   -3.3390  -16.5650 C.2   182  GLN182      0.2608
    103  OE1      -14.7280   -4.0650  -17.4420 O.2   182  GLN182     -0.2717
    104  NE2      -14.9070   -2.2940  -16.0890 N.am  182  GLN182     -0.0878
    105  N         -6.0270   -4.0070  -15.0260 N.3   185  SER185     -0.1217
    106  CA        -5.4170   -3.6740  -16.3200 C.3   185  SER185      0.1889
    107  C         -4.3600   -2.5710  -16.2290 C.2   185  SER185      0.2288
    108  O         -4.5980   -1.5300  -15.6120 O.2   185  SER185     -0.2866
    109  CB        -6.4860   -3.3230  -17.3500 C.3   185  SER185      0.2089
    110  OG        -7.2490   -2.1980  -16.9450 O.3   185  SER185     -0.2183
    111  N         -0.8230   -6.5500  -17.3740 N.3   203  VAL203     -0.1231
    112  CA        -2.2310   -6.9620  -17.2860 C.3   203  VAL203      0.1692
    113  C         -2.9960   -6.2470  -18.4250 C.2   203  VAL203      0.2593
    114  O         -3.0830   -5.0170  -18.4280 O.2   203  VAL203     -0.2718
    115  CB        -2.8070   -6.6760  -15.8650 C.3   203  VAL203      0.0266
    116  CG1       -4.2060   -7.2480  -15.7010 C.3   203  VAL203      0.0020
    117  CG2       -1.8910   -7.2250  -14.7720 C.3   203  VAL203      0.0020
    118  N         -3.4520   -7.0150  -19.4380 N.am  204  SER204     -0.1938
    119  CA        -4.1060   -6.4560  -20.6260 C.3   204  SER204      0.2055
    120  C         -5.6180   -6.7100  -20.7570 C.2   204  SER204      0.2643
    121  O         -6.4050   -5.8260  -20.4150 O.2   204  SER204     -0.2714
    122  CB        -3.3520   -6.8560  -21.8940 C.3   204  SER204      0.2130
    123  OG        -3.8390   -6.1700  -23.0360 O.3   204  SER204     -0.2179
    124  N         -6.0220   -7.8880  -21.2780 N.am  205  TRP205     -0.1959
    125  CA        -7.4310   -8.2330  -21.4960 C.3   205  TRP205      0.1771
    126  C         -7.7590   -9.6980  -21.1680 C.2   205  TRP205      0.2620
    127  O         -6.8760  -10.4580  -20.7660 O.2   205  TRP205     -0.2715
    128  CB        -7.8680   -7.8590  -22.9280 C.3   205  TRP205      0.0590
    129  CG        -7.1300   -8.5830  -24.0170 C.ar  205  TRP205      0.0006
    130  CD1       -5.9340   -8.2320  -24.5710 C.ar  205  TRP205      0.0946
    131  CD2       -7.5560   -9.7700  -24.7000 C.ar  205  TRP205      0.0152
    132  NE1       -5.5840   -9.1280  -25.5530 N.ar  205  TRP205     -0.2442
    133  CE2       -6.5670  -10.0780  -25.6620 C.ar  205  TRP205      0.0810
    134  CE3       -8.6950  -10.5900  -24.6170 C.ar  205  TRP205      0.0012
    135  CZ2       -6.6680  -11.1860  -26.5120 C.ar  205  TRP205      0.0191
    136  CZ3       -8.7950  -11.6860  -25.4600 C.ar  205  TRP205      0.0001
    137  CH2       -7.7910  -11.9750  -26.3940 C.ar  205  TRP205      0.0015
    138  N         -9.0310  -10.0570  -21.3280 N.am  206  GLY206     -0.1940
    139  CA        -9.5470  -11.3990  -21.0920 C.3   206  GLY206      0.2014
    140  C        -11.0430  -11.4920  -21.3080 C.2   206  GLY206      0.2639
    141  O        -11.7740  -10.5550  -20.9690 O.2   206  GLY206     -0.2714
    142  N        -11.5110  -12.6240  -21.8800 N.am  207  GLU207     -0.1963
    143  CA       -12.9350  -12.8860  -22.1260 C.3   207  GLU207      0.1733
    144  C        -13.6160  -13.1180  -20.7730 C.2   207  GLU207      0.2617
    145  O        -13.6590  -14.2460  -20.2720 O.2   207  GLU207     -0.2715
    146  CB       -13.1250  -14.0890  -23.0680 C.3   207  GLU207      0.0429
    147  CG       -12.7550  -13.8060  -24.5140 C.3   207  GLU207      0.1163
    148  CD       -12.9590  -14.9820  -25.4460 C.2   207  GLU207      0.3649
    149  OE1      -14.1300  -15.3350  -25.7130 O.co2 207  GLU207     -0.2457
    150  OE2      -11.9460  -15.5530  -25.9110 O.co2 207  GLU207     -0.2457
    151  N        -14.0740  -12.0230  -20.1710 N.am  208  GLY208     -0.1940
    152  CA       -14.6740  -12.0280  -18.8430 C.3   208  GLY208      0.2014
    153  C        -13.6130  -12.1990  -17.7720 C.2   208  GLY208      0.2639
    154  O        -12.4420  -11.8840  -18.0060 O.2   208  GLY208     -0.2714
    155  N        -14.0090  -12.7020  -16.5940 N.am  209  CYS209     -0.1967
    156  CA       -13.0900  -12.9340  -15.4780 C.3   209  CYS209      0.1712
    157  C        -13.2850  -14.3330  -14.8960 C.2   209  CYS209      0.2296
    158  O        -14.3950  -14.6800  -14.4890 O.2   209  CYS209     -0.2864
    159  CB       -13.2340  -11.8520  -14.4090 C.3   209  CYS209      0.0983
    160  SG       -12.8840  -10.1720  -14.9950 S.3   209  CYS209     -0.0798
    161  N        -13.4890  -17.3310  -16.2590 N.3   211  ARG211     -0.1245
    162  CA       -14.4180  -18.2270  -16.9620 C.3   211  ARG211      0.1563
    163  C        -13.7690  -19.5800  -17.2540 C.2   211  ARG211      0.2260
    164  O        -12.5710  -19.6310  -17.5430 O.2   211  ARG211     -0.2867
    165  CB       -14.9350  -17.5920  -18.2630 C.3   211  ARG211      0.0307
    166  CG       -15.9160  -16.4470  -18.0530 C.3   211  ARG211      0.0489
    167  CD       -16.4520  -15.9380  -19.3750 C.3   211  ARG211      0.2205
    168  NE       -17.1100  -14.6390  -19.2340 N.pl3 211  ARG211     -0.0865
    169  CZ       -17.4580  -13.8600  -20.2530 C.cat 211  ARG211      0.5346
    170  NH1      -17.2090  -14.2360  -21.5020 N.pl3 211  ARG211      0.1354
    171  NH2      -18.0500  -12.6940  -20.0320 N.pl3 211  ARG211      0.1354
    172  N         -6.0300  -15.6970  -18.8700 N.3   216  GLY216     -0.1210
    173  CA        -5.6940  -14.2810  -18.7920 C.3   216  GLY216      0.1956
    174  C         -4.6680  -13.9000  -19.8420 C.2   216  GLY216      0.2612
    175  O         -3.6580  -14.5920  -19.9960 O.2   216  GLY216     -0.2717
    176  N         -4.9280  -12.8050  -20.5830 N.am  217  ILE217     -0.1965
    177  CA        -4.0380  -12.3330  -21.6510 C.3   217  ILE217      0.1727
    178  C         -3.1540  -11.1880  -21.1540 C.2   217  ILE217      0.2616
    179  O         -3.6620  -10.2030  -20.6130 O.2   217  ILE217     -0.2715
    180  CB        -4.7860  -11.9890  -22.9790 C.3   217  ILE217      0.0290
    181  CG1       -6.0680  -12.8540  -23.2240 C.3   217  ILE217      0.0022
    182  CG2       -3.8340  -11.9740  -24.1860 C.3   217  ILE217      0.0023
    183  CD1       -5.9050  -14.4210  -23.4320 C.3   217  ILE217      0.0001
    184  N         -1.8310  -11.3280  -21.3430 N.am  218  TYR218     -0.1974
    185  CA        -0.8290  -10.3610  -20.8960 C.3   218  TYR218      0.1639
    186  C          0.0930   -9.9050  -22.0280 C.2   218  TYR218      0.2290
    187  O          0.3590  -10.6740  -22.9540 O.2   218  TYR218     -0.2864
    188  CB         0.0150  -10.9590  -19.7550 C.3   218  TYR218      0.0560
    189  CG        -0.7720  -11.3500  -18.5240 C.ar  218  TYR218     -0.0198
    190  CD1       -1.3310  -12.6190  -18.4040 C.ar  218  TYR218     -0.0009
    191  CD2       -0.9170  -10.4700  -17.4570 C.ar  218  TYR218     -0.0009
    192  CE1       -2.0570  -12.9860  -17.2720 C.ar  218  TYR218      0.0417
    193  CE2       -1.6360  -10.8270  -16.3180 C.ar  218  TYR218      0.0417
    194  CZ        -2.1930  -12.0920  -16.2230 C.ar  218  TYR218      0.1957
    195  OH        -2.8990  -12.4570  -15.1030 O.3   218  TYR218     -0.2866
@<TRIPOS>BOND
     1    36    35   ar
     2    37    35   ar
     3    35    34    1
     4    34    33    1
     5    33    30    1
     6    44    42    1
     7    43    42    1
     8    30    31    1
     9    30    29    1
    10    42    39    1
    11    31    32    2
    12    31    38   am
    13    29    22   am
    14    38    39    1
    15    26    25    1
    16    26    27    1
    17    39    40    1
    18    28    27    1
    19    25    24    1
    20    20    21    1
    21    22    21    1
    22    22    23    2
    23    68    67    1
    24    68    69    2
    25    67    66    1
    26    67    70    1
    27    73    75   ar
    28    73    71   ar
    29    21    24    1
    30    75    76   ar
    31    40    45   am
    32    40    41    2
    33    45    46    1
    34    70    71    1
    35    71    72   ar
    36    76    74   ar
    37    72    74   ar
    38    47    46    1
    39    47    48    2
    40    46    49    1
    41    51    53   ar
    42    51    50   ar
    43    49    50    1
    44    53    55   ar
    45   135   137   ar
    46   135   133   ar
    47    50    52   ar
    48   137   136   ar
    49   150   148   ar
    50   149   148   ar
    51   133   132   ar
    52   133   131   ar
    53   132   130   ar
    54   136   134   ar
    55   148   147    1
    56    55    56    1
    57    55    54   ar
    58    52    54   ar
    59   131   134   ar
    60   131   129   ar
    61   130   129   ar
    62   147   146    1
    63   182   180    1
    64   129   128    1
    65     5     2    1
    66     5     6    1
    67     1     2    1
    68     2     3    1
    69   183   181    1
    70   181   180    1
    71   146   143    1
    72   123   122    1
    73   180   177    1
    74   187   186    2
    75   128   125    1
    76     6     7   ar
    77     6     8   ar
    78     4     3    2
    79     7     9   ar
    80   143   142    1
    81   143   144    1
    82   186   185    1
    83   122   119    1
    84   142   140   am
    85   177   178    1
    86   177   176    1
    87   170   169    1
    88   125   124    1
    89   125   126    1
    90     8    10   ar
    91   184   178   am
    92   184   185    1
    93   138   126   am
    94   138   139    1
    95   140   139    1
    96   140   141    2
    97   124   120   am
    98   126   127    2
    99   178   179    2
   100    11    12    1
   101     9    10   ar
   102   185   188    1
   103   144   145    2
   104   144   151   am
   105   120   119    1
   106   120   121    2
   107   119   118    1
   108   176   174   am
   109   169   171    1
   110   169   168    2
   111   151   152    1
   112    12    13    1
   113    12    15    1
   114   175   174    2
   115   174   173    1
   116   188   189    1
   117    16    15    1
   118    16    17    1
   119   118   113   am
   120   167   168    1
   121   167   166    1
   122    13    14    2
   123   172   173    1
   124   152   153    1
   125    19    17   am
   126   189   190   ar
   127   189   191   ar
   128    17    18    2
   129   114   113    2
   130   113   112    1
   131   190   192   ar
   132   165   166    1
   133   165   162    1
   134   154   153    2
   135   153   155   am
   136   164   163    2
   137   191   193   ar
   138   103   102    2
   139   111   112    1
   140   109   110    1
   141   109   106    1
   142    65    63   ar
   143   112   115    1
   144   192   194   ar
   145   163   162    1
   146   162   161    1
   147    64    63   ar
   148   155   156    1
   149   102   104   am
   150   102   101    1
   151    63    62    1
   152   106   107    1
   153   106   105    1
   154   193   194   ar
   155   107   108    2
   156   194   195    1
   157    84    82   ar
   158   101   100    1
   159   115   116    1
   160   115   117    1
   161    62    61    1
   162   156   157    1
   163   156   159    1
   164    83    82   ar
   165   100    97    1
   166    82    81    1
   167   160   159    1
   168   160    95    1
   169   157   158    2
   170    97    96    1
   171    97    98    1
   172    88    87    2
   173    96    92   am
   174    61    58    1
   175    93    92    2
   176    92    91    1
   177    60    59    2
   178    81    78    1
   179    89    86    1
   180    91    90    1
   181    91    94    1
   182    87    90   am
   183    87    86    1
   184    98    99    2
   185    95    94    1
   186    59    58    1
   187    58    57    1
   188    85    86    1
   189    85    79   am
   190    78    79    1
   191    78    77    1
   192    79    80    2
