@<TRIPOS>MOLECULE
tmp/4btuD00.pdb
 195 192 0 0 0
SMALL
GASTEIGER

@<TRIPOS>ATOM
      1  N         39.7420  -14.5830  -35.6460 N.3    42  HIS42      -0.1241
      2  CA        40.5540  -15.8100  -35.6210 C.3    42  HIS42       0.1621
      3  C         41.5190  -15.9720  -36.8060 C.2    42  HIS42       0.2264
      4  O         42.4640  -16.7630  -36.7380 O.2    42  HIS42      -0.2867
      5  CB        39.6610  -17.0510  -35.4860 C.3    42  HIS42       0.0745
      6  CG        38.9340  -17.4170  -36.7420 C.ar   42  HIS42       0.0817
      7  ND1       37.7040  -16.8910  -37.0710 N.ar   42  HIS42      -0.2268
      8  CD2       39.2600  -18.2660  -37.7450 C.ar   42  HIS42       0.1154
      9  CE1       37.3060  -17.3940  -38.2250 C.ar   42  HIS42       0.1986
     10  NE2       38.2320  -18.2320  -38.6550 N.ar   42  HIS42      -0.2212
     11  N         46.9710  -16.5290  -38.2270 N.3    46  GLN46      -0.1245
     12  CA        47.3750  -17.5730  -39.1660 C.3    46  GLN46       0.1566
     13  C         48.4810  -17.0810  -40.1030 C.2    46  GLN46       0.2260
     14  O         48.9570  -17.8280  -40.9640 O.2    46  GLN46      -0.2867
     15  CB        46.1680  -18.0820  -39.9630 C.3    46  GLN46       0.0367
     16  CG        45.2300  -18.9770  -39.1660 C.3    46  GLN46       0.0905
     17  CD        44.0840  -19.5260  -39.9970 C.2    46  GLN46       0.2608
     18  OE1       43.3640  -18.7780  -40.6600 O.2    46  GLN46      -0.2717
     19  NE2       43.9030  -20.8410  -39.9570 N.am   46  GLN46      -0.0878
     20  N         39.7290  -18.0560  -28.6610 N.3    82  LYS82      -0.1231
     21  CA        39.7270  -19.1150  -29.6730 C.3    82  LYS82       0.1693
     22  C         39.1470  -20.4580  -29.2180 C.2    82  LYS82       0.2592
     23  O         38.9800  -21.3660  -30.0350 O.2    82  LYS82      -0.2718
     24  CB        41.1420  -19.3110  -30.2340 C.3    82  LYS82       0.0285
     25  CG        42.1070  -20.0420  -29.3070 C.3    82  LYS82       0.0035
     26  CD        43.5380  -20.0290  -29.8300 C.3    82  LYS82       0.0206
     27  CE        43.7750  -21.0350  -30.9480 C.3    82  LYS82       0.1093
     28  NZ        43.3300  -20.5460  -32.2820 N.3    82  LYS82      -0.1314
     29  N         38.8550  -20.5860  -27.9260 N.am   83  GLU83      -0.1966
     30  CA        38.3050  -21.8270  -27.3780 C.3    83  GLU83       0.1733
     31  C         36.8600  -22.0740  -27.8150 C.2    83  GLU83       0.2617
     32  O         36.4440  -23.2240  -27.9660 O.2    83  GLU83      -0.2715
     33  CB        38.4110  -21.8410  -25.8490 C.3    83  GLU83       0.0429
     34  CG        39.7740  -22.2660  -25.3120 C.3    83  GLU83       0.1163
     35  CD        40.8480  -21.2030  -25.4770 C.2    83  GLU83       0.3649
     36  OE1       40.5110  -19.9980  -25.4840 O.co2  83  GLU83      -0.2457
     37  OE2       42.0350  -21.5730  -25.5940 O.co2  83  GLU83      -0.2457
     38  N         36.1050  -20.9940  -28.0090 N.am   84  THR84      -0.1937
     39  CA        34.7120  -21.0780  -28.4670 C.3    84  THR84       0.2028
     40  C         34.4640  -20.2410  -29.7220 C.2    84  THR84       0.2642
     41  O         33.4420  -20.4120  -30.3910 O.2    84  THR84      -0.2714
     42  CB        33.7160  -20.6100  -27.3880 C.3    84  THR84       0.1808
     43  OG1       34.0170  -19.2600  -27.0150 O.3    84  THR84      -0.2208
     44  CG2       33.7680  -21.5100  -26.1600 C.3    84  THR84       0.0379
     45  N         35.4040  -19.3460  -30.0280 N.am   85  TYR85      -0.1973
     46  CA        35.2920  -18.3970  -31.1450 C.3    85  TYR85       0.1639
     47  C         34.2290  -17.3220  -30.8920 C.2    85  TYR85       0.2290
     48  O         33.5800  -16.8380  -31.8240 O.2    85  TYR85      -0.2864
     49  CB        35.0470  -19.1240  -32.4770 C.3    85  TYR85       0.0560
     50  CG        36.3000  -19.5920  -33.1900 C.ar   85  TYR85      -0.0198
     51  CD1       37.4220  -20.0250  -32.4790 C.ar   85  TYR85      -0.0009
     52  CD2       36.3540  -19.6240  -34.5810 C.ar   85  TYR85      -0.0009
     53  CE1       38.5650  -20.4560  -33.1340 C.ar   85  TYR85       0.0417
     54  CE2       37.4910  -20.0560  -35.2430 C.ar   85  TYR85       0.0417
     55  CZ        38.5930  -20.4700  -34.5180 C.ar   85  TYR85       0.1957
     56  OH        39.7220  -20.9010  -35.1730 O.3    85  TYR85      -0.2866
     57  N         35.1430  -30.5060  -47.3100 N.3   135  GLU135     -0.1245
     58  CA        35.6970  -30.4310  -45.9530 C.3   135  GLU135      0.1567
     59  C         37.1870  -30.7820  -45.9230 C.2   135  GLU135      0.2260
     60  O         37.9800  -30.1050  -45.2640 O.2   135  GLU135     -0.2867
     61  CB        34.9110  -31.3410  -45.0030 C.3   135  GLU135      0.0388
     62  CG        35.2610  -31.1760  -43.5310 C.3   135  GLU135      0.1160
     63  CD        34.5060  -32.1420  -42.6340 C.2   135  GLU135      0.3649
     64  OE1       33.2560  -32.1350  -42.6570 O.co2 135  GLU135     -0.2457
     65  OE2       35.1670  -32.9050  -41.8960 O.co2 135  GLU135     -0.2457
     66  N         29.0210  -27.5140  -29.4170 N.3   162  PHE162     -0.1241
     67  CA        29.7000  -26.3690  -28.8200 C.3   162  PHE162      0.1605
     68  C         28.6900  -25.2540  -28.5680 C.2   162  PHE162      0.2264
     69  O         27.8000  -25.0180  -29.3870 O.2   162  PHE162     -0.2867
     70  CB        30.8260  -25.8640  -29.7300 C.3   162  PHE162      0.0534
     71  CG        31.8300  -26.9200  -30.1080 C.ar  162  PHE162     -0.0203
     72  CD1       32.8620  -27.2650  -29.2410 C.ar  162  PHE162     -0.0042
     73  CD2       31.7500  -27.5630  -31.3400 C.ar  162  PHE162     -0.0042
     74  CE1       33.7900  -28.2360  -29.5900 C.ar  162  PHE162     -0.0003
     75  CE2       32.6740  -28.5350  -31.6950 C.ar  162  PHE162     -0.0003
     76  CZ        33.6960  -28.8710  -30.8190 C.ar  162  PHE162     -0.0000
     77  N         27.3080  -25.7280  -47.8100 N.3   179  ASP179     -0.1225
     78  CA        27.7660  -25.0030  -46.6250 C.3   179  ASP179      0.1805
     79  C         28.9350  -24.0750  -46.9660 C.2   179  ASP179      0.2598
     80  O         29.3710  -24.0100  -48.1180 O.2   179  ASP179     -0.2718
     81  CB        28.1850  -26.0070  -45.5410 C.3   179  ASP179      0.1424
     82  CG        28.2850  -25.3860  -44.1530 C.2   179  ASP179      0.3668
     83  OD1       27.7250  -24.2900  -43.9280 O.co2 179  ASP179     -0.2456
     84  OD2       28.9260  -26.0080  -43.2810 O.co2 179  ASP179     -0.2456
     85  N         29.4180  -23.3450  -45.9620 N.am  180  ALA180     -0.1966
     86  CA        30.6900  -22.6340  -46.0470 C.3   180  ALA180      0.1728
     87  C         31.7790  -23.5100  -45.4270 C.2   180  ALA180      0.2616
     88  O         31.4900  -24.3600  -44.5810 O.2   180  ALA180     -0.2715
     89  CB        30.6010  -21.2950  -45.3320 C.3   180  ALA180      0.0334
     90  N         33.0250  -23.3080  -45.8480 N.am  181  CYS181     -0.1954
     91  CA        34.1340  -24.1510  -45.3990 C.3   181  CYS181      0.1843
     92  C         35.3670  -23.3150  -45.0450 C.2   181  CYS181      0.2625
     93  O         35.3160  -22.0830  -45.0820 O.2   181  CYS181     -0.2714
     94  CB        34.4650  -25.1890  -46.4780 C.3   181  CYS181      0.0997
     95  SG        35.0720  -26.7810  -45.8700 S.3   181  CYS181     -0.0797
     96  N         36.4660  -23.9860  -44.6920 N.am  182  GLN182     -0.1977
     97  CA        37.7230  -23.3080  -44.3610 C.3   182  GLN182      0.1601
     98  C         38.2350  -22.4970  -45.5490 C.2   182  GLN182      0.2287
     99  O         38.3070  -23.0010  -46.6720 O.2   182  GLN182     -0.2864
    100  CB        38.7830  -24.3130  -43.8940 C.3   182  GLN182      0.0394
    101  CG        40.0870  -23.6730  -43.4300 C.3   182  GLN182      0.0908
    102  CD        41.0800  -24.6690  -42.8580 C.2   182  GLN182      0.2608
    103  OE1       41.1630  -25.8160  -43.3010 O.2   182  GLN182     -0.2717
    104  NE2       41.8520  -24.2270  -41.8730 N.am  182  GLN182     -0.0878
    105  N         36.2440  -18.3060  -44.1390 N.3   185  SER185     -0.1217
    106  CA        36.3670  -17.6630  -42.8320 C.3   185  SER185      0.1889
    107  C         36.6140  -16.1610  -42.9370 C.2   185  SER185      0.2288
    108  O         37.4670  -15.7150  -43.7070 O.2   185  SER185     -0.2866
    109  CB        37.4970  -18.3180  -42.0310 C.3   185  SER185      0.2089
    110  OG        37.3970  -19.7340  -42.0580 O.3   185  SER185     -0.2183
    111  N         31.5710  -14.9470  -41.5730 N.3   203  VAL203     -0.1231
    112  CA        31.8490  -16.3840  -41.5420 C.3   203  VAL203      0.1692
    113  C         32.8520  -16.6860  -40.4270 C.2   203  VAL203      0.2593
    114  O         33.9680  -16.1610  -40.4270 O.2   203  VAL203     -0.2718
    115  CB        32.3790  -16.8970  -42.9000 C.3   203  VAL203      0.0266
    116  CG1       32.6600  -18.3900  -42.8410 C.3   203  VAL203      0.0020
    117  CG2       31.3890  -16.5970  -44.0160 C.3   203  VAL203      0.0020
    118  N         32.4350  -17.5180  -39.4750 N.am  204  SER204     -0.1938
    119  CA        33.2440  -17.8060  -38.2940 C.3   204  SER204      0.2055
    120  C         33.7130  -19.2610  -38.2230 C.2   204  SER204      0.2643
    121  O         34.9080  -19.5290  -38.3630 O.2   204  SER204     -0.2714
    122  CB        32.4910  -17.4110  -37.0170 C.3   204  SER204      0.2130
    123  OG        33.3490  -17.4330  -35.8870 O.3   204  SER204     -0.2179
    124  N         32.7790  -20.1890  -38.0040 N.am  205  TRP205     -0.1959
    125  CA        33.1150  -21.6070  -37.8160 C.3   205  TRP205      0.1771
    126  C         31.9380  -22.5610  -38.0540 C.2   205  TRP205      0.2620
    127  O         30.8010  -22.1330  -38.2560 O.2   205  TRP205     -0.2715
    128  CB        33.7100  -21.8470  -36.4190 C.3   205  TRP205      0.0590
    129  CG        32.7580  -21.5710  -35.2940 C.ar  205  TRP205      0.0006
    130  CD1       32.5190  -20.3660  -34.7030 C.ar  205  TRP205      0.0946
    131  CD2       31.9170  -22.5200  -34.6240 C.ar  205  TRP205      0.0152
    132  NE1       31.5840  -20.5030  -33.7060 N.ar  205  TRP205     -0.2442
    133  CE2       31.1970  -21.8150  -33.6350 C.ar  205  TRP205      0.0810
    134  CE3       31.7040  -23.9000  -34.7620 C.ar  205  TRP205      0.0012
    135  CZ2       30.2770  -22.4400  -32.7870 C.ar  205  TRP205      0.0191
    136  CZ3       30.7860  -24.5230  -33.9200 C.ar  205  TRP205      0.0001
    137  CH2       30.0850  -23.7910  -32.9450 C.ar  205  TRP205      0.0015
    138  N         32.2380  -23.8570  -38.0370 N.am  206  GLY206     -0.1940
    139  CA        31.2310  -24.9120  -38.1040 C.3   206  GLY206      0.2014
    140  C         31.8620  -26.2530  -37.7840 C.2   206  GLY206      0.2639
    141  O         33.0790  -26.4100  -37.8920 O.2   206  GLY206     -0.2714
    142  N         31.0420  -27.2200  -37.3800 N.am  207  GLU207     -0.1963
    143  CA        31.5230  -28.5770  -37.1230 C.3   207  GLU207      0.1733
    144  C         31.7320  -29.3080  -38.4450 C.2   207  GLU207      0.2617
    145  O         30.8770  -30.0810  -38.8850 O.2   207  GLU207     -0.2715
    146  CB        30.5540  -29.3510  -36.2250 C.3   207  GLU207      0.0429
    147  CG        30.5240  -28.8860  -34.7790 C.3   207  GLU207      0.1163
    148  CD        29.6880  -29.7940  -33.8990 C.2   207  GLU207      0.3649
    149  OE1       30.1360  -30.9260  -33.6190 O.co2 207  GLU207     -0.2457
    150  OE2       28.5870  -29.3740  -33.4820 O.co2 207  GLU207     -0.2457
    151  N         32.8740  -29.0500  -39.0710 N.am  208  GLY208     -0.1940
    152  CA        33.1740  -29.5950  -40.3900 C.3   208  GLY208      0.2014
    153  C         32.5810  -28.7350  -41.4890 C.2   208  GLY208      0.2639
    154  O         32.4400  -27.5210  -41.3300 O.2   208  GLY208     -0.2714
    155  N         32.2410  -29.3700  -42.6080 N.am  209  CYS209     -0.1967
    156  CA        31.6160  -28.6880  -43.7360 C.3   209  CYS209      0.1712
    157  C         30.5000  -29.5480  -44.3320 C.2   209  CYS209      0.2296
    158  O         30.7300  -30.6930  -44.7340 O.2   209  CYS209     -0.2864
    159  CB        32.6620  -28.3210  -44.8010 C.3   209  CYS209      0.0983
    160  SG        33.9310  -27.1610  -44.2300 S.3   209  CYS209     -0.0798
    161  N         28.0830  -31.1660  -43.0630 N.3   211  ARG211     -0.1245
    162  CA        27.6950  -32.3730  -42.3230 C.3   211  ARG211      0.1563
    163  C         26.2090  -32.3870  -41.9870 C.2   211  ARG211      0.2260
    164  O         25.6390  -31.3520  -41.6400 O.2   211  ARG211     -0.2867
    165  CB        28.5100  -32.5160  -41.0360 C.3   211  ARG211      0.0307
    166  CG        29.9750  -32.8570  -41.2410 C.3   211  ARG211      0.0489
    167  CD        30.6280  -33.2180  -39.9180 C.3   211  ARG211      0.2205
    168  NE        32.0840  -33.2830  -40.0180 N.pl3 211  ARG211     -0.0865
    169  CZ        32.9040  -33.4430  -38.9820 C.cat 211  ARG211      0.5346
    170  NH1       32.4210  -33.5560  -37.7500 N.pl3 211  ARG211      0.1354
    171  NH2       34.2150  -33.4860  -39.1770 N.pl3 211  ARG211      0.1354
    172  N         26.1330  -23.9030  -40.4090 N.3   216  GLY216     -0.1210
    173  CA        27.2140  -22.9260  -40.4050 C.3   216  GLY216      0.1956
    174  C         26.9730  -21.8840  -39.3300 C.2   216  GLY216      0.2612
    175  O         25.8390  -21.4380  -39.1350 O.2   216  GLY216     -0.2717
    176  N         28.0380  -21.5010  -38.6280 N.am  217  ILE217     -0.1965
    177  CA        27.9430  -20.5080  -37.5580 C.3   217  ILE217      0.1727
    178  C         28.6050  -19.1990  -37.9850 C.2   217  ILE217      0.2616
    179  O         29.7480  -19.1890  -38.4550 O.2   217  ILE217     -0.2715
    180  CB        28.5660  -21.0090  -36.2270 C.3   217  ILE217      0.0290
    181  CG1       28.2320  -22.4890  -35.9620 C.3   217  ILE217      0.0022
    182  CG2       28.1640  -20.1050  -35.0630 C.3   217  ILE217      0.0023
    183  CD1       26.7640  -22.8010  -35.7470 C.3   217  ILE217      0.0001
    184  N         27.8740  -18.1020  -37.8090 N.am  218  TYR218     -0.1974
    185  CA        28.3190  -16.7860  -38.2470 C.3   218  TYR218      0.1639
    186  C         28.3150  -15.7860  -37.0940 C.2   218  TYR218      0.2290
    187  O         27.5130  -15.9020  -36.1650 O.2   218  TYR218     -0.2864
    188  CB        27.4220  -16.2780  -39.3800 C.3   218  TYR218      0.0560
    189  CG        27.3930  -17.1670  -40.6070 C.ar  218  TYR218     -0.0198
    190  CD1       26.5250  -18.2590  -40.6870 C.ar  218  TYR218     -0.0009
    191  CD2       28.2250  -16.9100  -41.6930 C.ar  218  TYR218     -0.0009
    192  CE1       26.4990  -19.0740  -41.8080 C.ar  218  TYR218      0.0417
    193  CE2       28.2030  -17.7190  -42.8180 C.ar  218  TYR218      0.0417
    194  CZ        27.3390  -18.7970  -42.8730 C.ar  218  TYR218      0.1957
    195  OH        27.3170  -19.5990  -43.9930 O.3   218  TYR218     -0.2866
@<TRIPOS>BOND
     1    80    79    2
     2    77    78    1
     3    57    58    1
     4    79    78    1
     5    79    85   am
     6    99    98    2
     7    78    81    1
     8    94    95    1
     9    94    91    1
    10    86    85    1
    11    86    87    1
    12    86    89    1
    13    58    59    1
    14    58    61    1
    15    59    60    2
    16    95   160    1
    17    90    87   am
    18    90    91    1
    19    98    97    1
    20    81    82    1
    21    87    88    2
    22    91    92    1
    23    93    92    2
    24    92    96   am
    25    61    62    1
    26   159   160    1
    27   159   156    1
    28   158   157    2
    29    96    97    1
    30    97   100    1
    31   157   156    1
    32    82    83   ar
    33    82    84   ar
    34   105   106    1
    35   117   115    1
    36   195   194    1
    37   100   101    1
    38   156   155    1
    39   108   107    2
    40    62    63    1
    41   101   102    1
    42   103   102    2
    43   161   162    1
    44   107   106    1
    45   115   116    1
    46   115   112    1
    47   194   193   ar
    48   194   192   ar
    49   102   104   am
    50   106   109    1
    51   193   191   ar
    52    64    63   ar
    53    63    65   ar
    54   155   153   am
    55   162   163    1
    56   162   165    1
    57   110   109    1
    58   163   164    2
    59   192   190   ar
    60   191   189   ar
    61   111   112    1
    62   112   113    1
    63   153   154    2
    64   153   152    1
    65   166   165    1
    66   166   167    1
    67    14    13    2
    68   190   189   ar
    69    18    17    2
    70   189   188    1
    71   114   113    2
    72   113   118   am
    73   172   173    1
    74   173   174    1
    75   152   151    1
    76    13    12    1
    77   168   167    1
    78   168   169    2
    79    17    19   am
    80    17    16    1
    81    15    16    1
    82    15    12    1
    83   118   119    1
    84   188   185    1
    85   174   175    2
    86   174   176   am
    87   171   169    1
    88    12    11    1
    89   151   144   am
    90   169   170    1
    91   145   144    2
    92    10     9   ar
    93    10     8   ar
    94   176   177    1
    95   179   178    2
    96   144   143    1
    97   121   120    2
    98   119   120    1
    99   119   122    1
   100   127   126    2
   101   185   184    1
   102   185   186    1
   103     9     7   ar
   104   120   124   am
   105   139   138    1
   106   139   140    1
   107   126   138   am
   108   126   125    1
   109   124   125    1
   110   178   184   am
   111   178   177    1
   112   141   140    2
   113   125   128    1
   114   140   142   am
   115     8     6   ar
   116   177   180    1
   117   142   143    1
   118   143   146    1
   119   186   187    2
   120     7     6   ar
   121   122   123    1
   122     3     4    2
   123     3     2    1
   124     6     5    1
   125   128   129    1
   126   180   181    1
   127   180   182    1
   128   146   147    1
   129   181   183    1
   130     1     2    1
   131     2     5    1
   132   129   130   ar
   133   129   131   ar
   134    54    52   ar
   135    54    55   ar
   136    56    55    1
   137   147   148    1
   138   134   131   ar
   139   134   136   ar
   140   130   132   ar
   141   131   133   ar
   142    52    50   ar
   143    55    53   ar
   144   136   137   ar
   145   148   149   ar
   146   148   150   ar
   147   132   133   ar
   148   133   135   ar
   149    50    51   ar
   150    50    49    1
   151    53    51   ar
   152   137   135   ar
   153    49    46    1
   154    28    27    1
   155    48    47    2
   156    75    73   ar
   157    75    76   ar
   158    73    71   ar
   159    46    47    1
   160    46    45    1
   161    27    26    1
   162    76    74   ar
   163    41    40    2
   164    24    21    1
   165    24    25    1
   166    71    70    1
   167    71    72   ar
   168    23    22    2
   169    45    40   am
   170    26    25    1
   171    70    67    1
   172    40    39    1
   173    21    22    1
   174    21    20    1
   175    74    72   ar
   176    66    67    1
   177    69    68    2
   178    22    29   am
   179    67    68    1
   180    39    38    1
   181    39    42    1
   182    38    31   am
   183    32    31    2
   184    29    30    1
   185    31    30    1
   186    42    43    1
   187    42    44    1
   188    30    33    1
   189    33    34    1
   190    37    35   ar
   191    36    35   ar
   192    35    34    1
