@<TRIPOS>MOLECULE
tmp/4btwB03.pdb
 111 108 0 0 0
SMALL
GASTEIGER

@<TRIPOS>ATOM
      1  N         79.2080  141.4030   -7.2760 N.3   117  PHE117     -0.1241
      2  CA        79.0720  139.9920   -7.6400 C.3   117  PHE117      0.1605
      3  C         80.4340  139.4880   -8.0980 C.2   117  PHE117      0.2264
      4  O         81.0420  138.6640   -7.4230 O.2   117  PHE117     -0.2867
      5  CB        78.0320  139.8000   -8.7560 C.3   117  PHE117      0.0534
      6  CG        76.6510  140.3050   -8.4100 C.ar  117  PHE117     -0.0203
      7  CD1       76.2370  140.4520   -7.0710 C.ar  117  PHE117     -0.0042
      8  CD2       75.7460  140.6200   -9.4340 C.ar  117  PHE117     -0.0042
      9  CE1       74.9580  140.9060   -6.7730 C.ar  117  PHE117     -0.0003
     10  CE2       74.4700  141.0880   -9.1320 C.ar  117  PHE117     -0.0003
     11  CZ        74.0770  141.2250   -7.8010 C.ar  117  PHE117     -0.0000
     12  N         82.7520  138.6730   -5.3960 N.3   120  TYR120     -0.1227
     13  CA        82.5070  137.3280   -4.8640 C.3   120  TYR120      0.1736
     14  C         82.9960  136.2870   -5.8410 C.2   120  TYR120      0.2595
     15  O         83.7260  135.3660   -5.4610 O.2   120  TYR120     -0.2718
     16  CB        81.0380  137.0790   -4.6420 C.3   120  TYR120      0.0548
     17  CG        80.4800  137.8720   -3.5140 C.ar  120  TYR120     -0.0200
     18  CD1       80.9370  137.6770   -2.2160 C.ar  120  TYR120     -0.0009
     19  CD2       79.4880  138.8040   -3.7290 C.ar  120  TYR120     -0.0009
     20  CE1       80.4050  138.3970   -1.1590 C.ar  120  TYR120      0.0417
     21  CE2       78.9580  139.5250   -2.6790 C.ar  120  TYR120      0.0417
     22  CZ        79.4190  139.3280   -1.3990 C.ar  120  TYR120      0.1957
     23  OH        78.8950  140.0790   -0.3700 O.3   120  TYR120     -0.2866
     24  N         82.5890  136.4510   -7.0980 N.am  121  LEU121     -0.1980
     25  CA        82.9560  135.5460   -8.1700 C.3   121  LEU121      0.1596
     26  C         84.4650  135.2570   -8.2050 C.2   121  LEU121      0.2287
     27  O         84.8760  134.0910   -8.2540 O.2   121  LEU121     -0.2864
     28  CB        82.4870  136.1220   -9.4920 C.3   121  LEU121      0.0297
     29  CG        82.2800  135.0750  -10.5880 C.3   121  LEU121      0.0022
     30  CD1       81.2360  135.5810  -11.5950 C.3   121  LEU121      0.0001
     31  CD2       83.6020  134.6580  -11.2640 C.3   121  LEU121      0.0001
     32  N         85.7210  133.3600   -4.9880 N.3   124  ASP124     -0.1239
     33  CA        85.4910  131.9280   -5.0170 C.3   124  ASP124      0.1674
     34  C         86.5880  131.2040   -5.8070 C.2   124  ASP124      0.2266
     35  O         87.0620  130.1630   -5.3590 O.2   124  ASP124     -0.2867
     36  CB        84.0890  131.6120   -5.5190 C.3   124  ASP124      0.1410
     37  CG        83.0090  131.8950   -4.4640 C.2   124  ASP124      0.3668
     38  OD1       83.3230  132.2200   -3.2900 O.co2 124  ASP124     -0.2456
     39  OD2       81.8250  131.7840   -4.8290 O.co2 124  ASP124     -0.2456
     40  N         80.1170  128.8170   -0.6150 N.3   154  THR154     -0.1203
     41  CA        80.4320  129.8540    0.3790 C.3   154  THR154      0.1994
     42  C         79.3020  130.7940    0.7550 C.2   154  THR154      0.2618
     43  O         78.4170  131.1040   -0.0600 O.2   154  THR154     -0.2717
     44  CB        81.5110  130.8330   -0.1390 C.3   154  THR154      0.1784
     45  OG1       81.4050  130.9920   -1.5730 O.3   154  THR154     -0.2211
     46  CG2       82.8970  130.3760    0.2840 C.3   154  THR154      0.0376
     47  N         79.3860  131.3350    1.9670 N.am  155  MET155     -0.1965
     48  CA        78.4550  132.3950    2.3450 C.3   155  MET155      0.1736
     49  C         79.1010  133.5380    3.1230 C.2   155  MET155      0.2617
     50  O         79.7080  133.3440    4.1790 O.2   155  MET155     -0.2715
     51  CB        77.2720  131.8370    3.1300 C.3   155  MET155      0.0427
     52  CG        76.0490  132.7240    3.0640 C.3   155  MET155      0.0599
     53  SD        74.7400  132.0590    4.0950 S.3   155  MET155     -0.1393
     54  CE        75.0240  132.7570    5.7370 C.3   155  MET155      0.0692
     55  N         78.9040  134.7400    2.5960 N.am  156  THR156     -0.1951
     56  CA        79.5340  135.9290    3.1250 C.3   156  THR156      0.1897
     57  C         79.1280  136.1440    4.5280 C.2   156  THR156      0.2313
     58  O         78.0610  135.7070    4.9300 O.2   156  THR156     -0.2863
     59  CB        79.0390  137.1890    2.4300 C.3   156  THR156      0.1794
     60  OG1       78.8970  136.9450    1.0310 O.3   156  THR156     -0.2208
     61  CG2       80.0050  138.2900    2.6430 C.3   156  THR156      0.0378
     62  N         84.1450  133.4710    5.5110 N.3   171  PHE171     -0.1241
     63  CA        83.2070  132.6820    4.7350 C.3   171  PHE171      0.1605
     64  C         83.0900  131.3160    5.3540 C.2   171  PHE171      0.2264
     65  O         84.0600  130.7590    5.8420 O.2   171  PHE171     -0.2867
     66  CB        83.6740  132.5200    3.3000 C.3   171  PHE171      0.0534
     67  CG        83.5460  133.7580    2.5050 C.ar  171  PHE171     -0.0203
     68  CD1       84.4660  134.7690    2.6410 C.ar  171  PHE171     -0.0042
     69  CD2       82.4890  133.9320    1.6340 C.ar  171  PHE171     -0.0042
     70  CE1       84.3540  135.9350    1.9040 C.ar  171  PHE171     -0.0003
     71  CE2       82.3640  135.0940    0.8870 C.ar  171  PHE171     -0.0003
     72  CZ        83.3020  136.0950    1.0260 C.ar  171  PHE171     -0.0000
     73  N         73.4370  145.2520    1.5360 N.3   333  PHE333     -0.1241
     74  CA        73.3060  144.4600    0.3010 C.3   333  PHE333      0.1605
     75  C         72.1030  144.9700   -0.4890 C.2   333  PHE333      0.2264
     76  O         72.1910  145.1540   -1.7140 O.2   333  PHE333     -0.2867
     77  CB        73.0890  142.9570    0.6080 C.3   333  PHE333      0.0534
     78  CG        74.0510  142.3760    1.6190 C.ar  333  PHE333     -0.0203
     79  CD1       75.3350  142.0060    1.2510 C.ar  333  PHE333     -0.0042
     80  CD2       73.6550  142.1670    2.9220 C.ar  333  PHE333     -0.0042
     81  CE1       76.2090  141.4880    2.1710 C.ar  333  PHE333     -0.0003
     82  CE2       74.5170  141.6340    3.8460 C.ar  333  PHE333     -0.0003
     83  CZ        75.7990  141.3120    3.4700 C.ar  333  PHE333     -0.0000
     84  N         67.2210  142.9000   -3.3820 N.3   338  TYR338     -0.1241
     85  CA        66.9430  141.5230   -3.1290 C.3   338  TYR338      0.1605
     86  C         65.4770  141.2530   -2.7790 C.2   338  TYR338      0.2264
     87  O         65.1550  140.2960   -2.0640 O.2   338  TYR338     -0.2867
     88  CB        67.8520  141.0800   -2.0140 C.3   338  TYR338      0.0534
     89  CG        69.2770  140.9650   -2.4510 C.ar  338  TYR338     -0.0201
     90  CD1       69.6850  139.9070   -3.2630 C.ar  338  TYR338     -0.0009
     91  CD2       70.2230  141.8830   -2.0450 C.ar  338  TYR338     -0.0009
     92  CE1       71.0070  139.7650   -3.6570 C.ar  338  TYR338      0.0417
     93  CE2       71.5510  141.7560   -2.4350 C.ar  338  TYR338      0.0417
     94  CZ        71.9370  140.6980   -3.2450 C.ar  338  TYR338      0.1957
     95  OH        73.2470  140.5800   -3.6460 O.3   338  TYR338     -0.2866
     96  N         67.4190  137.6610    1.5080 N.3   412  LEU412     -0.1231
     97  CA        68.8100  137.9730    1.7060 C.3   412  LEU412      0.1693
     98  C         69.5250  136.8070    2.3500 C.2   412  LEU412      0.2591
     99  O         69.5450  136.6810    3.5880 O.2   412  LEU412     -0.2718
    100  CB        68.9320  139.1780    2.6270 C.3   412  LEU412      0.0284
    101  CG        68.5630  140.5400    2.0430 C.3   412  LEU412      0.0019
    102  CD1       68.8560  141.5200    3.1430 C.3   412  LEU412      0.0001
    103  CD2       69.3400  140.9510    0.8010 C.3   412  LEU412      0.0001
    104  N         70.1400  135.9730    1.5060 N.am  413  LEU413     -0.1980
    105  CA        70.7900  134.7550    1.9690 C.3   413  LEU413      0.1596
    106  C         69.7600  133.8090    2.5930 C.2   413  LEU413      0.2287
    107  O         68.8240  133.3570    1.9340 O.2   413  LEU413     -0.2864
    108  CB        71.8970  135.0770    2.9910 C.3   413  LEU413      0.0297
    109  CG        73.0980  135.8930    2.5210 C.3   413  LEU413      0.0022
    110  CD1       73.9680  136.2560    3.7420 C.3   413  LEU413      0.0001
    111  CD2       73.8710  135.1400    1.4290 C.3   413  LEU413      0.0001
@<TRIPOS>BOND
     1    30    29    1
     2    31    29    1
     3    29    28    1
     4    28    25    1
     5     8    10   ar
     6     8     6   ar
     7    10    11   ar
     8     5     6    1
     9     5     2    1
    10     6     7   ar
    11    27    26    2
    12    26    25    1
    13    25    24    1
    14     3     2    1
    15     3     4    2
    16    11     9   ar
    17     2     1    1
    18    24    14   am
    19     7     9   ar
    20    14    15    2
    21    14    13    1
    22    34    35    2
    23    34    33    1
    24    36    33    1
    25    36    37    1
    26    12    13    1
    27    33    32    1
    28    13    16    1
    29    39    37   ar
    30    16    17    1
    31    37    38   ar
    32    19    17   ar
    33    19    21   ar
    34    92    90   ar
    35    92    94   ar
    36    95    94    1
    37    17    18   ar
    38    84    85    1
    39    90    89   ar
    40    94    93   ar
    41    85    86    1
    42    85    88    1
    43    86    87    2
    44    21    22   ar
    45    89    91   ar
    46    89    88    1
    47    93    91   ar
    48    18    20   ar
    49    76    75    2
    50    45    44    1
    51    22    20   ar
    52    22    23    1
    53    40    41    1
    54    75    74    1
    55    44    46    1
    56    44    41    1
    57    43    42    2
    58    74    77    1
    59    74    73    1
    60    41    42    1
    61    77    78    1
    62    42    47   am
    63   103   101    1
    64    71    72   ar
    65    71    69   ar
    66    72    70   ar
    67    60    59    1
    68    79    78   ar
    69    79    81   ar
    70   111   109    1
    71   104   105    1
    72   104    98   am
    73    96    97    1
    74    78    80   ar
    75    69    67   ar
    76    97    98    1
    77    97   100    1
    78    70    68   ar
    79   107   106    2
    80    47    48    1
    81   105   106    1
    82   105   108    1
    83   101   100    1
    84   101   102    1
    85    81    83   ar
    86    48    49    1
    87    48    51    1
    88    98    99    2
    89    59    61    1
    90    59    56    1
    91    67    68   ar
    92    67    66    1
    93   109   108    1
    94   109   110    1
    95    55    49   am
    96    55    56    1
    97    80    82   ar
    98    52    51    1
    99    52    53    1
   100    49    50    2
   101    56    57    1
   102    66    63    1
   103    83    82   ar
   104    53    54    1
   105    57    58    2
   106    63    64    1
   107    63    62    1
   108    64    65    2
