@<TRIPOS>MOLECULE
tmp/4btxA02.pdb
 111 108 0 0 0
SMALL
GASTEIGER

@<TRIPOS>ATOM
      1  N         95.2730   56.6490   38.3840 N.3   120  PHE120     -0.1241
      2  CA        96.2060   55.8810   37.5780 C.3   120  PHE120      0.1605
      3  C         97.3410   55.2280   38.4180 C.2   120  PHE120      0.2264
      4  O         97.5700   54.0300   38.3100 O.2   120  PHE120     -0.2867
      5  CB        96.7930   56.7560   36.4680 C.3   120  PHE120      0.0534
      6  CG        95.7730   57.2820   35.4870 C.ar  120  PHE120     -0.0203
      7  CD1       94.6470   56.5410   35.1420 C.ar  120  PHE120     -0.0042
      8  CD2       95.9570   58.5150   34.8850 C.ar  120  PHE120     -0.0042
      9  CE1       93.7310   57.0250   34.2220 C.ar  120  PHE120     -0.0003
     10  CE2       95.0420   59.0060   33.9780 C.ar  120  PHE120     -0.0003
     11  CZ        93.9270   58.2600   33.6440 C.ar  120  PHE120     -0.0000
     12  N         96.0560   52.3590   40.4860 N.3   123  TYR123     -0.1227
     13  CA        95.9450   51.1820   39.6310 C.3   123  TYR123      0.1736
     14  C         97.3120   50.4920   39.4440 C.2   123  TYR123      0.2595
     15  O         97.3980   49.2650   39.5350 O.2   123  TYR123     -0.2718
     16  CB        95.2620   51.4960   38.2740 C.3   123  TYR123      0.0548
     17  CG        93.7720   51.7620   38.3860 C.ar  123  TYR123     -0.0200
     18  CD1       92.9170   50.8430   38.9850 C.ar  123  TYR123     -0.0009
     19  CD2       93.2120   52.9370   37.9020 C.ar  123  TYR123     -0.0009
     20  CE1       91.5510   51.0940   39.1040 C.ar  123  TYR123      0.0417
     21  CE2       91.8490   53.1940   38.0190 C.ar  123  TYR123      0.0417
     22  CZ        91.0210   52.2750   38.6150 C.ar  123  TYR123      0.1957
     23  OH        89.6710   52.5300   38.7220 O.3   123  TYR123     -0.2866
     24  N         98.3710   51.2610   39.2150 N.am  124  LEU124     -0.1980
     25  CA        99.7050   50.6690   39.0440 C.3   124  LEU124      0.1596
     26  C        100.2400   50.0510   40.3230 C.2   124  LEU124      0.2287
     27  O        100.8010   48.9860   40.2640 O.2   124  LEU124     -0.2864
     28  CB       100.7120   51.6880   38.5410 C.3   124  LEU124      0.0297
     29  CG       100.4200   52.3130   37.1830 C.3   124  LEU124      0.0022
     30  CD1      101.1810   53.6240   37.0860 C.3   124  LEU124      0.0001
     31  CD2      100.7800   51.4020   36.0240 C.3   124  LEU124      0.0001
     32  N         98.5040   46.7570   40.7020 N.3   127  ASP127     -0.1239
     33  CA        99.0530   45.8030   39.7420 C.3   127  ASP127      0.1674
     34  C        100.4870   45.3390   39.9890 C.2   127  ASP127      0.2266
     35  O        100.9580   44.4390   39.3150 O.2   127  ASP127     -0.2867
     36  CB        98.9480   46.3720   38.3320 C.3   127  ASP127      0.1410
     37  CG        97.5720   46.2100   37.7620 C.2   127  ASP127      0.3668
     38  OD1       96.6250   46.0210   38.5610 O.co2 127  ASP127     -0.2456
     39  OD2       97.4360   46.2550   36.5220 O.co2 127  ASP127     -0.2456
     40  N         94.7750   43.1180   34.3610 N.3   157  THR157     -0.1203
     41  CA        93.6100   43.2350   35.2430 C.3   157  THR157      0.1994
     42  C         92.5690   44.2300   34.7250 C.2   157  THR157      0.2618
     43  O         92.8040   44.9480   33.7280 O.2   157  THR157     -0.2717
     44  CB        93.9980   43.6520   36.6600 C.3   157  THR157      0.1784
     45  OG1       94.9560   44.7120   36.6000 O.3   157  THR157     -0.2211
     46  CG2       94.5930   42.5040   37.3610 C.3   157  THR157      0.0376
     47  N         91.4150   44.2380   35.4050 N.am  158  MET158     -0.1965
     48  CA        90.3280   45.1770   35.1280 C.3   158  MET158      0.1736
     49  C         89.4790   45.3370   36.3790 C.2   158  MET158      0.2617
     50  O         89.2640   44.3870   37.1180 O.2   158  MET158     -0.2715
     51  CB        89.4870   44.7030   33.9430 C.3   158  MET158      0.0427
     52  CG        88.2050   45.5080   33.7140 C.3   158  MET158      0.0599
     53  SD        87.5110   45.2550   32.0550 S.3   158  MET158     -0.1393
     54  CE        85.8140   45.0370   32.5410 C.3   158  MET158      0.0692
     55  N         88.9940   46.5440   36.6090 N.am  159  THR159     -0.1951
     56  CA        88.4100   46.8910   37.9000 C.3   159  THR159      0.1897
     57  C         86.9270   46.6940   37.8670 C.2   159  THR159      0.2313
     58  O         86.3880   46.3950   36.8150 O.2   159  THR159     -0.2863
     59  CB        88.6940   48.3630   38.2760 C.3   159  THR159      0.1794
     60  OG1       87.8070   48.7930   39.3250 O.3   159  THR159     -0.2208
     61  CG2       88.5140   49.2660   37.0700 C.3   159  THR159      0.0378
     62  N         89.1570   42.2130   41.1070 N.3   174  PHE174     -0.1241
     63  CA        89.7640   42.3480   39.7890 C.3   174  PHE174      0.1605
     64  C         89.7610   41.0120   39.0540 C.2   174  PHE174      0.2264
     65  O         90.2020   39.9920   39.5740 O.2   174  PHE174     -0.2867
     66  CB        91.2140   42.8290   39.8820 C.3   174  PHE174      0.0534
     67  CG        91.3740   44.2740   40.2530 C.ar  174  PHE174     -0.0203
     68  CD1       91.3520   44.6740   41.5920 C.ar  174  PHE174     -0.0042
     69  CD2       91.6090   45.2360   39.2670 C.ar  174  PHE174     -0.0042
     70  CE1       91.5220   46.0100   41.9330 C.ar  174  PHE174     -0.0003
     71  CE2       91.7780   46.5780   39.6080 C.ar  174  PHE174     -0.0003
     72  CZ        91.7270   46.9650   40.9400 C.ar  174  PHE174     -0.0000
     73  N         84.3810   57.5430   36.9920 N.3   336  PHE336     -0.1241
     74  CA        85.5680   57.5010   36.1500 C.3   336  PHE336      0.1605
     75  C         85.5850   58.7420   35.2640 C.2   336  PHE336      0.2264
     76  O         86.6170   59.3800   35.1220 O.2   336  PHE336     -0.2867
     77  CB        85.5880   56.2470   35.2530 C.3   336  PHE336      0.0534
     78  CG        85.4120   54.9610   35.9990 C.ar  336  PHE336     -0.0203
     79  CD1       86.0830   54.7300   37.2010 C.ar  336  PHE336     -0.0042
     80  CD2       84.5890   53.9670   35.5010 C.ar  336  PHE336     -0.0042
     81  CE1       85.9150   53.5380   37.8920 C.ar  336  PHE336     -0.0003
     82  CE2       84.4190   52.7790   36.1900 C.ar  336  PHE336     -0.0003
     83  CZ        85.0770   52.5670   37.3830 C.ar  336  PHE336     -0.0000
     84  N         87.1730   60.2280   29.6980 N.3   341  TYR341     -0.1241
     85  CA        87.3720   59.0420   28.8560 C.3   341  TYR341      0.1605
     86  C         86.7930   59.2250   27.4760 C.2   341  TYR341      0.2264
     87  O         86.5840   58.2710   26.7560 O.2   341  TYR341     -0.2867
     88  CB        86.8190   57.7790   29.5300 C.3   341  TYR341      0.0534
     89  CG        87.6680   57.3170   30.7060 C.ar  341  TYR341     -0.0201
     90  CD1       88.7740   56.4780   30.5190 C.ar  341  TYR341     -0.0009
     91  CD2       87.3730   57.7230   32.0070 C.ar  341  TYR341     -0.0009
     92  CE1       89.5540   56.0480   31.5950 C.ar  341  TYR341      0.0417
     93  CE2       88.1350   57.2930   33.0820 C.ar  341  TYR341      0.0417
     94  CZ        89.2250   56.4560   32.8810 C.ar  341  TYR341      0.1957
     95  OH        89.9710   56.0560   33.9830 O.3   341  TYR341     -0.2866
     96  N         84.6230   53.7140   27.9870 N.3   415  LEU415     -0.1231
     97  CA        85.0520   53.2660   29.3020 C.3   415  LEU415      0.1693
     98  C         85.1850   51.7530   29.3710 C.2   415  LEU415      0.2591
     99  O         84.2080   51.0100   29.1420 O.2   415  LEU415     -0.2718
    100  CB        84.0940   53.7160   30.3900 C.3   415  LEU415      0.0284
    101  CG        84.0740   55.2190   30.5920 C.3   415  LEU415      0.0019
    102  CD1       82.9090   55.8240   29.8120 C.3   415  LEU415      0.0001
    103  CD2       83.9590   55.5370   32.0710 C.3   415  LEU415      0.0001
    104  N         86.3940   51.3260   29.7470 N.am  416  LEU416     -0.1980
    105  CA        86.7790   49.9510   29.7180 C.3   416  LEU416      0.1596
    106  C         86.3330   49.4210   28.3610 C.2   416  LEU416      0.2287
    107  O         86.8370   49.8620   27.2980 O.2   416  LEU416     -0.2864
    108  CB        86.1250   49.2330   30.8850 C.3   416  LEU416      0.0297
    109  CG        86.5390   49.7430   32.2560 C.3   416  LEU416      0.0022
    110  CD1       85.6800   49.1360   33.3440 C.3   416  LEU416      0.0001
    111  CD2       87.9800   49.4140   32.5740 C.3   416  LEU416      0.0001
@<TRIPOS>BOND
     1    87    86    2
     2   107   106    2
     3    86    85    1
     4    96    97    1
     5   106   105    1
     6    85    88    1
     7    85    84    1
     8    99    98    2
     9    97    98    1
    10    97   100    1
    11    98   104   am
    12    88    89    1
    13   105   104    1
    14   105   108    1
    15   102   101    1
    16   100   101    1
    17    90    89   ar
    18    90    92   ar
    19   101   103    1
    20    89    91   ar
    21   108   109    1
    22    92    94   ar
    23    91    93   ar
    24    53    54    1
    25    53    52    1
    26   109   111    1
    27   109   110    1
    28    94    93   ar
    29    94    95    1
    30    11    10   ar
    31    11     9   ar
    32    52    51    1
    33    43    42    2
    34    51    48    1
    35    10     8   ar
    36     9     7   ar
    37    40    41    1
    38    42    41    1
    39    42    47   am
    40     8     6   ar
    41    76    75    2
    42    48    47    1
    43    48    49    1
    44     7     6   ar
    45    41    44    1
    46    77    78    1
    47    77    74    1
    48    75    74    1
    49     6     5    1
    50    80    78   ar
    51    80    82   ar
    52    78    79   ar
    53    31    29    1
    54    74    73    1
    55    82    83   ar
    56    49    55   am
    57    49    50    2
    58     5     2    1
    59    39    37   ar
    60    45    44    1
    61    55    56    1
    62    44    46    1
    63    58    57    2
    64    61    59    1
    65    30    29    1
    66    29    28    1
    67    79    81   ar
    68    83    81   ar
    69     2     1    1
    70     2     3    1
    71    37    36    1
    72    37    38   ar
    73    57    56    1
    74    56    59    1
    75    19    21   ar
    76    19    17   ar
    77    21    22   ar
    78    16    17    1
    79    16    13    1
    80    59    60    1
    81     4     3    2
    82    36    33    1
    83    17    18   ar
    84    28    25    1
    85    22    23    1
    86    22    20   ar
    87    18    20   ar
    88    25    24    1
    89    25    26    1
    90    64    65    2
    91    64    63    1
    92    24    14   am
    93    69    71   ar
    94    69    67   ar
    95    35    34    2
    96    14    15    2
    97    14    13    1
    98    71    72   ar
    99    13    12    1
   100    33    34    1
   101    33    32    1
   102    63    66    1
   103    63    62    1
   104    66    67    1
   105    67    68   ar
   106    27    26    2
   107    72    70   ar
   108    68    70   ar
