@<TRIPOS>MOLECULE
tmp/4btyA00.pdb
 91 84 0 0 0
SMALL
GASTEIGER

@<TRIPOS>ATOM
      1  N         99.5510   78.4590   45.8940 N.3    26  ARG26      -0.1231
      2  CA        98.7880   78.6790   47.1230 C.3    26  ARG26       0.1694
      3  C         98.5640   77.4090   47.9590 C.2    26  ARG26       0.2591
      4  O         97.7690   77.4120   48.8970 O.2    26  ARG26      -0.2718
      5  CB        97.4370   79.3360   46.7790 C.3    26  ARG26       0.0321
      6  CG        97.0370   80.5480   47.6390 C.3    26  ARG26       0.0489
      7  CD        96.2480   81.6060   46.8530 C.3    26  ARG26       0.2205
      8  NE        97.1080   82.5050   46.0570 N.pl3  26  ARG26      -0.0865
      9  CZ        97.5730   82.2590   44.8250 C.cat  26  ARG26       0.5346
     10  NH1       97.2910   81.1410   44.1780 N.pl3  26  ARG26       0.1354
     11  NH2       98.3410   83.1390   44.2150 N.pl3  26  ARG26       0.1354
     12  N         99.2640   76.3310   47.6220 N.am   27  LEU27      -0.1980
     13  CA        99.1450   75.0580   48.3370 C.3    27  LEU27       0.1596
     14  C        100.5080   74.5690   48.7900 C.2    27  LEU27       0.2287
     15  O        100.6220   73.9780   49.8760 O.2    27  LEU27      -0.2864
     16  CB        98.5160   74.0320   47.4160 C.3    27  LEU27       0.0297
     17  CG        97.0960   74.3590   46.9720 C.3    27  LEU27       0.0022
     18  CD1       96.6550   73.3840   45.8960 C.3    27  LEU27       0.0001
     19  CD2       96.1480   74.3160   48.1580 C.3    27  LEU27       0.0001
     20  N         93.6860   65.8300   49.7940 N.3    78  PHE78      -0.1241
     21  CA        94.5860   66.1520   50.8870 C.3    78  PHE78       0.1605
     22  C         94.9290   64.9170   51.7040 C.2    78  PHE78       0.2264
     23  O         94.3600   64.6790   52.7630 O.2    78  PHE78      -0.2867
     24  CB        94.0070   67.2660   51.7410 C.3    78  PHE78       0.0534
     25  CG        93.9570   68.5720   51.0250 C.ar   78  PHE78      -0.0203
     26  CD1       95.1260   69.1650   50.5950 C.ar   78  PHE78      -0.0042
     27  CD2       92.7480   69.1940   50.7440 C.ar   78  PHE78      -0.0042
     28  CE1       95.1010   70.3630   49.9140 C.ar   78  PHE78      -0.0003
     29  CE2       92.7170   70.3930   50.0600 C.ar   78  PHE78      -0.0003
     30  CZ        93.9010   70.9770   49.6460 C.ar   78  PHE78      -0.0000
     31  N         98.1250   64.3460   55.6240 N.3    81  GLN81      -0.1245
     32  CA        97.6090   64.9500   56.8330 C.3    81  GLN81       0.1566
     33  C         96.9680   63.9400   57.7830 C.2    81  GLN81       0.2260
     34  O         96.7120   62.7960   57.4010 O.2    81  GLN81      -0.2867
     35  CB        96.5920   66.0650   56.5100 C.3    81  GLN81       0.0367
     36  CG        95.4290   65.6910   55.6080 C.3    81  GLN81       0.0905
     37  CD        94.5250   66.8840   55.3330 C.2    81  GLN81       0.2608
     38  OE1       94.9910   67.9150   54.8660 O.2    81  GLN81      -0.2717
     39  NE2       93.2320   66.7490   55.6120 N.am   81  GLN81      -0.0878
     40  N         93.7980   64.0150   59.0220 N.3    83  GLN83      -0.1245
     41  CA        92.4320   63.6500   58.6870 C.3    83  GLN83       0.1566
     42  C         92.1650   63.9900   57.2190 C.2    83  GLN83       0.2260
     43  O         91.4460   64.9530   56.9080 O.2    83  GLN83      -0.2867
     44  CB        91.4710   64.3550   59.6340 C.3    83  GLN83       0.0367
     45  CG        90.1260   63.6670   59.7530 C.3    83  GLN83       0.0905
     46  CD        89.3270   64.1660   60.9430 C.2    83  GLN83       0.2608
     47  OE1       88.9640   63.3930   61.8380 O.2    83  GLN83      -0.2717
     48  NE2       89.0590   65.4670   60.9680 N.am   83  GLN83      -0.0878
     49  N         91.1720   64.7600   53.5710 N.3    85  ASN85      -0.1240
     50  CA        89.8950   65.0770   52.9840 C.3    85  ASN85       0.1653
     51  C         90.0670   65.2540   51.4960 C.2    85  ASN85       0.2266
     52  O         91.1940   65.2710   50.9710 O.2    85  ASN85      -0.2867
     53  CB        89.2300   66.2910   53.6830 C.3    85  ASN85       0.1155
     54  CG        89.8500   67.6490   53.3150 C.2    85  ASN85       0.2627
     55  OD1       90.2460   67.8880   52.1810 O.2    85  ASN85      -0.2716
     56  ND2       89.8990   68.5560   54.2920 N.am   85  ASN85      -0.0877
     57  N         88.7050   67.9850   48.6290 N.3    87  SER87      -0.1217
     58  CA        88.1990   69.3260   48.6190 C.3    87  SER87       0.1889
     59  C         88.0070   69.8480   47.2170 C.2    87  SER87       0.2288
     60  O         88.7940   69.5810   46.2970 O.2    87  SER87      -0.2866
     61  CB        89.0900   70.2270   49.4520 C.3    87  SER87       0.2089
     62  OG        88.7660   70.0620   50.8250 O.3    87  SER87      -0.2183
     63  N         87.0540   77.6470   48.8820 N.3   102  ASP102     -0.1239
     64  CA        86.6360   76.2890   49.1760 C.3   102  ASP102      0.1674
     65  C         85.1190   76.2790   49.2700 C.2   102  ASP102      0.2266
     66  O         84.5230   77.0580   50.0110 O.2   102  ASP102     -0.2867
     67  CB        87.2840   75.8010   50.4900 C.3   102  ASP102      0.1410
     68  CG        86.7740   74.4290   50.9510 C.2   102  ASP102      0.3668
     69  OD1       85.6870   74.3650   51.5700 O.co2 102  ASP102     -0.2456
     70  OD2       87.4670   73.4150   50.7330 O.co2 102  ASP102     -0.2456
     71  N         83.5650   73.0230   49.3600 N.3   104  THR104     -0.1203
     72  CA        83.3660   71.6520   49.8080 C.3   104  THR104      0.1994
     73  C         82.2650   71.5270   50.8970 C.2   104  THR104      0.2617
     74  O         81.4680   70.6040   50.8670 O.2   104  THR104     -0.2717
     75  CB        84.7270   71.0780   50.2970 C.3   104  THR104      0.1784
     76  OG1       85.7270   71.2680   49.2860 O.3   104  THR104     -0.2211
     77  CG2       84.6420   69.5930   50.6350 C.3   104  THR104      0.0376
     78  N         82.2000   72.4570   51.8390 N.am  105  VAL105     -0.1979
     79  CA        81.1860   72.3830   52.8970 C.3   105  VAL105      0.1595
     80  C         79.9570   73.2010   52.5080 C.2   105  VAL105      0.2287
     81  O         78.8420   72.9140   52.9340 O.2   105  VAL105     -0.2864
     82  CB        81.7050   72.9250   54.2440 C.3   105  VAL105      0.0276
     83  CG1       80.9040   72.3330   55.3900 C.3   105  VAL105      0.0022
     84  CG2       83.1880   72.6330   54.4310 C.3   105  VAL105      0.0022
     85  N         83.4180   67.8790   55.3240 N.3   111  PRO111     -0.2116
     86  CA        84.4750   67.5520   54.3590 C.3   111  PRO111      0.1372
     87  C         84.0880   66.2900   53.6310 C.2   111  PRO111      0.2244
     88  O         83.1570   65.6050   54.0450 O.2   111  PRO111     -0.2868
     89  CB        85.6900   67.2840   55.2360 C.3   111  PRO111      0.0268
     90  CG        85.1150   66.8850   56.5770 C.3   111  PRO111      0.0207
     91  CD        83.7390   67.4790   56.7050 C.3   111  PRO111      0.0892
@<TRIPOS>BOND
     1    10     9    1
     2    11     9    1
     3     9     8    2
     4     1     2    1
     5    18    17    1
     6     8     7    1
     7    60    59    2
     8     5     2    1
     9     5     6    1
    10     7     6    1
    11    17    16    1
    12    17    19    1
    13     2     3    1
    14    59    58    1
    15    16    13    1
    16    12     3   am
    17    12    13    1
    18     3     4    2
    19    13    14    1
    20    58    57    1
    21    58    61    1
    22    14    15    2
    23    63    64    1
    24    64    65    1
    25    64    67    1
    26    65    66    2
    27    76    75    1
    28    71    72    1
    29    61    62    1
    30    30    28   ar
    31    30    29   ar
    32    20    21    1
    33    72    75    1
    34    72    73    1
    35    28    26   ar
    36    29    27   ar
    37    75    77    1
    38    67    68    1
    39    26    25   ar
    40    70    68   ar
    41    27    25   ar
    42    74    73    2
    43    21    22    1
    44    21    24    1
    45    73    78   am
    46    68    69   ar
    47    52    51    2
    48    25    24    1
    49    51    50    1
    50    22    23    2
    51    78    79    1
    52    55    54    2
    53    80    79    1
    54    80    81    2
    55    79    82    1
    56    50    49    1
    57    50    53    1
    58    54    53    1
    59    54    56   am
    60    87    88    2
    61    87    86    1
    62    82    84    1
    63    82    83    1
    64    86    89    1
    65    86    85    1
    66    38    37    2
    67    89    90    1
    68    85    91    1
    69    37    36    1
    70    37    39   am
    71    36    35    1
    72    31    32    1
    73    35    32    1
    74    90    91    1
    75    32    33    1
    76    43    42    2
    77    42    41    1
    78    34    33    2
    79    41    40    1
    80    41    44    1
    81    44    45    1
    82    45    46    1
    83    46    48   am
    84    46    47    2
