@<TRIPOS>MOLECULE
tmp/4btyA02.pdb
 152 147 0 0 0
SMALL
GASTEIGER

@<TRIPOS>ATOM
      1  N         99.6260   62.1570   38.5490 N.3    35  ALA35      -0.1245
      2  CA        99.9810   60.9850   37.7520 C.3    35  ALA35       0.1562
      3  C        101.0450   60.1580   38.4860 C.2    35  ALA35       0.2260
      4  O        101.1650   58.9610   38.2620 O.2    35  ALA35      -0.2867
      5  CB       100.4440   61.4050   36.3520 C.3    35  ALA35       0.0290
      6  N         95.3400   56.7150   38.6550 N.3   121  PHE121     -0.1241
      7  CA        96.1920   55.8760   37.8390 C.3   121  PHE121      0.1605
      8  C         97.3200   55.2760   38.6630 C.2   121  PHE121      0.2264
      9  O         97.6360   54.1070   38.5350 O.2   121  PHE121     -0.2867
     10  CB        96.8060   56.6890   36.7150 C.3   121  PHE121      0.0534
     11  CG        95.8030   57.2890   35.7700 C.ar  121  PHE121     -0.0203
     12  CD1       94.7230   56.5550   35.2970 C.ar  121  PHE121     -0.0042
     13  CD2       95.9560   58.5820   35.3280 C.ar  121  PHE121     -0.0042
     14  CE1       93.8100   57.1070   34.4080 C.ar  121  PHE121     -0.0003
     15  CE2       95.0470   59.1400   34.4530 C.ar  121  PHE121     -0.0003
     16  CZ        93.9800   58.4020   33.9900 C.ar  121  PHE121     -0.0000
     17  N         96.2240   52.3230   40.5740 N.3   124  TYR124     -0.1227
     18  CA        96.0080   51.1650   39.7110 C.3   124  TYR124      0.1736
     19  C         97.3270   50.4050   39.4750 C.2   124  TYR124      0.2595
     20  O         97.3440   49.1760   39.4120 O.2   124  TYR124     -0.2718
     21  CB        95.3600   51.5730   38.3720 C.3   124  TYR124      0.0548
     22  CG        93.8590   51.8200   38.4170 C.ar  124  TYR124     -0.0200
     23  CD1       92.9790   50.9100   38.9840 C.ar  124  TYR124     -0.0009
     24  CD2       93.3100   52.9320   37.8330 C.ar  124  TYR124     -0.0009
     25  CE1       91.5970   51.1300   39.0000 C.ar  124  TYR124      0.0417
     26  CE2       91.9290   53.1620   37.8660 C.ar  124  TYR124      0.0417
     27  CZ        91.0730   52.2490   38.4250 C.ar  124  TYR124      0.1957
     28  OH        89.7070   52.4780   38.4190 O.3   124  TYR124     -0.2866
     29  N         98.4330   51.1260   39.3720 N.am  125  LEU125     -0.1980
     30  CA        99.7040   50.4990   39.0600 C.3   125  LEU125      0.1596
     31  C        100.3110   49.8420   40.2660 C.2   125  LEU125      0.2287
     32  O        100.8670   48.7630   40.1520 O.2   125  LEU125     -0.2864
     33  CB       100.6710   51.5330   38.5240 C.3   125  LEU125      0.0297
     34  CG       100.1690   52.2410   37.2750 C.3   125  LEU125      0.0022
     35  CD1      101.2160   53.2230   36.8120 C.3   125  LEU125      0.0001
     36  CD2       99.8590   51.2380   36.1810 C.3   125  LEU125      0.0001
     37  N         98.3300   46.7590   40.4820 N.3   128  ASP128     -0.1239
     38  CA        98.8670   45.8140   39.4910 C.3   128  ASP128      0.1674
     39  C        100.2340   45.2710   39.8560 C.2   128  ASP128      0.2266
     40  O        100.5290   44.1210   39.5610 O.2   128  ASP128     -0.2867
     41  CB        98.9540   46.4460   38.1000 C.3   128  ASP128      0.1410
     42  CG        97.7130   46.1980   37.2820 C.2   128  ASP128      0.3668
     43  OD1       96.6000   46.1340   37.8810 O.co2 128  ASP128     -0.2456
     44  OD2       97.8730   46.0370   36.0460 O.co2 128  ASP128     -0.2456
     45  N         94.6980   42.9440   34.5100 N.3   158  THR158     -0.1203
     46  CA        93.5850   43.1440   35.4220 C.3   158  THR158      0.1994
     47  C         92.5400   44.0740   34.8650 C.2   158  THR158      0.2618
     48  O         92.8100   44.8130   33.9320 O.2   158  THR158     -0.2717
     49  CB        94.0830   43.7760   36.7150 C.3   158  THR158      0.1784
     50  OG1       95.3730   44.3480   36.4920 O.3   158  THR158     -0.2211
     51  CG2       94.2000   42.7040   37.7670 C.3   158  THR158      0.0376
     52  N         91.3520   44.0480   35.4620 N.am  159  MET159     -0.1965
     53  CA        90.2840   45.0110   35.1410 C.3   159  MET159      0.1736
     54  C         89.4340   45.2030   36.3690 C.2   159  MET159      0.2617
     55  O         89.2950   44.2570   37.1400 O.2   159  MET159     -0.2715
     56  CB        89.4320   44.4670   34.0100 C.3   159  MET159      0.0427
     57  CG        88.1190   45.1870   33.7850 C.3   159  MET159      0.0599
     58  SD        87.6600   44.8660   32.0730 S.3   159  MET159     -0.1393
     59  CE        85.9010   45.2230   32.1180 C.3   159  MET159      0.0692
     60  N         88.8440   46.3790   36.5540 N.am  160  THR160     -0.1951
     61  CA        88.2720   46.6770   37.8790 C.3   160  THR160      0.1897
     62  C         86.7360   46.4790   38.1140 C.2   160  THR160      0.2313
     63  O         85.9140   46.8290   37.2750 O.2   160  THR160     -0.2863
     64  CB        88.6760   48.0710   38.3210 C.3   160  THR160      0.1794
     65  OG1       87.8500   48.4610   39.4380 O.3   160  THR160     -0.2208
     66  CG2       88.5600   49.0470   37.1210 C.3   160  THR160      0.0378
     67  N         89.0650   42.0350   41.3560 N.3   175  PHE175     -0.1241
     68  CA        89.7550   42.2090   40.0870 C.3   175  PHE175      0.1605
     69  C         89.7640   40.9410   39.2330 C.2   175  PHE175      0.2264
     70  O         90.2270   39.8830   39.6640 O.2   175  PHE175     -0.2867
     71  CB        91.1890   42.6650   40.3370 C.3   175  PHE175      0.0534
     72  CG        91.3620   44.1630   40.3990 C.ar  175  PHE175     -0.0203
     73  CD1       91.5320   44.9120   39.2250 C.ar  175  PHE175     -0.0042
     74  CD2       91.4050   44.8250   41.6290 C.ar  175  PHE175     -0.0042
     75  CE1       91.7350   46.2910   39.2690 C.ar  175  PHE175     -0.0003
     76  CE2       91.5900   46.1980   41.6820 C.ar  175  PHE175     -0.0003
     77  CZ        91.7420   46.9290   40.5070 C.ar  175  PHE175     -0.0000
     78  N         78.3560   49.4040   37.9390 N.3   332  TYR332     -0.1241
     79  CA        79.2300   50.5240   37.5160 C.3   332  TYR332      0.1605
     80  C         78.4680   51.8430   37.4980 C.2   332  TYR332      0.2264
     81  O         77.3860   51.9390   36.9120 O.2   332  TYR332     -0.2867
     82  CB        79.8030   50.3270   36.0950 C.3   332  TYR332      0.0534
     83  CG        80.9690   49.3760   35.9170 C.ar  332  TYR332     -0.0201
     84  CD1       82.0400   49.3630   36.7900 C.ar  332  TYR332     -0.0009
     85  CD2       81.0200   48.5420   34.8180 C.ar  332  TYR332     -0.0009
     86  CE1       83.1120   48.5020   36.5920 C.ar  332  TYR332      0.0417
     87  CE2       82.0790   47.6790   34.6060 C.ar  332  TYR332      0.0417
     88  CZ        83.1220   47.6550   35.4980 C.ar  332  TYR332      0.1957
     89  OH        84.1810   46.8000   35.2780 O.3   332  TYR332     -0.2866
     90  N         79.4060   54.9470   35.9450 N.3   334  ASP334     -0.1239
     91  CA        80.4760   55.3490   35.0380 C.3   334  ASP334      0.1674
     92  C         80.9120   56.8280   35.1810 C.2   334  ASP334      0.2266
     93  O         82.0180   57.2060   34.7780 O.2   334  ASP334     -0.2867
     94  CB        80.1160   54.9620   33.5890 C.3   334  ASP334      0.1410
     95  CG        80.1240   53.4250   33.3560 C.2   334  ASP334      0.3668
     96  OD1       81.1650   52.7450   33.6020 O.co2 334  ASP334     -0.2456
     97  OD2       79.0740   52.8950   32.9170 O.co2 334  ASP334     -0.2456
     98  N         84.2250   57.6780   37.0640 N.3   337  PHE337     -0.1241
     99  CA        85.4840   57.6790   36.2950 C.3   337  PHE337      0.1605
    100  C         85.4290   58.8090   35.2680 C.2   337  PHE337      0.2264
    101  O         86.4220   59.4950   35.0430 O.2   337  PHE337     -0.2867
    102  CB        85.7310   56.3800   35.5200 C.3   337  PHE337      0.0534
    103  CG        85.4840   55.1140   36.2880 C.ar  337  PHE337     -0.0203
    104  CD1       84.2070   54.7870   36.7470 C.ar  337  PHE337     -0.0042
    105  CD2       86.5240   54.2060   36.4900 C.ar  337  PHE337     -0.0042
    106  CE1       83.9840   53.6140   37.4190 C.ar  337  PHE337     -0.0003
    107  CE2       86.3020   53.0110   37.1420 C.ar  337  PHE337     -0.0003
    108  CZ        85.0230   52.7180   37.6010 C.ar  337  PHE337     -0.0000
    109  N         87.1360   59.9010   29.7770 N.3   342  TYR342     -0.1241
    110  CA        87.3090   58.7840   28.8910 C.3   342  TYR342      0.1605
    111  C         86.6970   59.0080   27.4850 C.2   342  TYR342      0.2264
    112  O         86.5200   58.0740   26.7090 O.2   342  TYR342     -0.2867
    113  CB        86.7980   57.5350   29.5900 C.3   342  TYR342      0.0534
    114  CG        87.6370   57.1740   30.7870 C.ar  342  TYR342     -0.0201
    115  CD1       88.7830   56.3910   30.6580 C.ar  342  TYR342     -0.0009
    116  CD2       87.2970   57.6000   32.0410 C.ar  342  TYR342     -0.0009
    117  CE1       89.5680   56.0390   31.7560 C.ar  342  TYR342      0.0417
    118  CE2       88.0670   57.2480   33.1480 C.ar  342  TYR342      0.0417
    119  CZ        89.2020   56.4670   33.0060 C.ar  342  TYR342      0.1957
    120  OH        89.9440   56.1880   34.1400 O.3   342  TYR342     -0.2866
    121  N         84.6650   53.6090   27.8250 N.3   416  LEU416     -0.1231
    122  CA        84.9620   53.2580   29.2160 C.3   416  LEU416      0.1693
    123  C         85.1370   51.7760   29.3890 C.2   416  LEU416      0.2591
    124  O         84.1550   51.0250   29.4820 O.2   416  LEU416     -0.2718
    125  CB        83.8520   53.6660   30.1520 C.3   416  LEU416      0.0284
    126  CG        83.9370   55.1040   30.6000 C.3   416  LEU416      0.0019
    127  CD1       83.7640   56.0100   29.4030 C.3   416  LEU416      0.0001
    128  CD2       82.8600   55.3620   31.6420 C.3   416  LEU416      0.0001
    129  N         86.4000   51.3850   29.5020 N.am  417  LEU417     -0.1980
    130  CA        86.7930   50.0080   29.4780 C.3   417  LEU417      0.1596
    131  C         86.1820   49.4460   28.2250 C.2   417  LEU417      0.2287
    132  O         86.4910   49.9070   27.1300 O.2   417  LEU417     -0.2864
    133  CB        86.3100   49.2940   30.7270 C.3   417  LEU417      0.0297
    134  CG        86.9700   49.7250   32.0050 C.3   417  LEU417      0.0022
    135  CD1       86.2610   49.1160   33.2010 C.3   417  LEU417      0.0001
    136  CD2       88.4700   49.3590   31.9680 C.3   417  LEU417      0.0001
    137  N         95.9570   57.5480   23.8130 N.3   708  SER708     -0.1202
    138  CA        96.5720   57.7220   25.1450 C.3   708  SER708      0.2020
    139  C         96.6740   59.1470   25.6640 C.2   708  SER708      0.2618
    140  O         95.7820   59.5770   26.3880 O.2   708  SER708     -0.2717
    141  CB        97.9330   57.0330   25.2240 C.3   708  SER708      0.2103
    142  OG        98.5770   57.3110   26.4550 O.3   708  SER708     -0.2182
    143  N         97.7690   59.8510   25.3410 N.am  709  HIS709     -0.1975
    144  CA        97.9760   61.2670   25.7320 C.3   709  HIS709      0.1656
    145  C         98.4430   62.0950   24.5120 C.2   709  HIS709      0.2291
    146  O         99.6420   62.2740   24.2900 O.2   709  HIS709     -0.2864
    147  CB        98.9570   61.3700   26.9200 C.3   709  HIS709      0.0771
    148  CG        98.5300   60.5670   28.1130 C.ar  709  HIS709      0.0820
    149  ND1       99.0540   59.3230   28.4070 N.ar  709  HIS709     -0.2267
    150  CD2       97.5900   60.8090   29.0580 C.ar  709  HIS709      0.1154
    151  CE1       98.4680   58.8450   29.4910 C.ar  709  HIS709      0.1986
    152  NE2       97.5790   59.7280   29.9080 N.ar  709  HIS709     -0.2212
@<TRIPOS>BOND
     1   137   138    1
     2   146   145    2
     3   145   144    1
     4   138   141    1
     5   138   139    1
     6   141   142    1
     7   143   139   am
     8   143   144    1
     9   139   140    2
    10   144   147    1
    11   112   111    2
    12   147   148    1
    13   132   131    2
    14   111   110    1
    15   121   122    1
    16   148   149   ar
    17   148   150   ar
    18   131   130    1
    19   149   151   ar
    20   110   113    1
    21   110   109    1
    22   150   152   ar
    23   122   123    1
    24   122   125    1
    25   123   124    2
    26   123   129   am
    27   127   126    1
    28   130   129    1
    29   130   133    1
    30   151   152   ar
    31   113   114    1
    32   125   126    1
    33   126   128    1
    34   115   114   ar
    35   115   117   ar
    36   133   134    1
    37   114   116   ar
    38   117   119   ar
    39   136   134    1
    40   134   135    1
    41   116   118   ar
    42    58    59    1
    43    58    57    1
    44    97    95   ar
    45   119   118   ar
    46   119   120    1
    47    95    94    1
    48    95    96   ar
    49    94    91    1
    50    57    56    1
    51    48    47    2
    52    16    14   ar
    53    16    15   ar
    54    56    53    1
    55    14    12   ar
    56    15    13   ar
    57    45    46    1
    58    87    85   ar
    59    87    88   ar
    60    93    92    2
    61    85    83   ar
    62    47    46    1
    63    47    52   am
    64    91    92    1
    65    91    90    1
    66   101   100    2
    67    53    52    1
    68    53    54    1
    69   100    99    1
    70    89    88    1
    71    12    11   ar
    72    13    11   ar
    73    46    49    1
    74    88    86   ar
    75   102   103    1
    76   102    99    1
    77    11    10    1
    78    83    82    1
    79    83    84   ar
    80    44    42   ar
    81    82    79    1
    82    36    34    1
    83   103   105   ar
    84   103   104   ar
    85    99    98    1
    86     5     2    1
    87    54    60   am
    88    54    55    2
    89   105   107   ar
    90    50    49    1
    91    60    61    1
    92    86    84   ar
    93    49    51    1
    94    10     7    1
    95   104   106   ar
    96    35    34    1
    97    81    80    2
    98    66    64    1
    99   107   108   ar
   100    63    62    2
   101    34    33    1
   102    42    43   ar
   103    42    41    1
   104   106   108   ar
   105    80    79    1
   106    79    78    1
   107     2     3    1
   108     2     1    1
   109    24    26   ar
   110    24    22   ar
   111     7     6    1
   112     7     8    1
   113    26    27   ar
   114    61    62    1
   115    61    64    1
   116    41    38    1
   117     4     3    2
   118    64    65    1
   119    21    22    1
   120    21    18    1
   121    22    23   ar
   122    28    27    1
   123    27    25   ar
   124    33    30    1
   125     9     8    2
   126    23    25   ar
   127    30    29    1
   128    30    31    1
   129    73    75   ar
   130    73    72   ar
   131    69    70    2
   132    69    68    1
   133    75    77   ar
   134    29    19   am
   135    20    19    2
   136    19    18    1
   137    38    39    1
   138    38    37    1
   139    40    39    2
   140    18    17    1
   141    68    71    1
   142    68    67    1
   143    32    31    2
   144    71    72    1
   145    72    74   ar
   146    77    76   ar
   147    74    76   ar
