@<TRIPOS>MOLECULE
tmp/4btyB00.pdb
 124 115 0 0 0
SMALL
GASTEIGER

@<TRIPOS>ATOM
      1  N         34.7910   37.8600  -22.0030 N.3    21  GLN21      -0.1231
      2  CA        34.1130   36.9300  -22.9000 C.3    21  GLN21       0.1698
      3  C         33.2950   35.8970  -22.1200 C.2    21  GLN21       0.2592
      4  O         32.1510   35.6020  -22.4870 O.2    21  GLN21      -0.2718
      5  CB        35.1020   36.2410  -23.8320 C.3    21  GLN21       0.0381
      6  CG        36.0480   35.2970  -23.1260 C.3    21  GLN21       0.0905
      7  CD        37.3360   35.0520  -23.8860 C.2    21  GLN21       0.2608
      8  OE1       38.3670   34.7330  -23.2890 O.2    21  GLN21      -0.2717
      9  NE2       37.2870   35.1950  -25.2080 N.am   21  GLN21      -0.0878
     10  N         33.8630   35.3990  -21.0240 N.am   22  ARG22      -0.1966
     11  CA        33.2770   34.2940  -20.2630 C.3    22  ARG22       0.1729
     12  C         32.5220   34.7140  -19.0000 C.2    22  ARG22       0.2616
     13  O         32.6730   34.0800  -17.9590 O.2    22  ARG22      -0.2715
     14  CB        34.3660   33.2720  -19.9050 C.3    22  ARG22       0.0348
     15  CG        34.6660   32.2550  -21.0120 C.3    22  ARG22       0.0492
     16  CD        35.2080   30.9740  -20.4070 C.3    22  ARG22       0.2205
     17  NE        34.3260   30.5580  -19.3180 N.pl3  22  ARG22      -0.0865
     18  CZ        34.6690   29.7980  -18.2850 C.cat  22  ARG22       0.5346
     19  NH1       35.9010   29.3210  -18.1590 N.pl3  22  ARG22       0.1354
     20  NH2       33.7570   29.5050  -17.3670 N.pl3  22  ARG22       0.1354
     21  N         31.7420   35.7920  -19.1090 N.am   23  LEU23      -0.1963
     22  CA        30.7550   36.2230  -18.0940 C.3    23  LEU23       0.1728
     23  C         29.5180   36.7330  -18.8260 C.2    23  LEU23       0.2616
     24  O         28.8010   37.6410  -18.3460 O.2    23  LEU23      -0.2715
     25  CB        31.3050   37.3580  -17.2330 C.3    23  LEU23       0.0311
     26  CG        32.3520   37.0270  -16.1620 C.3    23  LEU23       0.0022
     27  CD1       33.4180   38.1030  -16.1090 C.3    23  LEU23       0.0001
     28  CD2       31.7240   36.8400  -14.7890 C.3    23  LEU23       0.0001
     29  N         29.2880   36.1200  -19.9950 N.am   24  GLY24      -0.1955
     30  CA        28.3880   36.6410  -21.0180 C.3    24  GLY24       0.1869
     31  C         28.5750   38.1400  -21.1360 C.2    24  GLY24       0.2309
     32  O         29.6910   38.6540  -20.9610 O.2    24  GLY24      -0.2863
     33  N         28.1450   41.7390   -8.4750 N.3    74  PHE74      -0.1241
     34  CA        26.9850   41.1780   -9.1610 C.3    74  PHE74       0.1605
     35  C         25.7080   41.8780   -8.7800 C.2    74  PHE74       0.2264
     36  O         24.8780   41.3470   -8.0180 O.2    74  PHE74      -0.2867
     37  CB        26.8640   39.6810   -8.9140 C.3    74  PHE74       0.0534
     38  CG        27.9030   38.8650   -9.6360 C.ar   74  PHE74      -0.0203
     39  CD1       28.0880   39.0110  -11.0160 C.ar   74  PHE74      -0.0042
     40  CD2       28.6900   37.9330   -8.9490 C.ar   74  PHE74      -0.0042
     41  CE1       29.0360   38.2640  -11.6900 C.ar   74  PHE74      -0.0003
     42  CE2       29.6350   37.1720   -9.6370 C.ar   74  PHE74      -0.0003
     43  CZ        29.8000   37.3410  -11.0070 C.ar   74  PHE74      -0.0000
     44  N         20.8590   40.8600  -10.8620 N.3    77  GLN77      -0.1245
     45  CA        20.3970   39.5460  -10.3990 C.3    77  GLN77       0.1566
     46  C         19.7070   39.8160   -9.0790 C.2    77  GLN77       0.2260
     47  O         20.1400   40.6770   -8.3100 O.2    77  GLN77      -0.2867
     48  CB        21.5250   38.5230  -10.1660 C.3    77  GLN77       0.0367
     49  CG        22.4750   38.7880   -8.9900 C.3    77  GLN77       0.0905
     50  CD        23.7060   37.8810   -8.9910 C.2    77  GLN77       0.2608
     51  OE1       24.4310   37.8050   -9.9890 O.2    77  GLN77      -0.2717
     52  NE2       23.9530   37.1940   -7.8700 N.am   77  GLN77      -0.0878
     53  N         19.8330   38.2310   -6.3090 N.3    79  GLN79      -0.1245
     54  CA        20.5400   37.7190   -5.1510 C.3    79  GLN79       0.1566
     55  C         21.8950   38.3600   -5.1650 C.2    79  GLN79       0.2260
     56  O         22.9130   37.6720   -5.2160 O.2    79  GLN79      -0.2867
     57  CB        20.6800   36.2020   -5.2700 C.3    79  GLN79       0.0367
     58  CG        21.1410   35.5020   -3.9970 C.3    79  GLN79       0.0905
     59  CD        19.9940   35.2110   -3.0410 C.2    79  GLN79       0.2608
     60  OE1       19.0560   35.9990   -2.9270 O.2    79  GLN79      -0.2717
     61  NE2       20.0640   34.0760   -2.3510 N.am   79  GLN79      -0.0878
     62  N         25.4620   39.9800   -5.2600 N.3    81  ASN81      -0.1240
     63  CA        26.5260   39.1590   -4.7340 C.3    81  ASN81       0.1653
     64  C         27.8350   39.7830   -5.1240 C.2    81  ASN81       0.2266
     65  O         27.9920   40.2810   -6.2410 O.2    81  ASN81      -0.2867
     66  CB        26.3950   37.7440   -5.3460 C.3    81  ASN81       0.1155
     67  CG        27.5110   36.7880   -4.9310 C.2    81  ASN81       0.2627
     68  OD1       28.3460   37.1210   -4.0880 O.2    81  ASN81      -0.2716
     69  ND2       27.5400   35.5730   -5.5260 N.am   81  ASN81      -0.0877
     70  N         31.5080   38.3350   -5.5800 N.3    83  SER83      -0.1217
     71  CA        32.1960   37.0750   -5.6860 C.3    83  SER83       0.1889
     72  C         33.6830   37.3180   -5.9330 C.2    83  SER83       0.2288
     73  O         34.0590   38.0930   -6.8250 O.2    83  SER83      -0.2866
     74  CB        31.5400   36.2160   -6.7740 C.3    83  SER83       0.2089
     75  OG        30.3820   35.5410   -6.2610 O.3    83  SER83      -0.2183
     76  N         36.6280   35.4640   -7.3740 N.3    85  LEU85      -0.1245
     77  CA        36.8750   34.4240   -8.3740 C.3    85  LEU85       0.1561
     78  C         38.3500   34.2910   -8.6740 C.2    85  LEU85       0.2260
     79  O         39.0000   35.2800   -9.0310 O.2    85  LEU85      -0.2867
     80  CB        36.2300   34.8120   -9.6930 C.3    85  LEU85       0.0270
     81  CG        34.7720   35.2170   -9.6670 C.3    85  LEU85       0.0019
     82  CD1       34.3690   35.5810  -11.0860 C.3    85  LEU85       0.0001
     83  CD2       33.9160   34.0880   -9.1070 C.3    85  LEU85       0.0001
     84  N         38.5830   29.4280  -14.0680 N.3    96  MET96      -0.1245
     85  CA        38.0170   30.4270  -13.1510 C.3    96  MET96       0.1570
     86  C         37.2440   29.7480  -12.0150 C.2    96  MET96       0.2261
     87  O         36.6160   28.7430  -12.2440 O.2    96  MET96      -0.2867
     88  CB        37.1150   31.3720  -13.9350 C.3    96  MET96       0.0387
     89  CG        36.0120   32.0100  -13.1190 C.3    96  MET96       0.0595
     90  SD        35.2090   33.3330  -14.0320 S.3    96  MET96      -0.1393
     91  CE        34.5550   32.4520  -15.4590 C.3    96  MET96       0.0692
     92  N         34.8130   30.2340   -8.2790 N.3    98  ASP98      -0.1239
     93  CA        34.1860   30.9530   -7.1780 C.3    98  ASP98       0.1674
     94  C         34.7190   30.3730   -5.8440 C.2    98  ASP98       0.2266
     95  O         34.2190   29.3860   -5.3210 O.2    98  ASP98      -0.2867
     96  CB        32.6410   30.9140   -7.3180 C.3    98  ASP98       0.1410
     97  CG        31.9050   31.7180   -6.2280 C.2    98  ASP98       0.3668
     98  OD1       32.3790   31.7300   -5.0710 O.co2  98  ASP98      -0.2456
     99  OD2       30.8330   32.3090   -6.5180 O.co2  98  ASP98      -0.2456
    100  N         34.6010   32.2320   -3.2130 N.3   100  THR100     -0.1203
    101  CA        33.7830   32.9990   -2.2580 C.3   100  THR100      0.1994
    102  C         33.2920   32.1890   -1.0670 C.2   100  THR100      0.2617
    103  O         33.4360   32.5870    0.1070 O.2   100  THR100     -0.2717
    104  CB        32.5480   33.5940   -2.9740 C.3   100  THR100      0.1784
    105  OG1       32.9350   34.0740   -4.2660 O.3   100  THR100     -0.2211
    106  CG2       31.9190   34.7360   -2.1810 C.3   100  THR100      0.0376
    107  N         32.7100   31.0400   -1.3800 N.am  101  VAL101     -0.1979
    108  CA        31.9900   30.2940   -0.3820 C.3   101  VAL101      0.1595
    109  C         32.9350   29.6790    0.5820 C.2   101  VAL101      0.2287
    110  O         32.8460   29.9020    1.7860 O.2   101  VAL101     -0.2864
    111  CB        31.2290   29.1450   -0.9870 C.3   101  VAL101      0.0276
    112  CG1       30.6400   28.3090    0.1330 C.3   101  VAL101      0.0022
    113  CG2       30.1600   29.6690   -1.9260 C.3   101  VAL101      0.0022
    114  N         29.4600   32.1950    3.6130 N.3   106  GLY106     -0.1210
    115  CA        28.2900   32.5670    2.8250 C.3   106  GLY106      0.1940
    116  C         28.6900   32.7990    1.3850 C.2   106  GLY106      0.2453
    117  O         29.6190   32.1680    0.8770 O.2   106  GLY106     -0.2732
    118  N         27.9410   33.6600    0.7010 N.am  107  PRO107     -0.2728
    119  CA        28.4770   34.4990   -0.3450 C.3   107  PRO107      0.1401
    120  C         28.6020   35.8660    0.3020 C.2   107  PRO107      0.2269
    121  O         28.3860   35.9860    1.5150 O.2   107  PRO107     -0.2865
    122  CB        27.3830   34.4810   -1.4090 C.3   107  PRO107      0.0296
    123  CG        26.1360   34.0650   -0.6780 C.3   107  PRO107      0.0237
    124  CD        26.4800   33.7590    0.7510 C.3   107  PRO107      0.0939
@<TRIPOS>BOND
     1     9     7   am
     2     7     8    2
     3     7     6    1
     4     5     6    1
     5     5     2    1
     6     2     3    1
     7     2     1    1
     8     4     3    2
     9     3    10   am
    10    31    30    1
    11    31    32    2
    12    10    11    1
    13    30    29    1
    14    15    16    1
    15    15    14    1
    16    16    17    1
    17    11    14    1
    18    11    12    1
    19    29    23   am
    20    17    18    2
    21    21    12   am
    22    21    22    1
    23    12    13    2
    24    23    24    2
    25    23    22    1
    26    18    19    1
    27    18    20    1
    28    22    25    1
    29    25    26    1
    30    26    27    1
    31    26    28    1
    32    91    90    1
    33    84    85    1
    34    90    89    1
    35    88    85    1
    36    88    89    1
    37    85    86    1
    38    87    86    2
    39    41    39   ar
    40    41    43   ar
    41    82    81    1
    42    39    38   ar
    43    43    42   ar
    44    44    45    1
    45    45    48    1
    46    45    46    1
    47    48    49    1
    48    51    50    2
    49    80    81    1
    50    80    77    1
    51    81    83    1
    52    42    40   ar
    53    38    40   ar
    54    38    37    1
    55    34    37    1
    56    34    35    1
    57    34    33    1
    58    46    47    2
    59    79    78    2
    60    50    49    1
    61    50    52   am
    62    35    36    2
    63    78    77    1
    64    77    76    1
    65    92    93    1
    66    96    93    1
    67    96    97    1
    68    93    94    1
    69    73    72    2
    70    74    75    1
    71    74    71    1
    72    99    97   ar
    73    53    54    1
    74    65    64    2
    75    97    98   ar
    76    72    71    1
    77    94    95    2
    78    71    70    1
    79    69    67   am
    80    66    67    1
    81    66    63    1
    82    57    54    1
    83    57    58    1
    84    62    63    1
    85    56    55    2
    86    55    54    1
    87    64    63    1
    88    67    68    2
    89   105   104    1
    90    58    59    1
    91   100   101    1
    92    59    60    2
    93    59    61   am
    94   104   101    1
    95   104   106    1
    96   101   102    1
    97   113   111    1
    98   122   123    1
    99   122   119    1
   100   107   102   am
   101   107   108    1
   102   102   103    2
   103   111   108    1
   104   111   112    1
   105   123   124    1
   106   108   109    1
   107   119   120    1
   108   119   118    1
   109   120   121    2
   110   109   110    2
   111   118   124    1
   112   118   116   am
   113   117   116    2
   114   116   115    1
   115   115   114    1
