@<TRIPOS>MOLECULE
tmp/4bu5A00.pdb
 141 142 0 0 0
SMALL
GASTEIGER

@<TRIPOS>ATOM
      1  N        -36.0250   -7.3620   17.4110 N.3    80  HIS80      -0.1226
      2  CA       -36.3970   -7.5860   16.0370 C.3    80  HIS80       0.1752
      3  C        -35.1670   -7.7850   15.2080 C.2    80  HIS80       0.2597
      4  O        -34.2340   -6.9420   15.2170 O.2    80  HIS80      -0.2718
      5  CB       -37.2120   -6.4140   15.5120 C.3    80  HIS80       0.0759
      6  CG       -37.7740   -6.6380   14.1420 C.ar   80  HIS80       0.0818
      7  ND1      -38.9190   -7.3740   13.9020 N.ar   80  HIS80      -0.2268
      8  CD2      -37.3240   -6.2040   12.9040 C.ar   80  HIS80       0.1154
      9  CE1      -39.1640   -7.3730   12.5550 C.ar   80  HIS80       0.1986
     10  NE2      -38.2130   -6.6500   11.9490 N.ar   80  HIS80      -0.2212
     11  N        -35.1560   -8.9040   14.4790 N.am   81  GLY81      -0.1942
     12  CA       -34.0900   -9.2250   13.5130 C.3    81  GLY81       0.2014
     13  C        -34.6960   -9.1920   12.1200 C.2    81  GLY81       0.2640
     14  O        -35.8230   -9.6750   11.9140 O.2    81  GLY81      -0.2714
     15  N        -33.9580   -8.6590   11.1440 N.am   82  SER82      -0.1936
     16  CA       -34.4640   -8.5160    9.7980 C.3    82  SER82       0.2040
     17  C        -33.3380   -8.1900    8.8120 C.2    82  SER82       0.2485
     18  O        -32.4010   -7.4880    9.1470 O.2    82  SER82      -0.2729
     19  CB       -35.4620   -7.3660    9.7410 C.3    82  SER82       0.2129
     20  OG       -35.8780   -7.1520    8.4140 O.3    82  SER82      -0.2179
     21  N        -33.4220   -8.7090    7.5990 N.am   83  PRO83      -0.2715
     22  CA       -32.5020   -8.1980    6.5690 C.3    83  PRO83       0.1536
     23  C        -32.7340   -6.7380    6.2280 C.2    83  PRO83       0.2598
     24  O        -31.8540   -6.1370    5.6020 O.2    83  PRO83      -0.2715
     25  CB       -32.8500   -9.0390    5.3210 C.3    83  PRO83       0.0310
     26  CG       -33.7400  -10.1110    5.8060 C.3    83  PRO83       0.0237
     27  CD       -34.4010   -9.6610    7.0670 C.3    83  PRO83       0.0939
     28  N        -33.8830   -6.1800    6.6010 N.am   84  PHE84      -0.1974
     29  CA       -34.2120   -4.7750    6.2870 C.3    84  PHE84       0.1639
     30  C        -33.9160   -3.7760    7.4020 C.2    84  PHE84       0.2290
     31  O        -34.4750   -2.6720    7.3700 O.2    84  PHE84      -0.2864
     32  CB       -35.6970   -4.6470    5.9040 C.3    84  PHE84       0.0560
     33  CG       -36.1790   -5.7550    5.0220 C.ar   84  PHE84      -0.0200
     34  CD1      -35.4810   -6.0840    3.8710 C.ar   84  PHE84      -0.0042
     35  CD2      -37.2760   -6.5210    5.3860 C.ar   84  PHE84      -0.0042
     36  CE1      -35.8950   -7.1450    3.0710 C.ar   84  PHE84      -0.0003
     37  CE2      -37.7060   -7.5600    4.5830 C.ar   84  PHE84      -0.0003
     38  CZ       -37.0070   -7.8710    3.4280 C.ar   84  PHE84      -0.0000
     39  N        -42.0080   -4.8390    5.9610 N.3    97  HIS97      -0.1226
     40  CA       -41.2110   -5.4850    7.0250 C.3    97  HIS97       0.1752
     41  C        -41.9840   -6.6320    7.6960 C.2    97  HIS97       0.2596
     42  O        -41.5010   -7.2420    8.7000 O.2    97  HIS97      -0.2718
     43  CB       -40.7480   -4.3870    8.0040 C.3    97  HIS97       0.0759
     44  CG       -40.0340   -3.2490    7.3000 C.ar   97  HIS97       0.0818
     45  ND1      -40.3730   -1.9550    7.4700 N.ar   97  HIS97      -0.2268
     46  CD2      -39.0280   -3.2690    6.3380 C.ar   97  HIS97       0.1154
     47  CE1      -39.5980   -1.1850    6.6660 C.ar   97  HIS97       0.1986
     48  NE2      -38.7940   -1.9910    5.9690 N.ar   97  HIS97      -0.2212
     49  N        -43.1510   -6.9700    7.1140 N.am   98  ALA98      -0.1966
     50  CA       -44.0620   -7.9930    7.6900 C.3    98  ALA98       0.1728
     51  C        -43.5810   -9.3710    7.2900 C.2    98  ALA98       0.2616
     52  O        -43.0200   -9.5310    6.2220 O.2    98  ALA98      -0.2715
     53  CB       -45.5010   -7.8050    7.2280 C.3    98  ALA98       0.0334
     54  N        -43.7720  -10.3300    8.1860 N.am   99  TYR99      -0.1974
     55  CA       -43.5210  -11.7390    7.9240 C.3    99  TYR99       0.1639
     56  C        -44.8360  -12.3180    7.4210 C.2    99  TYR99       0.2290
     57  O        -45.7750  -12.6070    8.1760 O.2    99  TYR99      -0.2864
     58  CB       -43.0280  -12.3960    9.1870 C.3    99  TYR99       0.0560
     59  CG       -42.6780  -13.8540    9.0680 C.ar   99  TYR99      -0.0198
     60  CD1      -42.6100  -14.5070    7.8350 C.ar   99  TYR99      -0.0009
     61  CD2      -42.4500  -14.6050   10.2040 C.ar   99  TYR99      -0.0009
     62  CE1      -42.3360  -15.8700    7.7740 C.ar   99  TYR99       0.0417
     63  CE2      -42.1480  -15.9540   10.1400 C.ar   99  TYR99       0.0417
     64  CZ       -42.1170  -16.5810    8.9300 C.ar   99  TYR99       0.1957
     65  OH       -41.8200  -17.9440    8.8960 O.3    99  TYR99      -0.2866
     66  N        -43.1420   -9.0380   13.4840 N.3   109  TYR109     -0.1227
     67  CA       -42.9680   -9.9360   14.6130 C.3   109  TYR109      0.1736
     68  C        -41.8040   -9.4410   15.4940 C.2   109  TYR109      0.2595
     69  O        -40.7520   -9.0030   14.9790 O.2   109  TYR109     -0.2718
     70  CB       -42.6550  -11.3620   14.1480 C.3   109  TYR109      0.0548
     71  CG       -43.8320  -12.1020   13.6200 C.ar  109  TYR109     -0.0200
     72  CD1      -44.5310  -11.6470   12.4950 C.ar  109  TYR109     -0.0009
     73  CD2      -44.3110  -13.2350   14.2940 C.ar  109  TYR109     -0.0009
     74  CE1      -45.6540  -12.3140   12.0450 C.ar  109  TYR109      0.0417
     75  CE2      -45.4050  -13.9170   13.8060 C.ar  109  TYR109      0.0417
     76  CZ       -46.0980  -13.4360   12.7120 C.ar  109  TYR109      0.1957
     77  OH       -47.2550  -14.1150   12.3010 O.3   109  TYR109     -0.2866
     78  N        -41.9590   -9.6390   16.7820 N.am  110  PHE110     -0.1962
     79  CA       -40.9580   -9.2970   17.7900 C.3   110  PHE110      0.1771
     80  C        -40.7760  -10.4310   18.8040 C.2   110  PHE110      0.2619
     81  O        -41.6970  -11.2020   19.0260 O.2   110  PHE110     -0.2715
     82  CB       -41.3730   -8.0260   18.5220 C.3   110  PHE110      0.0574
     83  CG       -41.4740   -6.8080   17.6380 C.ar  110  PHE110     -0.0200
     84  CD1      -42.6200   -6.5640   16.9080 C.ar  110  PHE110     -0.0042
     85  CD2      -40.3970   -5.9400   17.5030 C.ar  110  PHE110     -0.0042
     86  CE1      -42.6860   -5.4970   16.0100 C.ar  110  PHE110     -0.0003
     87  CE2      -40.4980   -4.8130   16.7030 C.ar  110  PHE110     -0.0003
     88  CZ       -41.6290   -4.6000   15.9310 C.ar  110  PHE110     -0.0000
     89  N        -39.6020  -10.5140   19.4340 N.am  111  ALA111     -0.1977
     90  CA       -39.2810  -11.6090   20.3580 C.3   111  ALA111      0.1597
     91  C        -38.7610  -11.0630   21.6730 C.2   111  ALA111      0.2287
     92  O        -37.9430  -10.1100   21.6620 O.2   111  ALA111     -0.2864
     93  CB       -38.2040  -12.5250   19.7650 C.3   111  ALA111      0.0319
     94  N        -34.0590  -15.6710   19.3820 N.3   116  LYS116     -0.1231
     95  CA       -35.1210  -15.8560   18.3950 C.3   116  LYS116      0.1693
     96  C        -35.0340  -14.8360   17.2480 C.2   116  LYS116      0.2592
     97  O        -35.0050  -15.2130   16.0690 O.2   116  LYS116     -0.2718
     98  CB       -36.4840  -15.7630   19.0920 C.3   116  LYS116      0.0285
     99  CG       -37.6900  -15.7890   18.1650 C.3   116  LYS116      0.0035
    100  CD       -37.7100  -16.9250   17.1270 C.3   116  LYS116      0.0206
    101  CE       -37.9910  -18.2820   17.6180 C.3   116  LYS116      0.1093
    102  NZ       -38.2480  -19.2500   16.4630 N.3   116  LYS116     -0.1314
    103  N        -34.9250  -13.5450   17.5760 N.am  117  SER117     -0.1952
    104  CA       -34.7130  -12.5170   16.5400 C.3   117  SER117      0.1924
    105  C        -33.4080  -12.7540   15.7250 C.2   117  SER117      0.2314
    106  O        -33.3350  -12.4680   14.5020 O.2   117  SER117     -0.2863
    107  CB       -34.7530  -11.1140   17.1690 C.3   117  SER117      0.2116
    108  OG       -36.0960  -10.7760   17.5560 O.3   117  SER117     -0.2180
    109  N        -33.4810  -14.4230   12.3360 N.3   120  TYR120     -0.1241
    110  CA       -34.0550  -13.7160   11.1890 C.3   120  TYR120      0.1605
    111  C        -33.1600  -12.6480   10.5690 C.2   120  TYR120      0.2264
    112  O        -33.5540  -11.9940    9.5640 O.2   120  TYR120     -0.2867
    113  CB       -35.4090  -13.0870   11.5800 C.3   120  TYR120      0.0534
    114  CG       -36.4550  -14.1470   11.8090 C.ar  120  TYR120     -0.0201
    115  CD1      -37.2280  -14.6160   10.7750 C.ar  120  TYR120     -0.0009
    116  CD2      -36.6220  -14.7130   13.0480 C.ar  120  TYR120     -0.0009
    117  CE1      -38.2010  -15.6020   10.9950 C.ar  120  TYR120      0.0417
    118  CE2      -37.5550  -15.7060   13.2590 C.ar  120  TYR120      0.0417
    119  CZ       -38.3260  -16.1560   12.2350 C.ar  120  TYR120      0.1957
    120  OH       -39.2390  -17.1740   12.4850 O.3   120  TYR120     -0.2866
    121  N        -32.5440  -13.5280    7.0780 N.3   123  GLY123     -0.1210
    122  CA       -33.7590  -13.8870    6.3650 C.3   123  GLY123      0.1956
    123  C        -34.5400  -14.9330    7.1430 C.2   123  GLY123      0.2611
    124  O        -34.0950  -15.3960    8.1790 O.2   123  GLY123     -0.2717
    125  N        -35.7110  -15.2690    6.6320 N.am  124  ILE124     -0.1979
    126  CA       -36.5450  -16.3100    7.2380 C.3   124  ILE124      0.1595
    127  C        -35.7510  -17.5990    7.2600 C.2   124  ILE124      0.2287
    128  O        -35.1180  -17.9700    6.2570 O.2   124  ILE124     -0.2864
    129  CB       -37.8580  -16.4910    6.4570 C.3   124  ILE124      0.0276
    130  CG1      -38.6770  -15.1930    6.5160 C.3   124  ILE124      0.0022
    131  CG2      -38.6410  -17.6900    7.0340 C.3   124  ILE124      0.0022
    132  CD1      -39.7540  -15.0560    5.4430 C.3   124  ILE124      0.0001
    133  N        -43.4130  -14.3200   21.9450 N.3   185  GLU185     -0.1245
    134  CA       -43.2230  -13.5770   20.7230 C.3   185  GLU185      0.1567
    135  C        -44.5320  -12.7880   20.4850 C.2   185  GLU185      0.2260
    136  O        -45.5880  -13.1410   21.0250 O.2   185  GLU185     -0.2867
    137  CB       -42.9680  -14.5690   19.5630 C.3   185  GLU185      0.0388
    138  CG       -41.7270  -15.4110   19.8470 C.3   185  GLU185      0.1160
    139  CD       -41.5370  -16.5720   18.9030 C.2   185  GLU185      0.3649
    140  OE1      -42.0930  -16.5430   17.7830 O.co2 185  GLU185     -0.2457
    141  OE2      -40.7930  -17.4910   19.3360 O.co2 185  GLU185     -0.2457
@<TRIPOS>BOND
     1    36    38   ar
     2    36    34   ar
     3    38    37   ar
     4    34    33   ar
     5    37    35   ar
     6    33    35   ar
     7    33    32    1
     8    25    26    1
     9    25    22    1
    10   132   130    1
    11    24    23    2
    12    26    27    1
    13    32    29    1
    14    39    40    1
    15    48    46   ar
    16    48    47   ar
    17    52    51    2
    18    23    22    1
    19    23    28   am
    20   128   127    2
    21    29    28    1
    22    29    30    1
    23    46    44   ar
    24   122   121    1
    25   122   123    1
    26   129   130    1
    27   129   131    1
    28   129   126    1
    29    22    21    1
    30   125   123   am
    31   125   126    1
    32    47    45   ar
    33    40    41    1
    34    40    43    1
    35    27    21    1
    36    49    50    1
    37    49    41   am
    38   123   124    2
    39    53    50    1
    40   126   127    1
    41    51    50    1
    42    51    54   am
    43    44    45   ar
    44    44    43    1
    45    31    30    2
    46    56    55    1
    47    56    57    2
    48    21    17   am
    49    41    42    2
    50    62    60   ar
    51    62    64   ar
    52    60    59   ar
    53    55    54    1
    54    55    58    1
    55    20    19    1
    56    17    18    2
    57    17    16    1
    58    65    64    1
    59    64    63   ar
    60    59    58    1
    61    59    61   ar
    62   112   111    2
    63    19    16    1
    64    16    15    1
    65    63    61   ar
    66   111   110    1
    67   115   117   ar
    68   115   114   ar
    69   117   119   ar
    70    15    13   am
    71   110   113    1
    72   110   109    1
    73   113   114    1
    74   114   116   ar
    75    14    13    2
    76    10     9   ar
    77    10     8   ar
    78    74    72   ar
    79    74    76   ar
    80    13    12    1
    81   119   120    1
    82   119   118   ar
    83    77    76    1
    84    72    71   ar
    85     9     7   ar
    86    76    75   ar
    87     8     6   ar
    88   116   118   ar
    89    66    67    1
    90    12    11    1
    91    71    70    1
    92    71    73   ar
    93    75    73   ar
    94     7     6   ar
    95     6     5    1
    96    70    67    1
    97    11     3   am
    98   106   105    2
    99    67    68    1
   100    69    68    2
   101     3     4    2
   102     3     2    1
   103    68    78   am
   104     5     2    1
   105   105   104    1
   106    88    86   ar
   107    88    87   ar
   108    86    84   ar
   109     2     1    1
   110    97    96    2
   111   102   101    1
   112   104   107    1
   113   104   103    1
   114    87    85   ar
   115    78    79    1
   116    84    83   ar
   117   100   101    1
   118   100    99    1
   119   107   108    1
   120    96   103   am
   121    96    95    1
   122    85    83   ar
   123    83    82    1
   124   140   139   ar
   125    79    82    1
   126    79    80    1
   127    99    98    1
   128    95    98    1
   129    95    94    1
   130    80    81    2
   131    80    89   am
   132   139   141   ar
   133   139   138    1
   134    89    90    1
   135   137   138    1
   136   137   134    1
   137    93    90    1
   138    90    91    1
   139   135   134    1
   140   135   136    2
   141   134   133    1
   142    92    91    2
