@<TRIPOS>MOLECULE
tmp/4bu6B00.pdb
 137 138 0 0 0
SMALL
GASTEIGER

@<TRIPOS>ATOM
      1  N        -50.4040  -39.5160   11.9120 N.3    80  HIS80      -0.1226
      2  CA       -50.6560  -39.8830   13.2830 C.3    80  HIS80       0.1752
      3  C        -50.9850  -38.6650   14.0660 C.2    80  HIS80       0.2597
      4  O        -50.2210  -37.6580   14.0680 O.2    80  HIS80      -0.2718
      5  CB       -49.4230  -40.5920   13.8660 C.3    80  HIS80       0.0759
      6  CG       -49.6280  -41.1730   15.2330 C.ar   80  HIS80       0.0818
      7  ND1      -50.2650  -42.3700   15.4480 N.ar   80  HIS80      -0.2268
      8  CD2      -49.2370  -40.6970   16.4950 C.ar   80  HIS80       0.1154
      9  CE1      -50.3320  -42.6040   16.7960 C.ar   80  HIS80       0.1986
     10  NE2      -49.6540  -41.6030   17.4360 N.ar   80  HIS80      -0.2212
     11  N        -52.1180  -38.7500   14.7480 N.am   81  GLY81      -0.1942
     12  CA       -52.5540  -37.7350   15.7230 C.3    81  GLY81       0.2014
     13  C        -52.4630  -38.3070   17.1120 C.2    81  GLY81       0.2640
     14  O        -52.8340  -39.4570   17.3390 O.2    81  GLY81      -0.2714
     15  N        -52.0620  -37.5050   18.0780 N.am   82  SER82      -0.1936
     16  CA       -51.8750  -37.9890   19.4290 C.3    82  SER82       0.2040
     17  C        -51.6720  -36.8770   20.4510 C.2    82  SER82       0.2485
     18  O        -50.9560  -35.9390   20.1740 O.2    82  SER82      -0.2729
     19  CB       -50.6370  -38.8750   19.5120 C.3    82  SER82       0.2129
     20  OG       -50.4690  -39.3320   20.8530 O.3    82  SER82      -0.2179
     21  N        -52.2440  -37.0170   21.6580 N.am   83  PRO83      -0.2715
     22  CA       -51.7850  -36.1220   22.7420 C.3    83  PRO83       0.1536
     23  C        -50.2780  -36.2240   23.0670 C.2    83  PRO83       0.2598
     24  O        -49.7480  -35.3230   23.6930 O.2    83  PRO83      -0.2715
     25  CB       -52.6220  -36.5780   23.9610 C.3    83  PRO83       0.0310
     26  CG       -53.7800  -37.2940   23.3670 C.3    83  PRO83       0.0237
     27  CD       -53.2220  -37.9960   22.1610 C.3    83  PRO83       0.0939
     28  N        -49.5880  -37.2690   22.6230 N.am   84  PHE84      -0.1974
     29  CA       -48.1630  -37.4920   22.9770 C.3    84  PHE84       0.1639
     30  C        -47.1550  -37.0710   21.9040 C.2    84  PHE84       0.2290
     31  O        -45.9710  -37.4550   21.9220 O.2    84  PHE84      -0.2864
     32  CB       -47.9920  -38.9570   23.3350 C.3    84  PHE84       0.0560
     33  CG       -48.9570  -39.4120   24.3770 C.ar   84  PHE84      -0.0200
     34  CD1      -49.0160  -38.7690   25.6110 C.ar   84  PHE84      -0.0042
     35  CD2      -49.8490  -40.4510   24.1310 C.ar   84  PHE84      -0.0042
     36  CE1      -49.9110  -39.1790   26.5880 C.ar   84  PHE84      -0.0003
     37  CE2      -50.7410  -40.8750   25.1200 C.ar   84  PHE84      -0.0003
     38  CZ       -50.7760  -40.2380   26.3390 C.ar   84  PHE84      -0.0000
     39  N        -47.4860  -45.0510   23.3690 N.3    97  HIS97      -0.1226
     40  CA       -48.2080  -44.3440   22.2850 C.3    97  HIS97       0.1752
     41  C        -49.2750  -45.1830   21.6100 C.2    97  HIS97       0.2596
     42  O        -49.9700  -44.7100   20.6800 O.2    97  HIS97      -0.2718
     43  CB       -47.1870  -43.7870   21.3080 C.3    97  HIS97       0.0759
     44  CG       -46.1290  -43.0160   21.9970 C.ar   97  HIS97       0.0818
     45  ND1      -44.8310  -43.1660   21.7240 N.ar   97  HIS97      -0.2268
     46  CD2      -46.2030  -42.1860   23.1080 C.ar   97  HIS97       0.1154
     47  CE1      -44.1170  -42.4170   22.5860 C.ar   97  HIS97       0.1986
     48  NE2      -44.9560  -41.8280   23.4260 N.ar   97  HIS97      -0.2212
     49  N        -49.4880  -46.3940   22.1410 N.am   98  ALA98      -0.1966
     50  CA       -50.4900  -47.3270   21.6140 C.3    98  ALA98       0.1728
     51  C        -51.8960  -46.9380   21.9710 C.2    98  ALA98       0.2616
     52  O        -52.1480  -46.3600   23.0290 O.2    98  ALA98      -0.2715
     53  CB       -50.2380  -48.7440   22.1380 C.3    98  ALA98       0.0334
     54  N        -52.8380  -47.3110   21.1060 N.am   99  TYR99      -0.1974
     55  CA       -54.2700  -47.1170   21.3790 C.3    99  TYR99       0.1639
     56  C        -54.7570  -48.4340   21.9300 C.2    99  TYR99       0.2290
     57  O        -55.0020  -49.3850   21.1680 O.2    99  TYR99      -0.2864
     58  CB       -55.0100  -46.7050   20.0800 C.3    99  TYR99       0.0560
     59  CG       -56.5020  -46.4970   20.1480 C.ar   99  TYR99      -0.0198
     60  CD1      -57.1880  -46.4340   21.3700 C.ar   99  TYR99      -0.0009
     61  CD2      -57.2480  -46.3670   18.9590 C.ar   99  TYR99      -0.0009
     62  CE1      -58.5710  -46.2420   21.4000 C.ar   99  TYR99       0.0417
     63  CE2      -58.6210  -46.1450   18.9910 C.ar   99  TYR99       0.0417
     64  CZ       -59.2770  -46.1120   20.2220 C.ar   99  TYR99       0.1957
     65  OH       -60.6370  -45.9250   20.2850 O.3    99  TYR99      -0.2866
     66  N        -51.6250  -46.7180   15.8350 N.3   109  TYR109     -0.1227
     67  CA       -52.5460  -46.5780   14.7390 C.3   109  TYR109      0.1736
     68  C        -52.1500  -45.3860   13.8540 C.2   109  TYR109      0.2595
     69  O        -51.8240  -44.3230   14.3910 O.2   109  TYR109     -0.2718
     70  CB       -53.9390  -46.2920   15.2660 C.3   109  TYR109      0.0548
     71  CG       -54.6540  -47.5330   15.7630 C.ar  109  TYR109     -0.0200
     72  CD1      -54.1260  -48.2800   16.8050 C.ar  109  TYR109     -0.0009
     73  CD2      -55.7970  -48.0070   15.1310 C.ar  109  TYR109     -0.0009
     74  CE1      -54.7470  -49.4260   17.2500 C.ar  109  TYR109      0.0417
     75  CE2      -56.4130  -49.1800   15.5690 C.ar  109  TYR109      0.0417
     76  CZ       -55.8830  -49.8850   16.6180 C.ar  109  TYR109      0.1957
     77  OH       -56.4800  -51.0560   17.0800 O.3   109  TYR109     -0.2866
     78  N        -52.2210  -45.5800   12.5410 N.am  110  PHE110     -0.1962
     79  CA       -51.9490  -44.5420   11.5470 C.3   110  PHE110      0.1771
     80  C        -53.0720  -44.4620   10.5410 C.2   110  PHE110      0.2619
     81  O        -53.7930  -45.4460   10.2950 O.2   110  PHE110     -0.2715
     82  CB       -50.6740  -44.8700   10.8180 C.3   110  PHE110      0.0574
     83  CG       -49.4860  -44.8390   11.7160 C.ar  110  PHE110     -0.0200
     84  CD1      -49.1950  -45.9270   12.5110 C.ar  110  PHE110     -0.0042
     85  CD2      -48.7350  -43.6690   11.8770 C.ar  110  PHE110     -0.0042
     86  CE1      -48.1040  -45.9180   13.3640 C.ar  110  PHE110     -0.0003
     87  CE2      -47.6800  -43.6400   12.7720 C.ar  110  PHE110     -0.0003
     88  CZ       -47.3670  -44.7630   13.5130 C.ar  110  PHE110     -0.0000
     89  N        -53.2090  -43.3010    9.9080 N.am  111  ALA111     -0.1977
     90  CA       -54.3320  -43.0550    8.9840 C.3   111  ALA111      0.1597
     91  C        -53.8550  -42.5290    7.6370 C.2   111  ALA111      0.2287
     92  O        -52.9230  -41.7500    7.5900 O.2   111  ALA111     -0.2864
     93  CB       -55.3070  -42.0840    9.6210 C.3   111  ALA111      0.0319
     94  N        -58.8420  -38.2590    9.7840 N.3   116  LYS116     -0.1231
     95  CA       -59.0000  -39.3420   10.7570 C.3   116  LYS116      0.1693
     96  C        -58.0220  -39.1320   11.9280 C.2   116  LYS116      0.2592
     97  O        -58.4160  -39.1650   13.0650 O.2   116  LYS116     -0.2718
     98  CB       -58.8520  -40.7270   10.1070 C.3   116  LYS116      0.0285
     99  CG       -58.6990  -41.8910   11.0950 C.3   116  LYS116      0.0035
    100  CD       -59.8210  -42.0080   12.1380 C.3   116  LYS116      0.0206
    101  CE       -61.1350  -42.3850   11.5700 C.3   116  LYS116      0.1093
    102  NZ       -62.1210  -42.6530   12.6910 N.3   116  LYS116     -0.1314
    103  N        -56.7570  -38.8510   11.6320 N.am  117  SER117     -0.1952
    104  CA       -55.7430  -38.6070   12.6680 C.3   117  SER117      0.1924
    105  C        -56.0490  -37.3100   13.4590 C.2   117  SER117      0.2314
    106  O        -55.8140  -37.2580   14.6560 O.2   117  SER117     -0.2863
    107  CB       -54.3510  -38.5500   12.0610 C.3   117  SER117      0.2116
    108  OG       -53.8230  -39.8370   11.7740 O.3   117  SER117     -0.2180
    109  N        -57.8240  -37.4170   16.9120 N.3   120  TYR120     -0.1241
    110  CA       -57.0610  -37.9230   18.0690 C.3   120  TYR120      0.1605
    111  C        -56.0450  -36.9150   18.6360 C.2   120  TYR120      0.2264
    112  O        -55.3690  -37.2010   19.6320 O.2   120  TYR120     -0.2867
    113  CB       -56.3140  -39.2240   17.7120 C.3   120  TYR120      0.0534
    114  CG       -57.2630  -40.3500   17.4700 C.ar  120  TYR120     -0.0201
    115  CD1      -57.7400  -41.1370   18.5260 C.ar  120  TYR120     -0.0009
    116  CD2      -57.7220  -40.6160   16.1890 C.ar  120  TYR120     -0.0009
    117  CE1      -58.6320  -42.1650   18.2870 C.ar  120  TYR120      0.0417
    118  CE2      -58.6150  -41.6250   15.9470 C.ar  120  TYR120      0.0417
    119  CZ       -59.0690  -42.4060   16.9980 C.ar  120  TYR120      0.1957
    120  OH       -59.9450  -43.4140   16.7090 O.3   120  TYR120     -0.2866
    121  N        -58.5210  -39.5280   22.6140 N.3   124  ILE124     -0.1245
    122  CA       -59.4610  -40.4790   22.0340 C.3   124  ILE124      0.1561
    123  C        -60.8380  -39.8220   22.0210 C.2   124  ILE124      0.2260
    124  O        -61.2840  -39.2680   23.0380 O.2   124  ILE124     -0.2867
    125  CB       -59.4960  -41.7680   22.8620 C.3   124  ILE124      0.0252
    126  CG1      -58.1760  -42.5330   22.7560 C.3   124  ILE124      0.0019
    127  CG2      -60.6980  -42.6240   22.4990 C.3   124  ILE124      0.0019
    128  CD1      -58.0090  -43.4990   23.9280 C.3   124  ILE124      0.0001
    129  N        -56.7260  -47.5450    7.5440 N.3   187  GLU187     -0.1245
    130  CA       -56.0410  -47.3110    8.7660 C.3   187  GLU187      0.1567
    131  C        -55.0960  -48.4860    9.0030 C.2   187  GLU187      0.2260
    132  O        -55.3250  -49.5940    8.4860 O.2   187  GLU187     -0.2867
    133  CB       -57.0450  -47.0920    9.9040 C.3   187  GLU187      0.0388
    134  CG       -58.0010  -45.9430    9.5450 C.3   187  GLU187      0.1160
    135  CD       -59.2560  -45.8620   10.4010 C.2   187  GLU187      0.3649
    136  OE1      -59.2110  -46.3700   11.5290 O.co2 187  GLU187     -0.2457
    137  OE2      -60.2740  -45.2690    9.9390 O.co2 187  GLU187     -0.2457
@<TRIPOS>BOND
     1   129   130    1
     2    92    91    2
     3    91    90    1
     4   132   131    2
     5   130   131    1
     6   130   133    1
     7    90    93    1
     8    90    89    1
     9   134   133    1
    10   134   135    1
    11    94    95    1
    12    89    80   am
    13   137   135   ar
    14    98    95    1
    15    98    99    1
    16    81    80    2
    17   135   136   ar
    18    80    79    1
    19    95    96    1
    20    82    79    1
    21    82    83    1
    22    99   100    1
    23    79    78    1
    24   101   100    1
    25   101   102    1
    26   103    96   am
    27   103   104    1
    28    83    85   ar
    29    83    84   ar
    30   108   107    1
    31    85    87   ar
    32     1     2    1
    33    96    97    2
    34   107   104    1
    35    84    86   ar
    36    78    68   am
    37   104   105    1
    38    87    88   ar
    39     2     5    1
    40     2     3    1
    41    86    88   ar
    42   105   106    2
    43    68    69    2
    44    68    67    1
    45     5     6    1
    46     3     4    2
    47     3    11   am
    48    67    70    1
    49    67    66    1
    50    11    12    1
    51    73    75   ar
    52    73    71   ar
    53     6     7   ar
    54     6     8   ar
    55    70    71    1
    56     7     9   ar
    57    75    76   ar
    58    12    13    1
    59    71    72   ar
    60   118   116   ar
    61   118   119   ar
    62   116   114   ar
    63     8    10   ar
    64    76    77    1
    65    76    74   ar
    66   120   119    1
    67     9    10   ar
    68    72    74   ar
    69   109   110    1
    70   119   117   ar
    71    13    14    2
    72    13    15   am
    73   114   113    1
    74   114   115   ar
    75   113   110    1
    76   110   111    1
    77    15    16    1
    78   117   115   ar
    79   111   112    2
    80    61    63   ar
    81    61    59   ar
    82    63    64   ar
    83    16    19    1
    84    16    17    1
    85    19    20    1
    86    58    59    1
    87    58    55    1
    88    59    60   ar
    89    18    17    2
    90    64    65    1
    91    64    62   ar
    92    17    21   am
    93    42    41    2
    94    54    55    1
    95    54    51   am
    96    57    56    2
    97    43    44    1
    98    43    40    1
    99    60    62   ar
   100    55    56    1
   101    41    49   am
   102    41    40    1
   103    50    51    1
   104    50    53    1
   105    50    49    1
   106    21    27    1
   107    21    22    1
   108    45    44   ar
   109    45    47   ar
   110    30    31    2
   111    30    29    1
   112    51    52    2
   113    44    46   ar
   114   123   122    1
   115   123   124    2
   116   122   121    1
   117   122   125    1
   118    27    26    1
   119    40    39    1
   120   127   125    1
   121    47    48   ar
   122    28    29    1
   123    28    23   am
   124    22    23    1
   125    22    25    1
   126   126   125    1
   127   126   128    1
   128    29    32    1
   129    23    24    2
   130    46    48   ar
   131    32    33    1
   132    26    25    1
   133    35    33   ar
   134    35    37   ar
   135    33    34   ar
   136    37    38   ar
   137    34    36   ar
   138    38    36   ar
