@<TRIPOS>MOLECULE
tmp/4bu8B00.pdb
 137 138 0 0 0
SMALL
GASTEIGER

@<TRIPOS>ATOM
      1  N          4.8030   39.4420   11.9080 N.3    80  HIS80      -0.1226
      2  CA         4.9990   39.8540   13.2860 C.3    80  HIS80       0.1752
      3  C          5.3340   38.6320   14.1170 C.2    80  HIS80       0.2597
      4  O          4.5590   37.6370   14.1150 O.2    80  HIS80      -0.2718
      5  CB         3.7370   40.5140   13.8760 C.3    80  HIS80       0.0759
      6  CG         3.9520   41.0860   15.2430 C.ar   80  HIS80       0.0818
      7  ND1        4.5720   42.2960   15.4510 N.ar   80  HIS80      -0.2268
      8  CD2        3.6380   40.6080   16.4810 C.ar   80  HIS80       0.1154
      9  CE1        4.6200   42.5520   16.7490 C.ar   80  HIS80       0.1986
     10  NE2        4.0970   41.5280   17.3980 N.ar   80  HIS80      -0.2212
     11  N          6.4730   38.7020   14.8030 N.am   81  GLY81      -0.1942
     12  CA         6.9190   37.6650   15.7180 C.3    81  GLY81       0.2014
     13  C          6.8670   38.2270   17.1100 C.2    81  GLY81       0.2640
     14  O          7.2310   39.3820   17.3140 O.2    81  GLY81      -0.2714
     15  N          6.3960   37.4490   18.0760 N.am   82  SER82      -0.1936
     16  CA         6.2960   37.9630   19.4390 C.3    82  SER82       0.2040
     17  C          6.0540   36.8310   20.4450 C.2    82  SER82       0.2485
     18  O          5.3390   35.8840   20.1350 O.2    82  SER82      -0.2729
     19  CB         5.1270   38.9390   19.5470 C.3    82  SER82       0.2129
     20  OG         4.8320   39.3030   20.8890 O.3    82  SER82      -0.2179
     21  N          6.6170   36.9570   21.6530 N.am   83  PRO83      -0.2715
     22  CA         6.1950   36.0330   22.7080 C.3    83  PRO83       0.1536
     23  C          4.7240   36.1870   23.1210 C.2    83  PRO83       0.2598
     24  O          4.2170   35.3180   23.8310 O.2    83  PRO83      -0.2715
     25  CB         7.1130   36.3960   23.9070 C.3    83  PRO83       0.0310
     26  CG         7.6350   37.7410   23.6180 C.3    83  PRO83       0.0237
     27  CD         7.5660   37.9780   22.1340 C.3    83  PRO83       0.0939
     28  N          4.0380   37.2530   22.7010 N.am   84  PHE84      -0.1974
     29  CA         2.6230   37.4860   23.0740 C.3    84  PHE84       0.1639
     30  C          1.6220   37.0500   21.9840 C.2    84  PHE84       0.2290
     31  O          0.4520   37.4350   21.9900 O.2    84  PHE84      -0.2864
     32  CB         2.4350   38.9650   23.4140 C.3    84  PHE84       0.0560
     33  CG         3.4710   39.5010   24.3770 C.ar   84  PHE84      -0.0200
     34  CD1        3.7540   38.8260   25.5670 C.ar   84  PHE84      -0.0042
     35  CD2        4.1780   40.6630   24.0920 C.ar   84  PHE84      -0.0042
     36  CE1        4.7190   39.3190   26.4580 C.ar   84  PHE84      -0.0003
     37  CE2        5.1340   41.1610   24.9800 C.ar   84  PHE84      -0.0003
     38  CZ         5.4030   40.4920   26.1620 C.ar   84  PHE84      -0.0000
     39  N          1.8970   45.1380   23.4250 N.3    97  HIS97      -0.1226
     40  CA         2.6640   44.3810   22.3950 C.3    97  HIS97       0.1752
     41  C          3.7480   45.2050   21.6810 C.2    97  HIS97       0.2596
     42  O          4.4280   44.7210   20.7390 O.2    97  HIS97      -0.2718
     43  CB         1.6780   43.7300   21.4320 C.3    97  HIS97       0.0759
     44  CG         0.6060   42.9860   22.1500 C.ar   97  HIS97       0.0818
     45  ND1       -0.7250   43.1810   21.9030 N.ar   97  HIS97      -0.2268
     46  CD2        0.6660   42.1230   23.1870 C.ar   97  HIS97       0.1154
     47  CE1       -1.4420   42.4260   22.7070 C.ar   97  HIS97       0.1986
     48  NE2       -0.6230   41.7920   23.5120 N.ar   97  HIS97      -0.2212
     49  N          3.9470   46.4220   22.1820 N.am   98  ALA98      -0.1966
     50  CA         4.9420   47.3370   21.6550 C.3    98  ALA98       0.1728
     51  C          6.3480   46.8980   22.0010 C.2    98  ALA98       0.2616
     52  O          6.5840   46.2530   23.0360 O.2    98  ALA98      -0.2715
     53  CB         4.7130   48.7360   22.2040 C.3    98  ALA98       0.0334
     54  N          7.2800   47.2720   21.1280 N.am   99  TYR99      -0.1974
     55  CA         8.7170   47.1130   21.3820 C.3    99  TYR99       0.1639
     56  C          9.1860   48.4550   21.8960 C.2    99  TYR99       0.2290
     57  O          9.4660   49.3810   21.1180 O.2    99  TYR99      -0.2864
     58  CB         9.4520   46.6870   20.1000 C.3    99  TYR99       0.0560
     59  CG        10.9470   46.4710   20.1880 C.ar   99  TYR99      -0.0198
     60  CD1       11.6370   46.3710   21.4200 C.ar   99  TYR99      -0.0009
     61  CD2       11.6890   46.3590   19.0210 C.ar   99  TYR99      -0.0009
     62  CE1       13.0100   46.1720   21.4560 C.ar   99  TYR99       0.0417
     63  CE2       13.0400   46.1550   19.0480 C.ar   99  TYR99       0.0417
     64  CZ        13.7000   46.0840   20.2570 C.ar   99  TYR99       0.1957
     65  OH        15.0360   45.8890   20.2120 O.3    99  TYR99      -0.2866
     66  N          6.0060   46.7080   15.8930 N.3   109  TYR109     -0.1227
     67  CA         6.8940   46.5470   14.7680 C.3   109  TYR109      0.1736
     68  C          6.4870   45.3620   13.8770 C.2   109  TYR109      0.2595
     69  O          6.1360   44.3070   14.3890 O.2   109  TYR109     -0.2718
     70  CB         8.3330   46.3170   15.2730 C.3   109  TYR109      0.0548
     71  CG         8.9960   47.5840   15.7700 C.ar  109  TYR109     -0.0200
     72  CD1        8.4650   48.2950   16.8370 C.ar  109  TYR109     -0.0009
     73  CD2       10.1490   48.0690   15.1680 C.ar  109  TYR109     -0.0009
     74  CE1        9.0680   49.4730   17.3000 C.ar  109  TYR109      0.0417
     75  CE2       10.7360   49.2650   15.6030 C.ar  109  TYR109      0.0417
     76  CZ        10.1790   49.9630   16.6680 C.ar  109  TYR109      0.1957
     77  OH        10.7500   51.1550   17.1100 O.3   109  TYR109     -0.2866
     78  N          6.6390   45.5320   12.5640 N.am  110  PHE110     -0.1962
     79  CA         6.2920   44.5280   11.5570 C.3   110  PHE110      0.1771
     80  C          7.4240   44.4520   10.5420 C.2   110  PHE110      0.2619
     81  O          8.1340   45.4400   10.3200 O.2   110  PHE110     -0.2715
     82  CB         4.9820   44.8920   10.8630 C.3   110  PHE110      0.0574
     83  CG         3.7970   44.8600   11.7690 C.ar  110  PHE110     -0.0200
     84  CD1        3.4710   45.9750   12.5140 C.ar  110  PHE110     -0.0042
     85  CD2        3.0520   43.7070   11.9320 C.ar  110  PHE110     -0.0042
     86  CE1        2.4110   45.9560   13.3960 C.ar  110  PHE110     -0.0003
     87  CE2        1.9970   43.6700   12.8090 C.ar  110  PHE110     -0.0003
     88  CZ         1.6620   44.7920   13.5370 C.ar  110  PHE110     -0.0000
     89  N          7.5930   43.2920    9.9180 N.am  111  ALA111     -0.1977
     90  CA         8.6860   43.0740    8.9650 C.3   111  ALA111      0.1597
     91  C          8.1990   42.5430    7.6330 C.2   111  ALA111      0.2287
     92  O          7.3020   41.6860    7.5750 O.2   111  ALA111     -0.2864
     93  CB         9.6960   42.0970    9.5430 C.3   111  ALA111      0.0319
     94  N         13.1930   38.1990    9.8960 N.3   116  LYS116     -0.1231
     95  CA        13.3570   39.3090   10.8620 C.3   116  LYS116      0.1693
     96  C         12.3570   39.1020   12.0250 C.2   116  LYS116      0.2592
     97  O         12.7540   39.1310   13.1890 O.2   116  LYS116     -0.2718
     98  CB        13.1740   40.6770   10.1800 C.3   116  LYS116      0.0285
     99  CG        12.9970   41.8650   11.1270 C.3   116  LYS116      0.0035
    100  CD        14.1300   41.9760   12.1510 C.3   116  LYS116      0.0206
    101  CE        15.4620   42.2170   11.5560 C.3   116  LYS116      0.1093
    102  NZ        16.4120   42.6860   12.6450 N.3   116  LYS116     -0.1314
    103  N         11.0860   38.8490   11.7040 N.am  117  SER117     -0.1952
    104  CA        10.0990   38.5590   12.7300 C.3   117  SER117      0.1924
    105  C         10.4430   37.2790   13.5070 C.2   117  SER117      0.2314
    106  O         10.1890   37.1940   14.7350 O.2   117  SER117     -0.2863
    107  CB         8.6860   38.4920   12.1430 C.3   117  SER117      0.2116
    108  OG         8.2270   39.7340   11.7540 O.3   117  SER117     -0.2180
    109  N         12.1370   37.4620   16.9310 N.3   120  TYR120     -0.1241
    110  CA        11.3820   37.9320   18.0940 C.3   120  TYR120      0.1605
    111  C         10.3980   36.9090   18.6810 C.2   120  TYR120      0.2264
    112  O          9.7290   37.1810   19.6810 O.2   120  TYR120     -0.2867
    113  CB        10.6480   39.2510   17.7850 C.3   120  TYR120      0.0534
    114  CG        11.6010   40.3650   17.4970 C.ar  120  TYR120     -0.0201
    115  CD1       12.0700   40.5980   16.1960 C.ar  120  TYR120     -0.0009
    116  CD2       12.1010   41.1580   18.5320 C.ar  120  TYR120     -0.0009
    117  CE1       13.0060   41.5730   15.9490 C.ar  120  TYR120      0.0417
    118  CE2       13.0180   42.1690   18.2750 C.ar  120  TYR120      0.0417
    119  CZ        13.4780   42.3500   16.9860 C.ar  120  TYR120      0.1957
    120  OH        14.3730   43.3370   16.7340 O.3   120  TYR120     -0.2866
    121  N         12.8040   39.6000   22.6570 N.3   124  ILE124     -0.1245
    122  CA        13.7810   40.5280   22.1050 C.3   124  ILE124      0.1561
    123  C         15.1400   39.8420   22.0550 C.2   124  ILE124      0.2260
    124  O         15.5770   39.2440   23.0150 O.2   124  ILE124     -0.2867
    125  CB        13.8390   41.8210   22.9430 C.3   124  ILE124      0.0252
    126  CG1       12.5250   42.5760   22.8120 C.3   124  ILE124      0.0019
    127  CG2       14.9990   42.6840   22.5150 C.3   124  ILE124      0.0019
    128  CD1       12.2820   43.5480   23.9270 C.3   124  ILE124      0.0001
    129  N         11.1030   47.4680    7.5810 N.3   187  GLU187     -0.1245
    130  CA        10.3820   47.2530    8.8260 C.3   187  GLU187      0.1567
    131  C          9.4540   48.4280    9.0200 C.2   187  GLU187      0.2260
    132  O          9.7070   49.5200    8.4910 O.2   187  GLU187     -0.2867
    133  CB        11.3880   47.0840    9.9790 C.3   187  GLU187      0.0388
    134  CG        12.3090   45.9030    9.6940 C.3   187  GLU187      0.1160
    135  CD        13.6260   45.8620   10.4840 C.2   187  GLU187      0.3649
    136  OE1       13.6540   46.3900   11.6210 O.co2 187  GLU187     -0.2457
    137  OE2       14.6140   45.2690    9.9580 O.co2 187  GLU187     -0.2457
@<TRIPOS>BOND
     1    92    91    2
     2   129   130    1
     3    91    90    1
     4   132   131    2
     5   130   131    1
     6   130   133    1
     7    90    93    1
     8    90    89    1
     9   134   133    1
    10   134   135    1
    11    94    95    1
    12    89    80   am
    13   137   135   ar
    14    98    95    1
    15    98    99    1
    16    81    80    2
    17   135   136   ar
    18    80    79    1
    19    95    96    1
    20    82    79    1
    21    82    83    1
    22    99   100    1
    23   101   100    1
    24   101   102    1
    25    79    78    1
    26   103    96   am
    27   103   104    1
    28   108   107    1
    29    83    85   ar
    30    83    84   ar
    31     1     2    1
    32    85    87   ar
    33    96    97    2
    34   107   104    1
    35    84    86   ar
    36    78    68   am
    37   104   105    1
    38    87    88   ar
    39     2     5    1
    40     2     3    1
    41    86    88   ar
    42   105   106    2
    43     5     6    1
    44    68    69    2
    45    68    67    1
    46     4     3    2
    47     3    11   am
    48    67    70    1
    49    67    66    1
    50    11    12    1
    51    73    75   ar
    52    73    71   ar
    53     6     7   ar
    54     6     8   ar
    55    70    71    1
    56     7     9   ar
    57    75    76   ar
    58    12    13    1
    59    71    72   ar
    60   117   115   ar
    61   117   119   ar
    62   115   114   ar
    63     8    10   ar
    64    76    77    1
    65    76    74   ar
    66   120   119    1
    67     9    10   ar
    68    72    74   ar
    69   109   110    1
    70   119   118   ar
    71    13    14    2
    72    13    15   am
    73   114   113    1
    74   114   116   ar
    75   113   110    1
    76    15    16    1
    77   110   111    1
    78   118   116   ar
    79   111   112    2
    80    61    63   ar
    81    61    59   ar
    82    63    64   ar
    83    16    19    1
    84    16    17    1
    85    19    20    1
    86    58    59    1
    87    58    55    1
    88    18    17    2
    89    59    60   ar
    90    65    64    1
    91    64    62   ar
    92    17    21   am
    93    42    41    2
    94    57    56    2
    95    54    55    1
    96    54    51   am
    97    55    56    1
    98    60    62   ar
    99    43    44    1
   100    43    40    1
   101    21    27    1
   102    21    22    1
   103    50    51    1
   104    50    49    1
   105    50    53    1
   106    41    49   am
   107    41    40    1
   108    45    44   ar
   109    45    47   ar
   110    30    31    2
   111    30    29    1
   112    51    52    2
   113   123   122    1
   114   123   124    2
   115   122   121    1
   116   122   125    1
   117    27    26    1
   118    44    46   ar
   119    40    39    1
   120   127   125    1
   121    28    29    1
   122    28    23   am
   123    47    48   ar
   124    22    23    1
   125    22    25    1
   126   126   125    1
   127   126   128    1
   128    29    32    1
   129    23    24    2
   130    46    48   ar
   131    32    33    1
   132    26    25    1
   133    35    33   ar
   134    35    37   ar
   135    33    34   ar
   136    37    38   ar
   137    34    36   ar
   138    38    36   ar
