@<TRIPOS>MOLECULE
tmp/4buaB00.pdb
 148 149 0 0 0
SMALL
GASTEIGER

@<TRIPOS>ATOM
      1  N         -4.8300   39.5320  -11.9120 N.3    80  HIS80      -0.1226
      2  CA        -5.0560   39.9140  -13.3010 C.3    80  HIS80       0.1752
      3  C         -5.3780   38.7050  -14.1490 C.2    80  HIS80       0.2597
      4  O         -4.5980   37.7150  -14.1650 O.2    80  HIS80      -0.2718
      5  CB        -3.8210   40.5930  -13.8800 C.3    80  HIS80       0.0759
      6  CG        -4.0240   41.1770  -15.2380 C.ar   80  HIS80       0.0818
      7  ND1       -4.6060   42.4120  -15.4370 N.ar   80  HIS80      -0.2268
      8  CD2       -3.6860   40.7200  -16.4770 C.ar   80  HIS80       0.1154
      9  CE1       -4.6370   42.6830  -16.7300 C.ar   80  HIS80       0.1986
     10  NE2       -4.0850   41.6770  -17.3830 N.ar   80  HIS80      -0.2212
     11  N         -6.5140   38.7750  -14.8390 N.am   81  GLY81      -0.1942
     12  CA        -6.9480   37.7290  -15.7540 C.3    81  GLY81       0.2014
     13  C         -6.8970   38.3290  -17.1550 C.2    81  GLY81       0.2640
     14  O         -7.2370   39.5000  -17.3320 O.2    81  GLY81      -0.2714
     15  N         -6.4610   37.5480  -18.1460 N.am   82  SER82      -0.1936
     16  CA        -6.3310   38.0880  -19.4990 C.3    82  SER82       0.2040
     17  C         -6.0690   36.9720  -20.5130 C.2    82  SER82       0.2485
     18  O         -5.3400   36.0160  -20.2000 O.2    82  SER82      -0.2729
     19  CB        -5.1770   39.0770  -19.5380 C.3    82  SER82       0.2129
     20  OG        -4.7730   39.3930  -20.8640 O.3    82  SER82      -0.2179
     21  N         -6.6290   37.1030  -21.7230 N.am   83  PRO83      -0.2715
     22  CA        -6.1860   36.2330  -22.8340 C.3    83  PRO83       0.1536
     23  C         -4.6930   36.3220  -23.1700 C.2    83  PRO83       0.2598
     24  O         -4.1760   35.4240  -23.8140 O.2    83  PRO83      -0.2715
     25  CB        -6.9950   36.7420  -24.0520 C.3    83  PRO83       0.0310
     26  CG        -8.0100   37.6650  -23.5230 C.3    83  PRO83       0.0237
     27  CD        -7.5810   38.1390  -22.1740 C.3    83  PRO83       0.0939
     28  N         -4.0050   37.3920  -22.7740 N.am   84  PHE84      -0.1974
     29  CA        -2.5990   37.5620  -23.1220 C.3    84  PHE84       0.1639
     30  C         -1.6300   37.1210  -22.0070 C.2    84  PHE84       0.2290
     31  O         -0.4690   37.4900  -22.0370 O.2    84  PHE84      -0.2864
     32  CB        -2.3490   39.0210  -23.4890 C.3    84  PHE84       0.0560
     33  CG        -3.2240   39.5160  -24.6240 C.ar   84  PHE84      -0.0200
     34  CD1       -2.9820   39.1040  -25.9370 C.ar   84  PHE84      -0.0042
     35  CD2       -4.2700   40.3780  -24.3910 C.ar   84  PHE84      -0.0042
     36  CE1       -3.7860   39.5480  -26.9910 C.ar   84  PHE84      -0.0003
     37  CE2       -5.0810   40.8380  -25.4460 C.ar   84  PHE84      -0.0003
     38  CZ        -4.8390   40.4220  -26.7420 C.ar   84  PHE84      -0.0000
     39  N         -0.6270   46.8090  -25.1700 N.3    96  ARG96      -0.1231
     40  CA        -1.4010   45.7230  -25.7910 C.3    96  ARG96       0.1694
     41  C         -2.2970   45.0020  -24.7810 C.2    96  ARG96       0.2592
     42  O         -3.2500   44.3130  -25.1620 O.2    96  ARG96      -0.2718
     43  CB        -0.4670   44.6820  -26.4100 C.3    96  ARG96       0.0321
     44  CG         0.4280   45.1780  -27.5430 C.3    96  ARG96       0.0489
     45  CD         1.5110   44.1560  -27.8640 C.3    96  ARG96       0.2205
     46  NE         2.6060   44.1790  -26.8890 N.pl3  96  ARG96      -0.0865
     47  CZ         3.7220   43.4500  -26.9740 C.cat  96  ARG96       0.5346
     48  NH1        3.9130   42.6160  -27.9930 N.pl3  96  ARG96       0.1354
     49  NH2        4.6640   43.5550  -26.0390 N.pl3  96  ARG96       0.1354
     50  N         -1.9950   45.1690  -23.4900 N.am   97  HIS97      -0.1962
     51  CA        -2.7200   44.4260  -22.4430 C.3    97  HIS97       0.1787
     52  C         -3.7640   45.2460  -21.7030 C.2    97  HIS97       0.2620
     53  O         -4.4000   44.7550  -20.7310 O.2    97  HIS97      -0.2715
     54  CB        -1.7260   43.8030  -21.4880 C.3    97  HIS97       0.0785
     55  CG        -0.6360   43.0850  -22.1940 C.ar   97  HIS97       0.0821
     56  ND1        0.6880   43.3140  -21.9260 N.ar   97  HIS97      -0.2267
     57  CD2       -0.6640   42.2330  -23.2400 C.ar   97  HIS97       0.1154
     58  CE1        1.4330   42.5770  -22.7230 C.ar   97  HIS97       0.1986
     59  NE2        0.6400   41.9200  -23.5370 N.ar   97  HIS97      -0.2212
     60  N         -3.9920   46.4580  -22.2090 N.am   98  ALA98      -0.1963
     61  CA        -4.9860   47.3670  -21.6740 C.3    98  ALA98       0.1728
     62  C         -6.3960   46.9730  -22.0480 C.2    98  ALA98       0.2616
     63  O         -6.6500   46.3740  -23.1110 O.2    98  ALA98      -0.2715
     64  CB        -4.7210   48.7890  -22.1450 C.3    98  ALA98       0.0334
     65  N         -7.3190   47.3360  -21.1610 N.am   99  TYR99      -0.1974
     66  CA        -8.7650   47.1820  -21.3880 C.3    99  TYR99       0.1639
     67  C         -9.1940   48.5270  -21.9000 C.2    99  TYR99       0.2290
     68  O         -9.3870   49.4580  -21.1200 O.2    99  TYR99      -0.2864
     69  CB        -9.4980   46.8200  -20.0800 C.3    99  TYR99       0.0560
     70  CG       -11.0170   46.6270  -20.1550 C.ar   99  TYR99      -0.0198
     71  CD1      -11.7050   46.5550  -21.3770 C.ar   99  TYR99      -0.0009
     72  CD2      -11.7700   46.4800  -18.9810 C.ar   99  TYR99      -0.0009
     73  CE1      -13.0650   46.3640  -21.4180 C.ar   99  TYR99       0.0417
     74  CE2      -13.1290   46.2790  -19.0210 C.ar   99  TYR99       0.0417
     75  CZ       -13.7750   46.2530  -20.2460 C.ar   99  TYR99       0.1957
     76  OH       -15.1120   46.0780  -20.2840 O.3    99  TYR99      -0.2866
     77  N         -6.0480   46.8110  -15.9070 N.3   109  TYR109     -0.1227
     78  CA        -6.9400   46.6310  -14.7830 C.3   109  TYR109      0.1736
     79  C         -6.5620   45.4300  -13.9250 C.2   109  TYR109      0.2595
     80  O         -6.2440   44.3790  -14.4780 O.2   109  TYR109     -0.2718
     81  CB        -8.3730   46.4290  -15.2760 C.3   109  TYR109      0.0548
     82  CG        -9.0320   47.7050  -15.7580 C.ar  109  TYR109     -0.0200
     83  CD1       -8.5640   48.3990  -16.8620 C.ar  109  TYR109     -0.0009
     84  CD2      -10.0990   48.2450  -15.0640 C.ar  109  TYR109     -0.0009
     85  CE1       -9.1850   49.5820  -17.3040 C.ar  109  TYR109      0.0417
     86  CE2      -10.7020   49.4270  -15.4840 C.ar  109  TYR109      0.0417
     87  CZ       -10.2460   50.0960  -16.6040 C.ar  109  TYR109      0.1957
     88  OH       -10.8750   51.2960  -16.9850 O.3   109  TYR109     -0.2866
     89  N         -6.6840   45.5990  -12.5990 N.am  110  PHE110     -0.1962
     90  CA        -6.3990   44.5860  -11.6060 C.3   110  PHE110      0.1771
     91  C         -7.5340   44.5350  -10.5720 C.2   110  PHE110      0.2619
     92  O         -8.2470   45.5180  -10.3530 O.2   110  PHE110     -0.2715
     93  CB        -5.0690   44.8810  -10.8760 C.3   110  PHE110      0.0574
     94  CG        -3.8740   44.8900  -11.7770 C.ar  110  PHE110     -0.0200
     95  CD1       -3.5660   46.0250  -12.4900 C.ar  110  PHE110     -0.0042
     96  CD2       -3.0780   43.7580  -11.9420 C.ar  110  PHE110     -0.0042
     97  CE1       -2.4990   46.0590  -13.3540 C.ar  110  PHE110     -0.0003
     98  CE2       -2.0010   43.7730  -12.8140 C.ar  110  PHE110     -0.0003
     99  CZ        -1.7070   44.9250  -13.5230 C.ar  110  PHE110     -0.0000
    100  N         -7.6920   43.3840   -9.9230 N.am  111  ALA111     -0.1977
    101  CA        -8.7510   43.1620   -8.9470 C.3   111  ALA111      0.1597
    102  C         -8.2420   42.6250   -7.6280 C.2   111  ALA111      0.2287
    103  O         -7.3540   41.7360   -7.5900 O.2   111  ALA111     -0.2864
    104  CB        -9.7460   42.1580   -9.4850 C.3   111  ALA111      0.0319
    105  N        -13.2700   38.2790   -9.9240 N.3   116  LYS116     -0.1231
    106  CA       -13.4240   39.3870  -10.8700 C.3   116  LYS116      0.1693
    107  C        -12.4260   39.1740  -12.0290 C.2   116  LYS116      0.2592
    108  O        -12.8040   39.2020  -13.1700 O.2   116  LYS116     -0.2718
    109  CB       -13.2130   40.7420  -10.1990 C.3   116  LYS116      0.0285
    110  CG       -13.0520   41.9470  -11.1560 C.3   116  LYS116      0.0035
    111  CD       -14.1670   42.1090  -12.1660 C.3   116  LYS116      0.0206
    112  CE       -15.5180   42.2510  -11.5420 C.3   116  LYS116      0.1093
    113  NZ       -16.4350   42.7330  -12.6390 N.3   116  LYS116     -0.1314
    114  N        -11.1690   38.8930  -11.6970 N.am  117  SER117     -0.1952
    115  CA       -10.1510   38.6400  -12.7240 C.3   117  SER117      0.1924
    116  C        -10.4580   37.3630  -13.5180 C.2   117  SER117      0.2314
    117  O        -10.1770   37.2920  -14.7250 O.2   117  SER117     -0.2863
    118  CB        -8.7630   38.6070  -12.0970 C.3   117  SER117      0.2116
    119  OG        -8.3250   39.8890  -11.7490 O.3   117  SER117     -0.2180
    120  N        -12.1590   37.5070  -16.9610 N.3   120  TYR120     -0.1241
    121  CA       -11.4150   37.9890  -18.1240 C.3   120  TYR120      0.1605
    122  C        -10.4160   36.9870  -18.7110 C.2   120  TYR120      0.2264
    123  O         -9.7290   37.3030  -19.7080 O.2   120  TYR120     -0.2867
    124  CB       -10.6930   39.2800  -17.8020 C.3   120  TYR120      0.0534
    125  CG       -11.6700   40.4010  -17.5130 C.ar  120  TYR120     -0.0201
    126  CD1      -12.1840   41.1740  -18.5470 C.ar  120  TYR120     -0.0009
    127  CD2      -12.1250   40.6420  -16.2130 C.ar  120  TYR120     -0.0009
    128  CE1      -13.0870   42.1900  -18.2930 C.ar  120  TYR120      0.0417
    129  CE2      -13.0500   41.6340  -15.9630 C.ar  120  TYR120      0.0417
    130  CZ       -13.5350   42.3880  -17.0020 C.ar  120  TYR120      0.1957
    131  OH       -14.4400   43.3780  -16.7500 O.3   120  TYR120     -0.2866
    132  N        -12.9070   39.7260  -22.6670 N.3   124  ILE124     -0.1245
    133  CA       -13.9160   40.6310  -22.0520 C.3   124  ILE124      0.1561
    134  C        -15.2810   39.9290  -22.0090 C.2   124  ILE124      0.2260
    135  O        -15.7170   39.3450  -23.0000 O.2   124  ILE124     -0.2867
    136  CB       -13.9380   41.9350  -22.8660 C.3   124  ILE124      0.0252
    137  CG1      -12.6100   42.6660  -22.6880 C.3   124  ILE124      0.0019
    138  CG2      -15.1160   42.8160  -22.4920 C.3   124  ILE124      0.0019
    139  CD1      -12.3350   43.7150  -23.7430 C.3   124  ILE124      0.0001
    140  N        -11.1860   47.5540   -7.5520 N.3   187  GLU187     -0.1245
    141  CA       -10.4720   47.3360   -8.7940 C.3   187  GLU187      0.1567
    142  C         -9.5270   48.5130   -9.0030 C.2   187  GLU187      0.2260
    143  O         -9.7710   49.6210   -8.4650 O.2   187  GLU187     -0.2867
    144  CB       -11.4970   47.1500   -9.9040 C.3   187  GLU187      0.0388
    145  CG       -12.4340   45.9850   -9.5560 C.3   187  GLU187      0.1160
    146  CD       -13.6640   45.8710  -10.4230 C.2   187  GLU187      0.3649
    147  OE1      -13.6370   46.4150  -11.5460 O.co2 187  GLU187     -0.2457
    148  OE2      -14.6420   45.2130   -9.9810 O.co2 187  GLU187     -0.2457
@<TRIPOS>BOND
     1    48    47    1
     2    45    44    1
     3    45    46    1
     4    44    43    1
     5    36    38   ar
     6    36    34   ar
     7    47    46    2
     8    47    49    1
     9    38    37   ar
    10    43    40    1
    11    34    33   ar
    12    40    39    1
    13    40    41    1
    14    37    35   ar
    15    42    41    2
    16    41    50   am
    17    33    35   ar
    18    33    32    1
    19    25    26    1
    20    25    22    1
    21    24    23    2
    22   139   137    1
    23    59    57   ar
    24    59    58   ar
    25    26    27    1
    26    50    51    1
    27    32    29    1
    28    57    55   ar
    29    23    22    1
    30    23    28   am
    31    29    28    1
    32    29    30    1
    33    63    62    2
    34   135   134    2
    35   136   137    1
    36   136   138    1
    37   136   133    1
    38    22    21    1
    39    58    56   ar
    40   132   133    1
    41    51    52    1
    42    51    54    1
    43    60    52   am
    44    60    61    1
    45    55    56   ar
    46    55    54    1
    47    27    21    1
    48    64    61    1
    49   133   134    1
    50    62    61    1
    51    62    65   am
    52    31    30    2
    53    67    66    1
    54    67    68    2
    55    21    17   am
    56    52    53    2
    57    73    71   ar
    58    73    75   ar
    59    66    65    1
    60    66    69    1
    61    71    70   ar
    62    20    19    1
    63    17    18    2
    64    17    16    1
    65    76    75    1
    66    75    74   ar
    67    70    69    1
    68    70    72   ar
    69   123   122    2
    70    19    16    1
    71    16    15    1
    72    74    72   ar
    73   122   121    1
    74   126   128   ar
    75   126   125   ar
    76   128   130   ar
    77    15    13   am
    78   121   124    1
    79   121   120    1
    80   124   125    1
    81   125   127   ar
    82    10     9   ar
    83    10     8   ar
    84    14    13    2
    85    85    83   ar
    86    85    87   ar
    87    13    12    1
    88   130   131    1
    89   130   129   ar
    90    88    87    1
    91    83    82   ar
    92     9     7   ar
    93    87    86   ar
    94     8     6   ar
    95   127   129   ar
    96    77    78    1
    97    82    81    1
    98    82    84   ar
    99    12    11    1
   100    86    84   ar
   101     7     6   ar
   102    81    78    1
   103     6     5    1
   104    11     3   am
   105    78    79    1
   106   117   116    2
   107    80    79    2
   108     4     3    2
   109     3     2    1
   110    79    89   am
   111     5     2    1
   112    99    97   ar
   113    99    98   ar
   114   116   115    1
   115    97    95   ar
   116     2     1    1
   117   108   107    2
   118    98    96   ar
   119   115   118    1
   120   115   114    1
   121   113   112    1
   122    89    90    1
   123    95    94   ar
   124   111   112    1
   125   111   110    1
   126   118   119    1
   127   107   114   am
   128   107   106    1
   129    96    94   ar
   130    94    93    1
   131    90    93    1
   132    90    91    1
   133   147   146   ar
   134   110   109    1
   135   106   109    1
   136   106   105    1
   137    91    92    2
   138    91   100   am
   139   146   148   ar
   140   146   145    1
   141   100   101    1
   142   144   145    1
   143   144   141    1
   144   104   101    1
   145   142   141    1
   146   142   143    2
   147   101   102    1
   148   141   140    1
   149   102   103    2
