@<TRIPOS>MOLECULE
tmp/4bubB00.pdb
 162 156 0 0 0
SMALL
GASTEIGER

@<TRIPOS>ATOM
      1  N         50.3380  -28.3660   40.0510 N.3   107  THR107     -0.1203
      2  CA        51.7600  -28.0140   40.0530 C.3   107  THR107      0.1994
      3  C         52.2520  -27.7130   38.6330 C.2   107  THR107      0.2618
      4  O         52.5970  -26.5660   38.3250 O.2   107  THR107     -0.2717
      5  CB        52.6270  -29.1160   40.6870 C.3   107  THR107      0.1784
      6  OG1       51.9030  -29.7440   41.7530 O.3   107  THR107     -0.2211
      7  CG2       53.9080  -28.5350   41.2120 C.3   107  THR107      0.0376
      8  N         52.2770  -28.7390   37.7780 N.am  108  ASN108     -0.1960
      9  CA        52.5490  -28.5600   36.3540 C.3   108  ASN108      0.1819
     10  C         51.2890  -28.7520   35.5670 C.2   108  ASN108      0.2622
     11  O         50.3350  -29.3420   36.0570 O.2   108  ASN108     -0.2715
     12  CB        53.5600  -29.5800   35.8650 C.3   108  ASN108      0.1195
     13  CG        54.8840  -29.4470   36.5490 C.2   108  ASN108      0.2630
     14  OD1       55.1280  -30.0790   37.5920 O.2   108  ASN108     -0.2716
     15  ND2       55.7580  -28.6140   35.9770 N.am  108  ASN108     -0.0877
     16  N         51.2860  -28.2640   34.3360 N.am  109  GLY109     -0.1940
     17  CA        50.2220  -28.6020   33.4140 C.3   109  GLY109      0.2014
     18  C         49.2220  -27.4930   33.2110 C.2   109  GLY109      0.2639
     19  O         48.4500  -27.5210   32.2550 O.2   109  GLY109     -0.2714
     20  N         49.2410  -26.5060   34.0980 N.am  110  LYS110     -0.1963
     21  CA        48.2250  -25.4540   34.0890 C.3   110  LYS110      0.1728
     22  C         48.0260  -24.8080   32.7140 C.2   110  LYS110      0.2617
     23  O         46.9050  -24.7830   32.2040 O.2   110  LYS110     -0.2715
     24  CB        48.5230  -24.3810   35.1390 C.3   110  LYS110      0.0311
     25  CG        47.9670  -24.6660   36.5240 C.3   110  LYS110      0.0038
     26  CD        49.0730  -24.8250   37.5540 C.3   110  LYS110      0.0206
     27  CE        49.8250  -23.5240   37.8320 C.3   110  LYS110      0.1093
     28  NZ        50.8610  -23.6880   38.9050 N.3   110  LYS110     -0.1314
     29  N         49.1080  -24.2980   32.1200 N.am  111  THR111     -0.1937
     30  CA        49.0120  -23.4810   30.9040 C.3   111  THR111      0.2028
     31  C         48.7090  -24.3090   29.6620 C.2   111  THR111      0.2642
     32  O         48.0130  -23.8400   28.7720 O.2   111  THR111     -0.2714
     33  CB        50.2630  -22.5950   30.6700 C.3   111  THR111      0.1808
     34  OG1       50.6750  -22.0030   31.9060 O.3   111  THR111     -0.2208
     35  CG2       49.9680  -21.4730   29.6760 C.3   111  THR111      0.0379
     36  N         49.2100  -25.5390   29.6040 N.am  112  THR112     -0.1950
     37  CA        48.8280  -26.4510   28.5250 C.3   112  THR112      0.1897
     38  C         47.3370  -26.8510   28.5990 C.2   112  THR112      0.2313
     39  O         46.5560  -26.5430   27.6890 O.2   112  THR112     -0.2863
     40  CB        49.7230  -27.7060   28.4800 C.3   112  THR112      0.1794
     41  OG1       51.0310  -27.3390   28.0380 O.3   112  THR112     -0.2208
     42  CG2       49.1760  -28.7070   27.5030 C.3   112  THR112      0.0378
     43  N         49.8000  -17.5190   32.2150 N.3   130  THR130     -0.1218
     44  CA        51.0830  -16.8650   32.4740 C.3   130  THR130      0.1862
     45  C         51.7830  -16.5430   31.1920 C.2   130  THR130      0.2287
     46  O         52.6700  -15.6850   31.1800 O.2   130  THR130     -0.2866
     47  CB        52.0590  -17.7490   33.2470 C.3   130  THR130      0.1770
     48  OG1       52.3190  -18.9290   32.4840 O.3   130  THR130     -0.2211
     49  CG2       51.5050  -18.1200   34.6190 C.3   130  THR130      0.0375
     50  N         43.9900  -19.9970   34.0470 N.3   169  GLU169     -0.1245
     51  CA        44.9760  -20.7170   34.8360 C.3   169  GLU169      0.1567
     52  C         44.9830  -20.1530   36.2480 C.2   169  GLU169      0.2260
     53  O         45.0400  -18.9430   36.4250 O.2   169  GLU169     -0.2867
     54  CB        46.3540  -20.5700   34.2060 C.3   169  GLU169      0.0388
     55  CG        47.4570  -21.2780   34.9710 C.3   169  GLU169      0.1160
     56  CD        48.8430  -20.9060   34.4750 C.2   169  GLU169      0.3649
     57  OE1       48.9520  -20.3940   33.3330 O.co2 169  GLU169     -0.2457
     58  OE2       49.8230  -21.1260   35.2310 O.co2 169  GLU169     -0.2457
     59  N         45.1140  -31.0300   38.0770 N.3   191  THR191     -0.1203
     60  CA        45.8470  -31.8640   37.1720 C.3   191  THR191      0.1994
     61  C         46.8860  -32.7060   37.9010 C.2   191  THR191      0.2617
     62  O         46.7670  -33.9210   37.9770 O.2   191  THR191     -0.2717
     63  CB        46.5140  -30.9980   36.1130 C.3   191  THR191      0.1784
     64  OG1       47.4410  -30.1240   36.7500 O.3   191  THR191     -0.2211
     65  CG2       45.4660  -30.1470   35.3780 C.3   191  THR191      0.0376
     66  N         47.9090  -32.0680   38.4430 N.am  192  ASN192     -0.1974
     67  CA        48.8800  -32.7990   39.2410 C.3   192  ASN192      0.1688
     68  C         49.2450  -32.0450   40.5160 C.2   192  ASN192      0.2292
     69  O         48.7660  -30.9420   40.7720 O.2   192  ASN192     -0.2864
     70  CB        50.1350  -33.0830   38.4190 C.3   192  ASN192      0.1181
     71  CG        50.8220  -31.8150   37.9760 C.2   192  ASN192      0.2629
     72  OD1       51.0050  -30.8940   38.7660 O.2   192  ASN192     -0.2716
     73  ND2       51.1870  -31.7490   36.7090 N.am  192  ASN192     -0.0877
     74  N         53.5830  -36.3090   28.9930 N.3   284  PHE284     -0.1241
     75  CA        52.7030  -35.6790   29.9620 C.3   284  PHE284      0.1605
     76  C         51.4390  -35.1010   29.3000 C.2   284  PHE284      0.2264
     77  O         50.3440  -35.2360   29.8420 O.2   284  PHE284     -0.2867
     78  CB        53.4890  -34.5790   30.6580 C.3   284  PHE284      0.0534
     79  CG        54.2600  -33.6900   29.7040 C.ar  284  PHE284     -0.0203
     80  CD1       53.5960  -32.9730   28.6980 C.ar  284  PHE284     -0.0042
     81  CD2       55.6350  -33.5620   29.8080 C.ar  284  PHE284     -0.0042
     82  CE1       54.2890  -32.1570   27.8190 C.ar  284  PHE284     -0.0003
     83  CE2       56.3290  -32.7400   28.9330 C.ar  284  PHE284     -0.0003
     84  CZ        55.6550  -32.0370   27.9370 C.ar  284  PHE284     -0.0000
     85  N         47.9770  -36.6310   29.7740 N.3   287  TYR287     -0.1227
     86  CA        47.1760  -36.2820   30.9330 C.3   287  TYR287      0.1736
     87  C         46.4340  -34.9780   30.7180 C.2   287  TYR287      0.2595
     88  O         45.2240  -34.9160   30.9040 O.2   287  TYR287     -0.2718
     89  CB        48.0530  -36.1820   32.1670 C.3   287  TYR287      0.0548
     90  CG        48.5460  -37.5170   32.6680 C.ar  287  TYR287     -0.0200
     91  CD1       47.8100  -38.2420   33.6030 C.ar  287  TYR287     -0.0009
     92  CD2       49.7480  -38.0470   32.2160 C.ar  287  TYR287     -0.0009
     93  CE1       48.2580  -39.4590   34.0750 C.ar  287  TYR287      0.0417
     94  CE2       50.2050  -39.2650   32.6800 C.ar  287  TYR287      0.0417
     95  CZ        49.4560  -39.9670   33.6090 C.ar  287  TYR287      0.1957
     96  OH        49.9060  -41.1830   34.0760 O.3   287  TYR287     -0.2866
     97  N         47.1590  -33.9410   30.3100 N.am  288  ASN288     -0.1974
     98  CA        46.5540  -32.6300   30.0700 C.3   288  ASN288      0.1688
     99  C         45.3720  -32.7090   29.1270 C.2   288  ASN288      0.2292
    100  O         44.3440  -32.0930   29.3730 O.2   288  ASN288     -0.2864
    101  CB        47.5870  -31.6430   29.5220 C.3   288  ASN288      0.1181
    102  CG        48.6780  -31.3230   30.5280 C.2   288  ASN288      0.2629
    103  OD1       49.6650  -30.6730   30.1950 O.2   288  ASN288     -0.2716
    104  ND2       48.5030  -31.7830   31.7680 N.am  288  ASN288     -0.0877
    105  N         56.3140  -22.8030   24.6240 N.3   319  ARG319     -0.1231
    106  CA        56.4830  -24.1330   25.2250 C.3   319  ARG319      0.1694
    107  C         56.7390  -25.1500   24.1280 C.2   319  ARG319      0.2592
    108  O         55.8780  -25.3680   23.2680 O.2   319  ARG319     -0.2718
    109  CB        55.2330  -24.5690   26.0030 C.3   319  ARG319      0.0321
    110  CG        54.7000  -23.5620   27.0040 C.3   319  ARG319      0.0489
    111  CD        55.0780  -23.9270   28.4320 C.3   319  ARG319      0.2205
    112  NE        54.4860  -22.9900   29.3830 N.pl3 319  ARG319     -0.0865
    113  CZ        54.4850  -21.6670   29.2210 C.cat 319  ARG319      0.5346
    114  NH1       55.0440  -21.1160   28.1370 N.pl3 319  ARG319      0.1354
    115  NH2       53.9210  -20.8910   30.1400 N.pl3 319  ARG319      0.1354
    116  N         57.9110  -25.7780   24.1600 N.am  320  PHE320     -0.1976
    117  CA        58.2240  -26.8450   23.2210 C.3   320  PHE320      0.1639
    118  C         57.6620  -26.5860   21.8300 C.2   320  PHE320      0.2290
    119  O         56.8720  -27.3820   21.3190 O.2   320  PHE320     -0.2864
    120  CB        57.6390  -28.1420   23.7310 C.3   320  PHE320      0.0560
    121  CG        58.6560  -29.1790   24.0330 C.ar  320  PHE320     -0.0200
    122  CD1       59.2760  -29.8820   23.0050 C.ar  320  PHE320     -0.0042
    123  CD2       58.9800  -29.4770   25.3450 C.ar  320  PHE320     -0.0042
    124  CE1       60.2130  -30.8540   23.2850 C.ar  320  PHE320     -0.0003
    125  CE2       59.9110  -30.4560   25.6330 C.ar  320  PHE320     -0.0003
    126  CZ        60.5290  -31.1430   24.6020 C.ar  320  PHE320     -0.0000
    127  N         62.0650  -23.1370   22.6250 N.3   336  ASP336     -0.1225
    128  CA        61.4640  -22.9480   23.9510 C.3   336  ASP336      0.1805
    129  C         61.8580  -21.5800   24.5720 C.2   336  ASP336      0.2597
    130  O         62.5340  -20.7610   23.9240 O.2   336  ASP336     -0.2718
    131  CB        61.8910  -24.1030   24.8550 C.3   336  ASP336      0.1424
    132  CG        61.1940  -24.0920   26.2030 C.2   336  ASP336      0.3668
    133  OD1       61.2720  -23.0590   26.9050 O.co2 336  ASP336     -0.2456
    134  OD2       60.5840  -25.1280   26.5660 O.co2 336  ASP336     -0.2456
    135  N         61.4300  -21.3330   25.8120 N.am  337  PHE337     -0.1976
    136  CA        61.8670  -20.1400   26.5660 C.3   337  PHE337      0.1639
    137  C         62.8450  -20.4700   27.7230 C.2   337  PHE337      0.2290
    138  O         64.0340  -20.1700   27.6320 O.2   337  PHE337     -0.2864
    139  CB        60.6680  -19.2710   27.0170 C.3   337  PHE337      0.0560
    140  CG        59.8610  -19.8700   28.1420 C.ar  337  PHE337     -0.0200
    141  CD1       58.9920  -20.9380   27.9100 C.ar  337  PHE337     -0.0042
    142  CD2       59.9630  -19.3660   29.4400 C.ar  337  PHE337     -0.0042
    143  CE1       58.2520  -21.4970   28.9470 C.ar  337  PHE337     -0.0003
    144  CE2       59.2230  -19.9210   30.4810 C.ar  337  PHE337     -0.0003
    145  CZ        58.3670  -20.9870   30.2340 C.ar  337  PHE337     -0.0000
    146  N         64.5890  -29.7250   32.7210 N.3   346  LYS346     -0.1245
    147  CA        63.3190  -30.3470   32.3620 C.3   346  LYS346      0.1561
    148  C         63.2100  -30.4600   30.8540 C.2   346  LYS346      0.2260
    149  O         62.7010  -31.4450   30.3290 O.2   346  LYS346     -0.2867
    150  CB        62.1430  -29.5410   32.9230 C.3   346  LYS346      0.0271
    151  CG        61.7360  -29.9580   34.3310 C.3   346  LYS346      0.0035
    152  CD        60.9150  -28.8850   35.0370 C.3   346  LYS346      0.0206
    153  CE        61.0610  -28.9760   36.5520 C.3   346  LYS346      0.1093
    154  NZ        60.0360  -28.1730   37.2810 N.3   346  LYS346     -0.1314
    155  N         63.3770  -33.9280   28.3990 N.3   350  ASN350     -0.1240
    156  CA        62.3050  -34.3690   27.5210 C.3   350  ASN350      0.1653
    157  C         62.8670  -34.5420   26.1260 C.2   350  ASN350      0.2266
    158  O         62.7280  -35.6000   25.5080 O.2   350  ASN350     -0.2867
    159  CB        61.1700  -33.3350   27.4930 C.3   350  ASN350      0.1155
    160  CG        60.4490  -33.2060   28.8290 C.2   350  ASN350      0.2627
    161  OD1       60.3340  -34.1820   29.5770 O.2   350  ASN350     -0.2716
    162  ND2       59.9430  -31.9930   29.1290 N.am  350  ASN350     -0.0877
@<TRIPOS>BOND
     1   119   118    2
     2   118   117    1
     3   127   128    1
     4   122   124   ar
     5   122   121   ar
     6   117   120    1
     7   117   116    1
     8   108   107    2
     9   124   126   ar
    10   120   121    1
    11   130   129    2
    12   128   129    1
    13   128   131    1
    14   121   123   ar
    15   107   116   am
    16   107   106    1
    17   129   135   am
    18   126   125   ar
    19   105   106    1
    20   131   132    1
    21   106   109    1
    22   123   125   ar
    23   158   157    2
    24   135   136    1
    25   109   110    1
    26   157   156    1
    27   132   134   ar
    28   132   133   ar
    29   136   139    1
    30   136   137    1
    31   110   111    1
    32   139   140    1
    33   159   156    1
    34   159   160    1
    35    42    40    1
    36   156   155    1
    37   138   137    2
    38    39    38    2
    39    82    84   ar
    40    82    80   ar
    41   141   140   ar
    42   141   143   ar
    43    84    83   ar
    44    41    40    1
    45   114   113    1
    46   140   142   ar
    47   111   112    1
    48    40    37    1
    49    37    38    1
    50    37    36    1
    51    80    79   ar
    52    32    31    2
    53   160   162   am
    54   160   161    2
    55    83    81   ar
    56   143   145   ar
    57    74    75    1
    58    99   100    2
    59    99    98    1
    60   113   112    2
    61   113   115    1
    62    76    77    2
    63    76    75    1
    64   142   144   ar
    65   101    98    1
    66   101   102    1
    67    36    31   am
    68    31    30    1
    69    35    33    1
    70    79    81   ar
    71    79    78    1
    72    85    86    1
    73    75    78    1
    74    98    97    1
    75   103   102    2
    76   145   144   ar
    77    97    87   am
    78   149   148    2
    79   102   104   am
    80    33    30    1
    81    33    34    1
    82    87    88    2
    83    87    86    1
    84   148   147    1
    85    30    29    1
    86    86    89    1
    87    46    45    2
    88    45    44    1
    89    29    22   am
    90    89    90    1
    91    23    22    2
    92    43    44    1
    93    92    90   ar
    94    92    94   ar
    95    19    18    2
    96   147   146    1
    97   147   150    1
    98    44    47    1
    99    48    47    1
   100    90    91   ar
   101    94    95   ar
   102    22    21    1
   103   150   151    1
   104    18    17    1
   105    18    20   am
   106    47    49    1
   107    57    56   ar
   108    17    16    1
   109    91    93   ar
   110    95    93   ar
   111    95    96    1
   112    50    51    1
   113    21    20    1
   114    21    24    1
   115    54    51    1
   116    54    55    1
   117   151   152    1
   118    16    10   am
   119    56    55    1
   120    56    58   ar
   121    51    52    1
   122   152   153    1
   123    24    25    1
   124    65    63    1
   125    10    11    2
   126    10     9    1
   127    12     9    1
   128    12    13    1
   129    15    13   am
   130    63    64    1
   131    63    60    1
   132    52    53    2
   133     9     8    1
   134    25    26    1
   135    13    14    2
   136   153   154    1
   137    73    71   am
   138    60    61    1
   139    60    59    1
   140    26    27    1
   141     8     3   am
   142    27    28    1
   143    61    62    2
   144    61    66   am
   145    71    70    1
   146    71    72    2
   147     4     3    2
   148    70    67    1
   149    66    67    1
   150     3     2    1
   151    67    68    1
   152     1     2    1
   153     2     5    1
   154    68    69    2
   155     5     7    1
   156     5     6    1
