@<TRIPOS>MOLECULE
tmp/4bueB00.pdb
 160 161 0 0 0
SMALL
GASTEIGER

@<TRIPOS>ATOM
      1  N        -50.3210  -39.5480   11.9810 N.3    80  HIS80      -0.1226
      2  CA       -50.5220  -39.9860   13.3710 C.3    80  HIS80       0.1752
      3  C        -50.8650  -38.7580   14.1890 C.2    80  HIS80       0.2597
      4  O        -50.1170  -37.7630   14.2070 O.2    80  HIS80      -0.2718
      5  CB       -49.2800  -40.6750   13.9300 C.3    80  HIS80       0.0759
      6  CG       -49.4560  -41.2290   15.3060 C.ar   80  HIS80       0.0818
      7  ND1      -50.0710  -42.4420   15.5390 N.ar   80  HIS80      -0.2268
      8  CD2      -49.1530  -40.6960   16.5620 C.ar   80  HIS80       0.1154
      9  CE1      -50.1240  -42.6680   16.8640 C.ar   80  HIS80       0.1986
     10  NE2      -49.5450  -41.6250   17.5070 N.ar   80  HIS80      -0.2212
     11  N        -51.9730  -38.8370   14.8820 N.am   81  GLY81      -0.1942
     12  CA       -52.4490  -37.8060   15.7860 C.3    81  GLY81       0.2014
     13  C        -52.4180  -38.3460   17.1960 C.2    81  GLY81       0.2640
     14  O        -52.8470  -39.4690   17.4570 O.2    81  GLY81      -0.2714
     15  N        -51.9710  -37.5200   18.1530 N.am   82  SER82      -0.1936
     16  CA       -51.8970  -37.9370   19.5270 C.3    82  SER82       0.2040
     17  C        -51.5950  -36.7310   20.4060 C.2    82  SER82       0.2485
     18  O        -50.8190  -35.8520   20.0050 O.2    82  SER82      -0.2729
     19  CB       -50.7060  -38.9030   19.6530 C.3    82  SER82       0.2129
     20  OG       -50.2570  -39.0720   20.9720 O.3    82  SER82      -0.2179
     21  N        -52.0920  -36.7560   21.6200 N.am   83  PRO83      -0.2715
     22  CA       -51.6580  -35.7330   22.5740 C.3    83  PRO83       0.1536
     23  C        -50.1880  -35.8750   22.9850 C.2    83  PRO83       0.2598
     24  O        -49.6340  -34.9330   23.5510 O.2    83  PRO83      -0.2715
     25  CB       -52.5720  -35.9500   23.7950 C.3    83  PRO83       0.0310
     26  CG       -53.5290  -37.0140   23.4300 C.3    83  PRO83       0.0237
     27  CD       -53.0680  -37.7050   22.1730 C.3    83  PRO83       0.0939
     28  N        -49.5620  -37.0140   22.7140 N.am   84  PHE84      -0.1974
     29  CA       -48.1250  -37.2190   23.0570 C.3    84  PHE84       0.1639
     30  C        -47.1090  -36.9550   21.9430 C.2    84  PHE84       0.2290
     31  O        -45.9920  -37.4740   21.9860 O.2    84  PHE84      -0.2864
     32  CB       -47.9570  -38.6350   23.5930 C.3    84  PHE84       0.0560
     33  CG       -49.0320  -39.0160   24.5770 C.ar   84  PHE84      -0.0200
     34  CD1      -49.3660  -38.1490   25.6170 C.ar   84  PHE84      -0.0042
     35  CD2      -49.7510  -40.1990   24.4320 C.ar   84  PHE84      -0.0042
     36  CE1      -50.3720  -38.4660   26.5150 C.ar   84  PHE84      -0.0003
     37  CE2      -50.7580  -40.5230   25.3320 C.ar   84  PHE84      -0.0003
     38  CZ       -51.0670  -39.6540   26.3720 C.ar   84  PHE84      -0.0000
     39  N        -46.1430  -46.8930   25.0740 N.3    96  ARG96      -0.1231
     40  CA       -46.9330  -45.7800   25.6600 C.3    96  ARG96       0.1694
     41  C        -47.7940  -45.0370   24.6330 C.2    96  ARG96       0.2592
     42  O        -48.7000  -44.2920   25.0070 O.2    96  ARG96      -0.2718
     43  CB       -46.0310  -44.7700   26.3730 C.3    96  ARG96       0.0321
     44  CG       -45.3230  -45.3430   27.5890 C.3    96  ARG96       0.0489
     45  CD       -43.8380  -45.0140   27.6000 C.3    96  ARG96       0.2205
     46  NE       -43.0570  -46.1800   28.0270 N.pl3  96  ARG96      -0.0865
     47  CZ       -41.7650  -46.3780   27.7620 C.cat  96  ARG96       0.5346
     48  NH1      -41.0610  -45.4880   27.0640 N.pl3  96  ARG96       0.1354
     49  NH2      -41.1680  -47.4830   28.1970 N.pl3  96  ARG96       0.1354
     50  N        -47.5060  -45.2480   23.3480 N.am   97  HIS97      -0.1962
     51  CA       -48.2500  -44.6000   22.2380 C.3    97  HIS97       0.1787
     52  C        -49.3100  -45.4850   21.5980 C.2    97  HIS97       0.2620
     53  O        -49.9970  -45.0810   20.6270 O.2    97  HIS97      -0.2715
     54  CB       -47.2160  -44.0380   21.2620 C.3    97  HIS97       0.0785
     55  CG       -46.2350  -43.1460   21.9670 C.ar   97  HIS97       0.0821
     56  ND1      -44.9200  -43.3890   21.9820 N.ar   97  HIS97      -0.2267
     57  CD2      -46.4390  -42.0690   22.8240 C.ar   97  HIS97       0.1154
     58  CE1      -44.3020  -42.4800   22.7570 C.ar   97  HIS97       0.1986
     59  NE2      -45.2270  -41.6870   23.2820 N.ar   97  HIS97      -0.2212
     60  N        -49.4760  -46.6820   22.1610 N.am   98  ALA98      -0.1963
     61  CA       -50.4880  -47.6310   21.6880 C.3    98  ALA98       0.1728
     62  C        -51.8980  -47.2760   22.1610 C.2    98  ALA98       0.2616
     63  O        -52.1170  -46.6950   23.2320 O.2    98  ALA98      -0.2715
     64  CB       -50.1420  -49.0620   22.0690 C.3    98  ALA98       0.0334
     65  N        -52.8520  -47.6340   21.3120 N.am   99  TYR99      -0.1960
     66  CA       -54.2730  -47.4320   21.5230 C.3    99  TYR99       0.1771
     67  C        -54.7790  -48.7770   21.9380 C.2    99  TYR99       0.2619
     68  O        -55.0180  -49.6630   21.0920 O.2    99  TYR99      -0.2715
     69  CB       -54.9410  -46.9380   20.2040 C.3    99  TYR99       0.0574
     70  CG       -56.4280  -46.7110   20.2450 C.ar   99  TYR99      -0.0198
     71  CD1      -57.1130  -46.5940   21.4660 C.ar   99  TYR99      -0.0009
     72  CD2      -57.1590  -46.5320   19.0600 C.ar   99  TYR99      -0.0009
     73  CE1      -58.4640  -46.3640   21.5020 C.ar   99  TYR99       0.0417
     74  CE2      -58.5070  -46.2650   19.1000 C.ar   99  TYR99       0.0417
     75  CZ       -59.1560  -46.2110   20.3230 C.ar   99  TYR99       0.1957
     76  OH       -60.5060  -45.9950   20.3680 O.3    99  TYR99      -0.2866
     77  N        -54.8800  -48.9590   23.2570 N.am  100  ILE100     -0.1977
     78  CA       -55.1230  -50.2760   23.8120 C.3   100  ILE100      0.1596
     79  C        -56.4940  -50.7540   23.3500 C.2   100  ILE100      0.2287
     80  O        -56.6540  -51.9140   23.0130 O.2   100  ILE100     -0.2864
     81  CB       -54.9840  -50.3100   25.3650 C.3   100  ILE100      0.0276
     82  CG1      -53.5820  -49.8390   25.8100 C.3   100  ILE100      0.0022
     83  CG2      -55.2360  -51.7170   25.8980 C.3   100  ILE100      0.0022
     84  CD1      -52.4390  -50.5740   25.1610 C.3   100  ILE100      0.0001
     85  N        -51.5150  -46.8050   15.9050 N.3   109  TYR109     -0.1227
     86  CA       -52.4160  -46.5770   14.7940 C.3   109  TYR109      0.1736
     87  C        -52.0050  -45.3970   13.9390 C.2   109  TYR109      0.2595
     88  O        -51.6220  -44.3500   14.4690 O.2   109  TYR109     -0.2718
     89  CB       -53.8280  -46.3300   15.3190 C.3   109  TYR109      0.0548
     90  CG       -54.5360  -47.5840   15.7900 C.ar  109  TYR109     -0.0200
     91  CD1      -54.0420  -48.3240   16.8550 C.ar  109  TYR109     -0.0009
     92  CD2      -55.6660  -48.0370   15.1270 C.ar  109  TYR109     -0.0009
     93  CE1      -54.6870  -49.4830   17.2790 C.ar  109  TYR109      0.0417
     94  CE2      -56.2990  -49.2040   15.5600 C.ar  109  TYR109      0.0417
     95  CZ       -55.7760  -49.9230   16.6030 C.ar  109  TYR109      0.1957
     96  OH       -56.3730  -51.0830   17.0470 O.3   109  TYR109     -0.2866
     97  N        -52.1170  -45.5570   12.6250 N.am  110  PHE110     -0.1962
     98  CA       -51.8210  -44.5570   11.6280 C.3   110  PHE110      0.1771
     99  C        -52.9450  -44.5100   10.6130 C.2   110  PHE110      0.2619
    100  O        -53.6950  -45.4800   10.4190 O.2   110  PHE110     -0.2715
    101  CB       -50.5010  -44.8980   10.9040 C.3   110  PHE110      0.0574
    102  CG       -49.3120  -44.8860   11.8010 C.ar  110  PHE110     -0.0200
    103  CD1      -48.9630  -46.0060   12.5430 C.ar  110  PHE110     -0.0042
    104  CD2      -48.5290  -43.7380   11.9440 C.ar  110  PHE110     -0.0042
    105  CE1      -47.9110  -45.9890   13.4090 C.ar  110  PHE110     -0.0003
    106  CE2      -47.4830  -43.7200   12.8290 C.ar  110  PHE110     -0.0003
    107  CZ       -47.1550  -44.8460   13.5520 C.ar  110  PHE110     -0.0000
    108  N        -53.0970  -43.3590    9.9820 N.am  111  ALA111     -0.1977
    109  CA       -54.1870  -43.1670    9.0190 C.3   111  ALA111      0.1597
    110  C        -53.7160  -42.6190    7.6960 C.2   111  ALA111      0.2287
    111  O        -52.8370  -41.7500    7.6480 O.2   111  ALA111     -0.2864
    112  CB       -55.2280  -42.2120    9.5930 C.3   111  ALA111      0.0319
    113  N        -58.7710  -38.2740    9.8930 N.3   116  LYS116     -0.1231
    114  CA       -58.9200  -39.3550   10.8920 C.3   116  LYS116      0.1693
    115  C        -57.9130  -39.1310   12.0440 C.2   116  LYS116      0.2592
    116  O        -58.2820  -39.1310   13.1990 O.2   116  LYS116     -0.2718
    117  CB       -58.7290  -40.7270   10.2320 C.3   116  LYS116      0.0285
    118  CG       -58.5750  -41.9020   11.1750 C.3   116  LYS116      0.0035
    119  CD       -59.7160  -42.0940   12.1580 C.3   116  LYS116      0.0206
    120  CE       -61.1010  -42.1930   11.5730 C.3   116  LYS116      0.1093
    121  NZ       -62.0550  -42.6810   12.6590 N.3   116  LYS116     -0.1314
    122  N        -56.6520  -38.8580   11.7100 N.am  117  SER117     -0.1952
    123  CA       -55.6500  -38.5900   12.7350 C.3   117  SER117      0.1924
    124  C        -56.0110  -37.3320   13.5230 C.2   117  SER117      0.2314
    125  O        -55.7530  -37.2650   14.7490 O.2   117  SER117     -0.2863
    126  CB       -54.2550  -38.5180   12.1030 C.3   117  SER117      0.2116
    127  OG       -53.8300  -39.7950   11.6770 O.3   117  SER117     -0.2180
    128  N        -57.7030  -37.5610   16.9230 N.3   120  TYR120     -0.1241
    129  CA       -56.9700  -38.0410   18.0640 C.3   120  TYR120      0.1605
    130  C        -56.0100  -37.0260   18.6620 C.2   120  TYR120      0.2264
    131  O        -55.3750  -37.3130   19.6520 O.2   120  TYR120     -0.2867
    132  CB       -56.2340  -39.3400   17.6850 C.3   120  TYR120      0.0534
    133  CG       -57.2210  -40.4670   17.4470 C.ar  120  TYR120     -0.0201
    134  CD1      -57.6440  -41.2800   18.4980 C.ar  120  TYR120     -0.0009
    135  CD2      -57.7590  -40.6910   16.1730 C.ar  120  TYR120     -0.0009
    136  CE1      -58.5740  -42.2940   18.2680 C.ar  120  TYR120      0.0417
    137  CE2      -58.6970  -41.6770   15.9550 C.ar  120  TYR120      0.0417
    138  CZ       -59.0860  -42.4790   16.9880 C.ar  120  TYR120      0.1957
    139  OH       -60.0250  -43.4580   16.7150 O.3   120  TYR120     -0.2866
    140  N        -56.9120  -36.3900   22.1140 N.3   123  GLY123     -0.1210
    141  CA       -57.1310  -37.6340   22.8330 C.3   123  GLY123      0.1956
    142  C        -58.1270  -38.5040   22.1250 C.2   123  GLY123      0.2611
    143  O        -58.6180  -38.1430   21.0800 O.2   123  GLY123     -0.2717
    144  N        -58.3920  -39.6820   22.6930 N.am  124  ILE124     -0.1979
    145  CA       -59.3910  -40.6020   22.0930 C.3   124  ILE124      0.1595
    146  C        -60.7480  -39.9280   22.0060 C.2   124  ILE124      0.2287
    147  O        -61.2360  -39.3220   22.9960 O.2   124  ILE124     -0.2864
    148  CB       -59.4420  -41.9070   22.8990 C.3   124  ILE124      0.0276
    149  CG1      -58.1420  -42.6690   22.6730 C.3   124  ILE124      0.0022
    150  CG2      -60.5900  -42.7980   22.4480 C.3   124  ILE124      0.0022
    151  CD1      -57.8200  -43.6200   23.7960 C.3   124  ILE124      0.0001
    152  N        -56.6700  -47.4770    7.7210 N.3   187  GLU187     -0.1245
    153  CA       -55.9440  -47.2580    8.9390 C.3   187  GLU187      0.1567
    154  C        -55.0020  -48.4340    9.0770 C.2   187  GLU187      0.2260
    155  O        -55.2700  -49.5220    8.5550 O.2   187  GLU187     -0.2867
    156  CB       -56.9180  -47.1140   10.0950 C.3   187  GLU187      0.0388
    157  CG       -57.9070  -45.9750    9.7380 C.3   187  GLU187      0.1160
    158  CD       -59.1960  -45.8970   10.5420 C.2   187  GLU187      0.3649
    159  OE1      -59.1750  -46.3090   11.7250 O.co2 187  GLU187     -0.2457
    160  OE2      -60.2240  -45.3790    9.9780 O.co2 187  GLU187     -0.2457
@<TRIPOS>BOND
     1   111   110    2
     2   110   109    1
     3   152   153    1
     4   155   154    2
     5   153   154    1
     6   153   156    1
     7   109   112    1
     8   109   108    1
     9   157   156    1
    10   157   158    1
    11   113   114    1
    12   160   158   ar
    13   108    99   am
    14   117   114    1
    15   117   118    1
    16   100    99    2
    17   158   159   ar
    18    99    98    1
    19   114   115    1
    20   101    98    1
    21   101   102    1
    22   118   119    1
    23   120   119    1
    24   120   121    1
    25    98    97    1
    26   127   126    1
    27   122   115   am
    28   122   123    1
    29   102   104   ar
    30   102   103   ar
    31   104   106   ar
    32     1     2    1
    33   115   116    2
    34   126   123    1
    35   103   105   ar
    36    97    87   am
    37   123   124    1
    38   106   107   ar
    39     2     5    1
    40     2     3    1
    41   105   107   ar
    42   124   125    2
    43     5     6    1
    44    87    88    2
    45    87    86    1
    46     3     4    2
    47     3    11   am
    48    86    89    1
    49    86    85    1
    50    11    12    1
    51    92    94   ar
    52    92    90   ar
    53     6     7   ar
    54     6     8   ar
    55    89    90    1
    56     7     9   ar
    57    94    95   ar
    58    12    13    1
    59    90    91   ar
    60   137   135   ar
    61   137   138   ar
    62   135   133   ar
    63     8    10   ar
    64    95    96    1
    65    95    93   ar
    66   139   138    1
    67    91    93   ar
    68     9    10   ar
    69   128   129    1
    70   138   136   ar
    71    13    14    2
    72    13    15   am
    73   133   132    1
    74   133   134   ar
    75   132   129    1
    76   129   130    1
    77    15    16    1
    78   136   134   ar
    79   130   131    2
    80    72    74   ar
    81    72    70   ar
    82    74    75   ar
    83    16    19    1
    84    16    17    1
    85    19    20    1
    86    18    17    2
    87    69    70    1
    88    69    66    1
    89    70    71   ar
    90    75    76    1
    91    75    73   ar
    92    17    21   am
    93    53    52    2
    94   143   142    2
    95    68    67    2
    96    54    55    1
    97    54    51    1
    98    65    66    1
    99    65    62   am
   100    71    73   ar
   101    66    67    1
   102    52    60   am
   103    52    51    1
   104    21    27    1
   105    21    22    1
   106    61    64    1
   107    61    62    1
   108    61    60    1
   109    67    77   am
   110    30    31    2
   111    30    29    1
   112    55    56   ar
   113    55    57   ar
   114    56    58   ar
   115   146   145    1
   116   146   147    2
   117   145   144    1
   118   145   148    1
   119   140   141    1
   120   142   144   am
   121   142   141    1
   122    62    63    2
   123    27    26    1
   124    51    50    1
   125   150   148    1
   126    22    23    1
   127    22    25    1
   128   149   148    1
   129   149   151    1
   130    28    23   am
   131    28    29    1
   132    58    59   ar
   133    57    59   ar
   134    23    24    2
   135    80    79    2
   136    29    32    1
   137    77    78    1
   138    50    41   am
   139    79    78    1
   140    26    25    1
   141    32    33    1
   142    78    81    1
   143    35    33   ar
   144    35    37   ar
   145    33    34   ar
   146    41    42    2
   147    41    40    1
   148    39    40    1
   149    84    82    1
   150    37    38   ar
   151    81    82    1
   152    81    83    1
   153    34    36   ar
   154    40    43    1
   155    38    36   ar
   156    43    44    1
   157    48    47    1
   158    44    45    1
   159    45    46    1
   160    47    46    2
   161    47    49    1
