@<TRIPOS>MOLECULE
tmp/4bufA00.pdb
 171 173 0 0 0
SMALL
GASTEIGER

@<TRIPOS>ATOM
      1  N        -37.3340   -7.1490   20.7880 N.3    79  PHE79      -0.1227
      2  CA       -36.3480   -7.2930   19.7160 C.3    79  PHE79       0.1736
      3  C        -36.9320   -7.5280   18.3290 C.2    79  PHE79       0.2595
      4  O        -37.9240   -8.2400   18.1550 O.2    79  PHE79      -0.2718
      5  CB       -35.4220   -8.4590   20.0400 C.3    79  PHE79       0.0547
      6  CG       -34.5890   -8.2330   21.2610 C.ar   79  PHE79      -0.0202
      7  CD1      -33.4360   -7.4560   21.1940 C.ar   79  PHE79      -0.0042
      8  CD2      -34.9600   -8.7750   22.4780 C.ar   79  PHE79      -0.0042
      9  CE1      -32.6560   -7.2430   22.3240 C.ar   79  PHE79      -0.0003
     10  CE2      -34.1880   -8.5590   23.6070 C.ar   79  PHE79      -0.0003
     11  CZ       -33.0350   -7.7990   23.5340 C.ar   79  PHE79      -0.0000
     12  N        -36.2890   -6.9590   17.3280 N.am   80  HIS80      -0.1961
     13  CA       -36.6460   -7.2510   15.9470 C.3    80  HIS80       0.1787
     14  C        -35.4060   -7.5260   15.1250 C.2    80  HIS80       0.2621
     15  O        -34.4710   -6.7330   15.1440 O.2    80  HIS80      -0.2715
     16  CB       -37.3890   -6.0720   15.3270 C.3    80  HIS80       0.0785
     17  CG       -37.9460   -6.3620   13.9690 C.ar   80  HIS80       0.0821
     18  ND1      -39.0630   -7.1470   13.7760 N.ar   80  HIS80      -0.2267
     19  CD2      -37.5350   -5.9830   12.7370 C.ar   80  HIS80       0.1154
     20  CE1      -39.3230   -7.2290   12.4850 C.ar   80  HIS80       0.1986
     21  NE2      -38.4120   -6.5320   11.8340 N.ar   80  HIS80      -0.2212
     22  N        -35.4080   -8.6480   14.4140 N.am   81  GLY81      -0.1940
     23  CA       -34.3930   -8.9590   13.3970 C.3    81  GLY81       0.2014
     24  C        -35.0060   -8.9920   12.0050 C.2    81  GLY81       0.2640
     25  O        -36.1500   -9.3970   11.8480 O.2    81  GLY81      -0.2714
     26  N        -34.2500   -8.5590   10.9980 N.am   82  SER82      -0.1936
     27  CA       -34.7960   -8.3190    9.6490 C.3    82  SER82       0.2040
     28  C        -33.7060   -8.0030    8.6370 C.2    82  SER82       0.2485
     29  O        -32.7590   -7.2720    8.9340 O.2    82  SER82      -0.2729
     30  CB       -35.7620   -7.1320    9.6710 C.3    82  SER82       0.2129
     31  OG       -36.3030   -6.8570    8.3860 O.3    82  SER82      -0.2179
     32  N        -33.8330   -8.5250    7.4210 N.am   83  PRO83      -0.2715
     33  CA       -32.8540   -8.0610    6.4460 C.3    83  PRO83       0.1536
     34  C        -32.9900   -6.5720    6.1660 C.2    83  PRO83       0.2598
     35  O        -32.0870   -5.9910    5.5810 O.2    83  PRO83      -0.2715
     36  CB       -33.1790   -8.8780    5.1910 C.3    83  PRO83       0.0310
     37  CG       -33.8640  -10.0910    5.7050 C.3    83  PRO83       0.0237
     38  CD       -34.6440   -9.6360    6.9060 C.3    83  PRO83       0.0939
     39  N        -34.0900   -5.9520    6.5860 N.am   84  PHE84      -0.1974
     40  CA       -34.3080   -4.5410    6.2790 C.3    84  PHE84       0.1639
     41  C        -34.0800   -3.5740    7.4430 C.2    84  PHE84       0.2290
     42  O        -34.6530   -2.4880    7.4550 O.2    84  PHE84      -0.2864
     43  CB       -35.7110   -4.3660    5.7230 C.3    84  PHE84       0.0560
     44  CG       -36.0550   -5.3500    4.6570 C.ar   84  PHE84      -0.0200
     45  CD1      -35.3420   -5.3750    3.4760 C.ar   84  PHE84      -0.0042
     46  CD2      -37.0870   -6.2500    4.8350 C.ar   84  PHE84      -0.0042
     47  CE1      -35.6490   -6.2870    2.4780 C.ar   84  PHE84      -0.0003
     48  CE2      -37.4080   -7.1640    3.8440 C.ar   84  PHE84      -0.0003
     49  CZ       -36.6890   -7.1810    2.6600 C.ar   84  PHE84      -0.0000
     50  N        -44.0720   -3.4240    4.1990 N.3    96  ARG96      -0.1231
     51  CA       -42.9850   -4.0920    3.5010 C.3    96  ARG96       0.1694
     52  C        -42.0230   -4.7940    4.4600 C.2    96  ARG96       0.2592
     53  O        -41.1500   -5.5270    4.0190 O.2    96  ARG96      -0.2718
     54  CB       -42.2220   -3.0960    2.6500 C.3    96  ARG96       0.0321
     55  CG       -43.1120   -2.2780    1.7220 C.3    96  ARG96       0.0489
     56  CD       -42.2920   -1.2730    0.9340 C.3    96  ARG96       0.2205
     57  NE       -41.2450   -0.6130    1.7310 N.pl3  96  ARG96      -0.0865
     58  CZ       -41.3740    0.5400    2.3920 C.cat  96  ARG96       0.5346
     59  NH1      -42.5210    1.2220    2.3830 N.pl3  96  ARG96       0.1354
     60  NH2      -40.3370    1.0210    3.0750 N.pl3  96  ARG96       0.1354
     61  N        -42.1680   -4.5630    5.7630 N.am   97  HIS97      -0.1962
     62  CA       -41.3840   -5.2900    6.7550 C.3    97  HIS97       0.1787
     63  C        -42.2090   -6.3570    7.4590 C.2    97  HIS97       0.2620
     64  O        -41.7540   -6.9640    8.4390 O.2    97  HIS97      -0.2715
     65  CB       -40.7920   -4.3190    7.7580 C.3    97  HIS97       0.0785
     66  CG       -40.1040   -3.1770    7.1050 C.ar   97  HIS97       0.0821
     67  ND1      -40.4440   -1.8710    7.3520 N.ar   97  HIS97      -0.2267
     68  CD2      -39.1410   -3.1480    6.1590 C.ar   97  HIS97       0.1154
     69  CE1      -39.7060   -1.0790    6.5980 C.ar   97  HIS97       0.1986
     70  NE2      -38.9110   -1.8300    5.8600 N.ar   97  HIS97      -0.2212
     71  N        -43.4080   -6.6090    6.9380 N.am   98  ALA98      -0.1963
     72  CA       -44.2690   -7.6030    7.5300 C.3    98  ALA98       0.1728
     73  C        -43.7690   -8.9780    7.1700 C.2    98  ALA98       0.2616
     74  O        -43.1910   -9.1790    6.1160 O.2    98  ALA98      -0.2715
     75  CB       -45.6950   -7.4180    7.0690 C.3    98  ALA98       0.0334
     76  N        -43.9810   -9.9130    8.0820 N.am   99  TYR99      -0.1960
     77  CA       -43.7510  -11.3150    7.8250 C.3    99  TYR99       0.1771
     78  C        -45.0220  -11.9260    7.2490 C.2    99  TYR99       0.2619
     79  O        -45.9040  -12.3330    8.0030 O.2    99  TYR99      -0.2715
     80  CB       -43.3860  -12.0030    9.1350 C.3    99  TYR99       0.0574
     81  CG       -43.0390  -13.4730    9.0290 C.ar   99  TYR99      -0.0198
     82  CD1      -42.8170  -14.0860    7.8040 C.ar   99  TYR99      -0.0009
     83  CD2      -42.9450  -14.2520   10.1720 C.ar   99  TYR99      -0.0009
     84  CE1      -42.5100  -15.4270    7.7300 C.ar   99  TYR99       0.0417
     85  CE2      -42.6160  -15.5880   10.0990 C.ar   99  TYR99       0.0417
     86  CZ       -42.4110  -16.1680    8.8770 C.ar   99  TYR99       0.1957
     87  OH       -42.0940  -17.4940    8.7960 O.3    99  TYR99      -0.2866
     88  N        -45.1230  -11.9930    5.9210 N.am  100  ILE100     -0.1977
     89  CA       -46.3720  -12.4300    5.2790 C.3   100  ILE100      0.1596
     90  C        -46.7500  -13.8350    5.7300 C.2   100  ILE100      0.2287
     91  O        -47.8980  -14.0720    6.0840 O.2   100  ILE100     -0.2864
     92  CB       -46.3320  -12.3820    3.7220 C.3   100  ILE100      0.0276
     93  CG1      -45.9730  -10.9810    3.1990 C.3   100  ILE100      0.0022
     94  CG2      -47.6740  -12.8150    3.1290 C.3   100  ILE100      0.0022
     95  CD1      -46.9000   -9.8720    3.6400 C.3   100  ILE100      0.0001
     96  N        -43.4050   -8.6630   13.2820 N.3   109  TYR109     -0.1227
     97  CA       -43.2380   -9.5770   14.4110 C.3   109  TYR109      0.1736
     98  C        -42.0890   -9.1120   15.3070 C.2   109  TYR109      0.2595
     99  O        -41.0730   -8.6160   14.8300 O.2   109  TYR109     -0.2718
    100  CB       -42.9210  -10.9910   13.8940 C.3   109  TYR109      0.0548
    101  CG       -44.1130  -11.7380   13.3510 C.ar  109  TYR109     -0.0200
    102  CD1      -44.8170  -11.2630   12.2440 C.ar  109  TYR109     -0.0009
    103  CD2      -44.5540  -12.9060   13.9580 C.ar  109  TYR109     -0.0009
    104  CE1      -45.9310  -11.9370   11.7610 C.ar  109  TYR109      0.0417
    105  CE2      -45.6590  -13.5960   13.4800 C.ar  109  TYR109      0.0417
    106  CZ       -46.3490  -13.1120   12.3860 C.ar  109  TYR109      0.1957
    107  OH       -47.4500  -13.8120   11.9400 O.3   109  TYR109     -0.2866
    108  N        -42.2480   -9.3110   16.6050 N.am  110  PHE110     -0.1962
    109  CA       -41.2420   -8.9270   17.5860 C.3   110  PHE110      0.1771
    110  C        -41.0790  -10.0280   18.6270 C.2   110  PHE110      0.2619
    111  O        -42.0120  -10.7820   18.8770 O.2   110  PHE110     -0.2715
    112  CB       -41.6640   -7.6440   18.2910 C.3   110  PHE110      0.0574
    113  CG       -41.7930   -6.4660   17.3820 C.ar  110  PHE110     -0.0200
    114  CD1      -42.9280   -6.2960   16.6130 C.ar  110  PHE110     -0.0042
    115  CD2      -40.7860   -5.5220   17.3080 C.ar  110  PHE110     -0.0042
    116  CE1      -43.0570   -5.2100   15.7770 C.ar  110  PHE110     -0.0003
    117  CE2      -40.9090   -4.4220   16.4900 C.ar  110  PHE110     -0.0003
    118  CZ       -42.0460   -4.2680   15.7080 C.ar  110  PHE110     -0.0000
    119  N        -39.9110  -10.0850   19.2590 N.am  111  ALA111     -0.1977
    120  CA       -39.6060  -11.1520   20.2180 C.3   111  ALA111      0.1597
    121  C        -39.1330  -10.6240   21.5760 C.2   111  ALA111      0.2287
    122  O        -38.4530   -9.6080   21.6550 O.2   111  ALA111     -0.2864
    123  CB       -38.5580  -12.0820   19.6370 C.3   111  ALA111      0.0319
    124  N        -34.4240  -15.2210   19.3480 N.3   116  LYS116     -0.1231
    125  CA       -35.4850  -15.4680   18.3880 C.3   116  LYS116      0.1693
    126  C        -35.2930  -14.5570   17.2090 C.2   116  LYS116      0.2592
    127  O        -35.1970  -15.0240   16.0870 O.2   116  LYS116     -0.2718
    128  CB       -36.8880  -15.2660   18.9610 C.3   116  LYS116      0.0285
    129  CG       -38.0010  -15.6470   17.9750 C.3   116  LYS116      0.0035
    130  CD       -37.7170  -17.0010   17.3580 C.3   116  LYS116      0.0206
    131  CE       -38.9030  -17.6200   16.6520 C.3   116  LYS116      0.1093
    132  NZ       -38.5410  -19.0060   16.2520 N.3   116  LYS116     -0.1314
    133  N        -35.2210  -13.2550   17.4740 N.am  117  SER117     -0.1952
    134  CA       -35.0210  -12.2660   16.4290 C.3   117  SER117      0.1924
    135  C        -33.7370  -12.5100   15.6580 C.2   117  SER117      0.2314
    136  O        -33.7020  -12.2810   14.4490 O.2   117  SER117     -0.2863
    137  CB       -34.9870  -10.8660   17.0150 C.3   117  SER117      0.2116
    138  OG       -36.2510  -10.5090   17.5280 O.3   117  SER117     -0.2180
    139  N        -33.6840  -14.1240   12.2240 N.3   120  TYR120     -0.1241
    140  CA       -34.2450  -13.4570   11.0680 C.3   120  TYR120      0.1605
    141  C        -33.2940  -12.4080   10.4850 C.2   120  TYR120      0.2264
    142  O        -33.6350  -11.7210    9.5230 O.2   120  TYR120     -0.2867
    143  CB       -35.5870  -12.8440   11.4570 C.3   120  TYR120      0.0534
    144  CG       -36.6140  -13.8970   11.7130 C.ar  120  TYR120     -0.0201
    145  CD1      -37.4000  -14.3780   10.6740 C.ar  120  TYR120     -0.0009
    146  CD2      -36.7910  -14.4420   12.9820 C.ar  120  TYR120     -0.0009
    147  CE1      -38.3450  -15.3590   10.8890 C.ar  120  TYR120      0.0417
    148  CE2      -37.7450  -15.4200   13.2110 C.ar  120  TYR120      0.0417
    149  CZ       -38.5110  -15.8730   12.1550 C.ar  120  TYR120      0.1957
    150  OH       -39.4640  -16.8420   12.3380 O.3   120  TYR120     -0.2866
    151  N        -32.6780  -13.3280    7.0820 N.3   123  GLY123     -0.1210
    152  CA       -33.9040  -13.6740    6.3870 C.3   123  GLY123      0.1956
    153  C        -34.6480  -14.7970    7.0490 C.2   123  GLY123      0.2611
    154  O        -34.2190  -15.3340    8.0580 O.2   123  GLY123     -0.2717
    155  N        -35.7820  -15.1500    6.4610 N.am  124  ILE124     -0.1979
    156  CA       -36.6450  -16.1880    6.9940 C.3   124  ILE124      0.1595
    157  C        -35.8640  -17.4900    7.0640 C.2   124  ILE124      0.2287
    158  O        -35.0870  -17.8020    6.1740 O.2   124  ILE124     -0.2864
    159  CB       -37.9180  -16.3240    6.1420 C.3   124  ILE124      0.0276
    160  CG1      -38.7820  -15.0800    6.3360 C.3   124  ILE124      0.0022
    161  CG2      -38.7160  -17.5550    6.5510 C.3   124  ILE124      0.0022
    162  CD1      -39.7690  -14.8530    5.2270 C.3   124  ILE124      0.0001
    163  N        -43.8580  -13.8620   21.8310 N.3   185  GLU185     -0.1245
    164  CA       -43.6000  -13.1700   20.5690 C.3   185  GLU185      0.1567
    165  C        -44.8380  -12.3660   20.2600 C.2   185  GLU185      0.2260
    166  O        -45.9400  -12.7720   20.6220 O.2   185  GLU185     -0.2867
    167  CB       -43.3440  -14.1580   19.4330 C.3   185  GLU185      0.0388
    168  CG       -42.3090  -15.2000   19.7860 C.3   185  GLU185      0.1160
    169  CD       -42.0080  -16.1380   18.6410 C.2   185  GLU185      0.3649
    170  OE1      -42.7290  -16.0820   17.6170 O.co2 185  GLU185     -0.2457
    171  OE2      -41.0420  -16.9260   18.7810 O.co2 185  GLU185     -0.2457
@<TRIPOS>BOND
     1    56    55    1
     2    56    57    1
     3    55    54    1
     4    57    58    2
     5    59    58    1
     6    58    60    1
     7    47    49   ar
     8    47    45   ar
     9    54    51    1
    10    49    48   ar
    11    94    92    1
    12    93    95    1
    13    93    92    1
    14    45    44   ar
    15    51    50    1
    16    51    52    1
    17    92    89    1
    18    48    46   ar
    19    53    52    2
    20    52    61   am
    21    44    46   ar
    22    44    43    1
    23    36    37    1
    24    36    33    1
    25   162   160    1
    26    89    90    1
    27    89    88    1
    28    35    34    2
    29    37    38    1
    30    43    40    1
    31    90    91    2
    32    61    62    1
    33    70    68   ar
    34    70    69   ar
    35    88    78   am
    36    74    73    2
    37   159   160    1
    38   159   161    1
    39   159   156    1
    40    68    66   ar
    41    34    33    1
    42    34    39   am
    43   158   157    2
    44    40    39    1
    45    40    41    1
    46   152   153    1
    47   152   151    1
    48    33    32    1
    49   155   156    1
    50   155   153   am
    51    69    67   ar
    52    62    63    1
    53    62    65    1
    54    38    32    1
    55    71    63   am
    56    71    72    1
    57   156   157    1
    58   153   154    2
    59    75    72    1
    60    66    67   ar
    61    66    65    1
    62    73    72    1
    63    73    76   am
    64    78    77    1
    65    78    79    2
    66    32    28   am
    67    41    42    2
    68    63    64    2
    69    84    82   ar
    70    84    86   ar
    71    82    81   ar
    72    77    76    1
    73    77    80    1
    74    31    30    1
    75    28    29    2
    76    28    27    1
    77    87    86    1
    78    86    85   ar
    79    81    80    1
    80    81    83   ar
    81   142   141    2
    82    27    30    1
    83    27    26    1
    84    85    83   ar
    85   141   140    1
    86   145   147   ar
    87   145   144   ar
    88   147   149   ar
    89    26    24   am
    90   140   143    1
    91   140   139    1
    92   143   144    1
    93   144   146   ar
    94   104   102   ar
    95   104   106   ar
    96    21    20   ar
    97    21    19   ar
    98    25    24    2
    99   107   106    1
   100    24    23    1
   101   149   150    1
   102   149   148   ar
   103   102   101   ar
   104   106   105   ar
   105    20    18   ar
   106    19    17   ar
   107   146   148   ar
   108    96    97    1
   109   101   100    1
   110   101   103   ar
   111    23    22    1
   112   105   103   ar
   113    18    17   ar
   114   100    97    1
   115    17    16    1
   116    97    98    1
   117    22    14   am
   118   136   135    2
   119    99    98    2
   120    14    15    2
   121    14    13    1
   122    98   108   am
   123    16    13    1
   124   135   134    1
   125   118   116   ar
   126   118   117   ar
   127   116   114   ar
   128    13    12    1
   129   127   126    2
   130   132   131    1
   131   134   137    1
   132   134   133    1
   133   117   115   ar
   134   108   109    1
   135   114   113   ar
   136   131   130    1
   137   137   138    1
   138   126   133   am
   139   126   125    1
   140   115   113   ar
   141    12     3   am
   142   130   129    1
   143   113   112    1
   144   109   112    1
   145   109   110    1
   146   170   169   ar
   147   129   128    1
   148     4     3    2
   149     3     2    1
   150   125   128    1
   151   125   124    1
   152   110   111    2
   153   110   119   am
   154   169   171   ar
   155   169   168    1
   156   119   120    1
   157   167   168    1
   158   167   164    1
   159   123   120    1
   160     2     5    1
   161     2     1    1
   162     5     6    1
   163   120   121    1
   164   165   164    1
   165   165   166    2
   166   164   163    1
   167     7     6   ar
   168     7     9   ar
   169     6     8   ar
   170   121   122    2
   171     9    11   ar
   172     8    10   ar
   173    11    10   ar
