@<TRIPOS>MOLECULE
tmp/4buiB00.pdb
 169 170 0 0 0
SMALL
GASTEIGER

@<TRIPOS>ATOM
      1  N         -4.9080  -39.4480   11.9390 N.3    80  HIS80      -0.1226
      2  CA        -5.1400  -39.8470   13.3300 C.3    80  HIS80       0.1752
      3  C         -5.4700  -38.6210   14.1450 C.2    80  HIS80       0.2597
      4  O         -4.7150  -37.6050   14.1320 O.2    80  HIS80      -0.2718
      5  CB        -3.9280  -40.5230   13.9230 C.3    80  HIS80       0.0759
      6  CG        -4.1360  -41.0610   15.3020 C.ar   80  HIS80       0.0818
      7  ND1       -4.7710  -42.2660   15.5510 N.ar   80  HIS80      -0.2268
      8  CD2       -3.7710  -40.5700   16.5120 C.ar   80  HIS80       0.1154
      9  CE1       -4.8010  -42.4790   16.8570 C.ar   80  HIS80       0.1986
     10  NE2       -4.1760  -41.4780   17.4600 N.ar   80  HIS80      -0.2212
     11  N         -6.5920  -38.7030   14.8420 N.am   81  GLY81      -0.1942
     12  CA        -7.0200  -37.6680   15.7360 C.3    81  GLY81       0.2014
     13  C         -7.0210  -38.2280   17.1300 C.2    81  GLY81       0.2640
     14  O         -7.4630  -39.3540   17.3350 O.2    81  GLY81      -0.2714
     15  N         -6.5500  -37.4480   18.0990 N.am   82  SER82      -0.1936
     16  CA        -6.4450  -37.9360   19.4680 C.3    82  SER82       0.2040
     17  C         -6.1360  -36.8250   20.4820 C.2    82  SER82       0.2485
     18  O         -5.3500  -35.9280   20.1850 O.2    82  SER82      -0.2729
     19  CB        -5.3590  -38.9780   19.5780 C.3    82  SER82       0.2129
     20  OG        -5.0300  -39.2250   20.9470 O.3    82  SER82      -0.2179
     21  N         -6.7000  -36.9360   21.6990 N.am   83  PRO83      -0.2715
     22  CA        -6.2450  -36.0620   22.7920 C.3    83  PRO83       0.1536
     23  C         -4.7420  -36.1450   23.0890 C.2    83  PRO83       0.2598
     24  O         -4.1860  -35.2070   23.6160 O.2    83  PRO83      -0.2715
     25  CB        -7.0320  -36.5720   24.0140 C.3    83  PRO83       0.0310
     26  CG        -8.2240  -37.2910   23.4340 C.3    83  PRO83       0.0237
     27  CD        -7.6560  -37.9470   22.1890 C.3    83  PRO83       0.0939
     28  N         -4.0880  -37.2510   22.7690 N.am   84  PHE84      -0.1974
     29  CA        -2.6720  -37.4190   23.0890 C.3    84  PHE84       0.1639
     30  C         -1.7100  -37.0310   21.9470 C.2    84  PHE84       0.2290
     31  O         -0.5570  -37.4510   21.9310 O.2    84  PHE84      -0.2864
     32  CB        -2.4990  -38.8600   23.5400 C.3    84  PHE84       0.0560
     33  CG        -3.4490  -39.2260   24.6470 C.ar   84  PHE84      -0.0200
     34  CD1       -3.3540  -38.5820   25.8810 C.ar   84  PHE84      -0.0042
     35  CD2       -4.4860  -40.1320   24.4470 C.ar   84  PHE84      -0.0042
     36  CE1       -4.2400  -38.8800   26.9190 C.ar   84  PHE84      -0.0003
     37  CE2       -5.3730  -40.4340   25.4770 C.ar   84  PHE84      -0.0003
     38  CZ        -5.2480  -39.8160   26.7140 C.ar   84  PHE84      -0.0000
     39  N         -0.8630  -46.7230   25.0840 N.3    96  ARG96      -0.1231
     40  CA        -1.6690  -45.6470   25.6940 C.3    96  ARG96       0.1694
     41  C         -2.4680  -44.8880   24.6570 C.2    96  ARG96       0.2592
     42  O         -3.3450  -44.0970   25.0080 O.2    96  ARG96      -0.2718
     43  CB        -0.8020  -44.6410   26.4330 C.3    96  ARG96       0.0321
     44  CG        -0.0200  -45.2290   27.5930 C.3    96  ARG96       0.0489
     45  CD         1.0390  -44.2610   28.0960 C.3    96  ARG96       0.2205
     46  NE         2.0920  -44.0260   27.1080 N.pl3  96  ARG96      -0.0865
     47  CZ         3.3270  -43.6090   27.3870 C.cat  96  ARG96       0.5346
     48  NH1        3.7160  -43.3800   28.6450 N.pl3  96  ARG96       0.1354
     49  NH2        4.1970  -43.4400   26.3910 N.pl3  96  ARG96       0.1354
     50  N         -2.1660  -45.1190   23.3760 N.am   97  HIS97      -0.1962
     51  CA        -2.8340  -44.3700   22.3020 C.3    97  HIS97       0.1787
     52  C         -3.9270  -45.1930   21.6080 C.2    97  HIS97       0.2620
     53  O         -4.5990  -44.7060   20.6950 O.2    97  HIS97      -0.2715
     54  CB        -1.7780  -43.7990   21.3600 C.3    97  HIS97       0.0785
     55  CG        -0.7490  -43.0050   22.0950 C.ar   97  HIS97       0.0821
     56  ND1        0.5950  -43.1400   21.8680 N.ar   97  HIS97      -0.2267
     57  CD2       -0.8630  -42.1590   23.1450 C.ar   97  HIS97       0.1154
     58  CE1        1.2710  -42.3620   22.6940 C.ar   97  HIS97       0.1986
     59  NE2        0.4090  -41.7690   23.4920 N.ar   97  HIS97      -0.2212
     60  N         -4.1490  -46.3990   22.1340 N.am   98  ALA98      -0.1963
     61  CA        -5.0980  -47.3470   21.5710 C.3    98  ALA98       0.1728
     62  C         -6.5300  -47.0050   21.9910 C.2    98  ALA98       0.2616
     63  O         -6.7680  -46.4060   23.0340 O.2    98  ALA98      -0.2715
     64  CB        -4.7410  -48.7700   22.0050 C.3    98  ALA98       0.0334
     65  N         -7.4720  -47.3600   21.1290 N.am   99  TYR99      -0.1960
     66  CA        -8.8910  -47.1770   21.3900 C.3    99  TYR99       0.1771
     67  C         -9.3270  -48.5240   21.8820 C.2    99  TYR99       0.2619
     68  O         -9.5820  -49.4290   21.0860 O.2    99  TYR99      -0.2715
     69  CB        -9.6070  -46.7840   20.0910 C.3    99  TYR99       0.0574
     70  CG       -11.1000  -46.5570   20.1690 C.ar   99  TYR99      -0.0198
     71  CD1      -11.7810  -46.4890   21.3850 C.ar   99  TYR99      -0.0009
     72  CD2      -11.8410  -46.4350   19.0050 C.ar   99  TYR99      -0.0009
     73  CE1      -13.1630  -46.2670   21.4310 C.ar   99  TYR99       0.0417
     74  CE2      -13.1990  -46.2020   19.0420 C.ar   99  TYR99       0.0417
     75  CZ       -13.8550  -46.1460   20.2570 C.ar   99  TYR99       0.1957
     76  OH       -15.1910  -45.9310   20.2610 O.3    99  TYR99      -0.2866
     77  N         -9.3820  -48.6620   23.2050 N.am  100  ILE100     -0.1977
     78  CA        -9.6490  -49.9690   23.8100 C.3   100  ILE100      0.1596
     79  C        -11.0220  -50.4860   23.3770 C.2   100  ILE100      0.2287
     80  O        -11.1850  -51.6520   23.0810 O.2   100  ILE100     -0.2864
     81  CB        -9.5610  -49.9400   25.3670 C.3   100  ILE100      0.0276
     82  CG1       -8.2200  -49.3390   25.8660 C.3   100  ILE100      0.0022
     83  CG2       -9.7370  -51.3460   25.9290 C.3   100  ILE100      0.0022
     84  CD1       -6.9630  -50.0500   25.3830 C.3   100  ILE100      0.0020
     85  N         -6.2210  -46.6840   15.9140 N.3   109  TYR109     -0.1227
     86  CA        -7.1060  -46.4880   14.7930 C.3   109  TYR109      0.1736
     87  C         -6.7240  -45.2860   13.9120 C.2   109  TYR109      0.2595
     88  O         -6.4390  -44.2200   14.4280 O.2   109  TYR109     -0.2718
     89  CB        -8.5450  -46.2670   15.3120 C.3   109  TYR109      0.0548
     90  CG        -9.2160  -47.5230   15.8140 C.ar  109  TYR109     -0.0200
     91  CD1       -8.6620  -48.2740   16.8470 C.ar  109  TYR109     -0.0009
     92  CD2      -10.3920  -47.9850   15.2170 C.ar  109  TYR109     -0.0009
     93  CE1       -9.2980  -49.4340   17.3260 C.ar  109  TYR109      0.0417
     94  CE2      -11.0040  -49.1400   15.6540 C.ar  109  TYR109      0.0417
     95  CZ       -10.4580  -49.8620   16.7110 C.ar  109  TYR109      0.1957
     96  OH       -11.0800  -51.0170   17.0900 O.3   109  TYR109     -0.2866
     97  N         -6.8150  -45.4700   12.5960 N.am  110  PHE110     -0.1962
     98  CA        -6.4880  -44.4670   11.5900 C.3   110  PHE110      0.1771
     99  C         -7.6290  -44.4030   10.5650 C.2   110  PHE110      0.2619
    100  O         -8.3420  -45.3970   10.3420 O.2   110  PHE110     -0.2715
    101  CB        -5.1780  -44.8390   10.8950 C.3   110  PHE110      0.0574
    102  CG        -3.9880  -44.8000   11.7930 C.ar  110  PHE110     -0.0200
    103  CD1       -3.6230  -45.9230   12.5300 C.ar  110  PHE110     -0.0042
    104  CD2       -3.2540  -43.6220   11.9400 C.ar  110  PHE110     -0.0042
    105  CE1       -2.5570  -45.8720   13.4040 C.ar  110  PHE110     -0.0003
    106  CE2       -2.1870  -43.5670   12.7990 C.ar  110  PHE110     -0.0003
    107  CZ        -1.8200  -44.6990   13.5140 C.ar  110  PHE110     -0.0000
    108  N         -7.7940  -43.2420    9.9360 N.am  111  ALA111     -0.1977
    109  CA        -8.8730  -42.9960    8.9900 C.3   111  ALA111      0.1597
    110  C         -8.3970  -42.4410    7.6460 C.2   111  ALA111      0.2287
    111  O         -7.4720  -41.5960    7.5730 O.2   111  ALA111     -0.2864
    112  CB        -9.8580  -42.0380    9.5890 C.3   111  ALA111      0.0319
    113  N        -13.3620  -38.1720    9.9690 N.3   116  LYS116     -0.1231
    114  CA       -13.5320  -39.2620   10.9300 C.3   116  LYS116      0.1693
    115  C        -12.5220  -39.0670   12.1030 C.2   116  LYS116      0.2592
    116  O        -12.9040  -39.1090   13.2370 O.2   116  LYS116     -0.2718
    117  CB       -13.3460  -40.6210   10.2820 C.3   116  LYS116      0.0285
    118  CG       -13.2080  -41.8000   11.2630 C.3   116  LYS116      0.0035
    119  CD       -14.3380  -41.9030   12.2750 C.3   116  LYS116      0.0206
    120  CE       -15.6750  -42.2120   11.6640 C.3   116  LYS116      0.1093
    121  NZ       -16.5900  -42.6600   12.7710 N.3   116  LYS116     -0.1314
    122  N        -11.2670  -38.7980   11.7760 N.am  117  SER117     -0.1952
    123  CA       -10.2260  -38.5330   12.7680 C.3   117  SER117      0.1924
    124  C        -10.5410  -37.2540   13.5370 C.2   117  SER117      0.2314
    125  O        -10.3440  -37.2130   14.7470 O.2   117  SER117     -0.2863
    126  CB        -8.8330  -38.5020   12.1180 C.3   117  SER117      0.2116
    127  OG        -8.3790  -39.7960   11.7960 O.3   117  SER117     -0.2180
    128  N        -12.2970  -37.4260   16.9850 N.3   120  TYR120     -0.1241
    129  CA       -11.5600  -37.8870   18.1440 C.3   120  TYR120      0.1605
    130  C        -10.5560  -36.8750   18.7070 C.2   120  TYR120      0.2264
    131  O         -9.8410  -37.1690   19.6620 O.2   120  TYR120     -0.2867
    132  CB       -10.8130  -39.1650   17.8110 C.3   120  TYR120      0.0534
    133  CG       -11.7450  -40.3200   17.5350 C.ar  120  TYR120     -0.0201
    134  CD1      -12.2480  -41.1020   18.5800 C.ar  120  TYR120     -0.0009
    135  CD2      -12.2040  -40.5640   16.2310 C.ar  120  TYR120     -0.0009
    136  CE1      -13.1240  -42.1470   18.3150 C.ar  120  TYR120      0.0417
    137  CE2      -13.0890  -41.5740   15.9760 C.ar  120  TYR120      0.0417
    138  CZ       -13.5420  -42.3670   17.0240 C.ar  120  TYR120      0.1957
    139  OH       -14.3930  -43.3840   16.7220 O.3   120  TYR120     -0.2866
    140  N        -11.3460  -36.3480   22.1620 N.3   123  GLY123     -0.1210
    141  CA       -11.6620  -37.6100   22.8510 C.3   123  GLY123      0.1956
    142  C        -12.6910  -38.4780   22.1410 C.2   123  GLY123      0.2611
    143  O        -13.2370  -38.0820   21.1170 O.2   123  GLY123     -0.2717
    144  N        -12.9490  -39.6680   22.6740 N.am  124  ILE124     -0.1979
    145  CA       -13.9550  -40.5800   22.1100 C.3   124  ILE124      0.1595
    146  C        -15.3140  -39.8980   22.0820 C.2   124  ILE124      0.2287
    147  O        -15.7400  -39.3370   23.0720 O.2   124  ILE124     -0.2864
    148  CB       -14.0130  -41.8910   22.9170 C.3   124  ILE124      0.0276
    149  CG1      -12.7120  -42.6880   22.7180 C.3   124  ILE124      0.0022
    150  CG2      -15.2180  -42.7240   22.5120 C.3   124  ILE124      0.0022
    151  CD1      -12.3910  -43.6340   23.8530 C.3   124  ILE124      0.0001
    152  N         -7.0580  -51.9770   21.7090 N.3   163  LYS163     -0.1245
    153  CA        -6.1250  -51.0510   22.3140 C.3   163  LYS163      0.1561
    154  C         -4.8120  -51.7110   22.6950 C.2   163  LYS163      0.2260
    155  O         -3.7350  -51.1120   22.6970 O.2   163  LYS163     -0.2867
    156  CB        -6.7210  -50.3970   23.5770 C.3   163  LYS163      0.0253
    157  CG        -6.4320  -48.9090   23.7260 C.3   163  LYS163      0.0034
    158  CD        -5.0550  -48.6230   24.3350 C.3   163  LYS163      0.0206
    159  CE        -4.9690  -47.1850   24.8190 C.3   163  LYS163      0.1093
    160  NZ        -6.1500  -46.8430   25.6890 N.3   163  LYS163     -0.1314
    161  N        -11.3230  -47.4550    7.6420 N.3   187  GLU187     -0.1245
    162  CA       -10.5800  -47.2210    8.8700 C.3   187  GLU187      0.1567
    163  C         -9.6400  -48.3940    9.0400 C.2   187  GLU187      0.2260
    164  O         -9.9190  -49.4900    8.5560 O.2   187  GLU187     -0.2867
    165  CB       -11.5550  -47.0310   10.0440 C.3   187  GLU187      0.0388
    166  CG       -12.5400  -45.9240    9.6720 C.3   187  GLU187      0.1160
    167  CD       -13.8030  -45.8310   10.4950 C.2   187  GLU187      0.3649
    168  OE1      -13.8480  -46.4420   11.5890 O.co2 187  GLU187     -0.2457
    169  OE2      -14.7440  -45.1210   10.0210 O.co2 187  GLU187     -0.2457
@<TRIPOS>BOND
     1   111   110    2
     2   161   162    1
     3   110   109    1
     4   164   163    2
     5   162   163    1
     6   162   165    1
     7   109   112    1
     8   109   108    1
     9   166   165    1
    10   166   167    1
    11   108    99   am
    12   113   114    1
    13   169   167   ar
    14   117   114    1
    15   117   118    1
    16   100    99    2
    17   167   168   ar
    18    99    98    1
    19   101    98    1
    20   101   102    1
    21   114   115    1
    22   118   119    1
    23    98    97    1
    24   120   119    1
    25   120   121    1
    26   122   115   am
    27   122   123    1
    28   102   104   ar
    29   102   103   ar
    30   127   126    1
    31     1     2    1
    32   104   106   ar
    33   115   116    2
    34   126   123    1
    35   103   105   ar
    36    97    87   am
    37   123   124    1
    38   106   107   ar
    39     2     5    1
    40     2     3    1
    41   105   107   ar
    42   124   125    2
    43    87    88    2
    44    87    86    1
    45     5     6    1
    46     4     3    2
    47     3    11   am
    48    86    89    1
    49    86    85    1
    50    11    12    1
    51    92    94   ar
    52    92    90   ar
    53     6     7   ar
    54     6     8   ar
    55    89    90    1
    56     7     9   ar
    57    94    95   ar
    58    12    13    1
    59    90    91   ar
    60   137   135   ar
    61   137   138   ar
    62   135   133   ar
    63     8    10   ar
    64    95    96    1
    65    95    93   ar
    66   139   138    1
    67    91    93   ar
    68     9    10   ar
    69   128   129    1
    70   138   136   ar
    71    13    14    2
    72    13    15   am
    73   133   132    1
    74   133   134   ar
    75   132   129    1
    76    15    16    1
    77   129   130    1
    78   136   134   ar
    79   130   131    2
    80    72    74   ar
    81    72    70   ar
    82    74    75   ar
    83    16    19    1
    84    16    17    1
    85    19    20    1
    86    69    70    1
    87    69    66    1
    88    70    71   ar
    89    18    17    2
    90    75    76    1
    91    75    73   ar
    92    17    21   am
    93    53    52    2
    94    68    67    2
    95   143   142    2
    96    65    66    1
    97    65    62   am
    98    54    55    1
    99    54    51    1
   100    71    73   ar
   101    66    67    1
   102    61    62    1
   103    61    64    1
   104    61    60    1
   105    52    60   am
   106    52    51    1
   107    21    27    1
   108    21    22    1
   109   152   153    1
   110    56    55   ar
   111    56    58   ar
   112    67    77   am
   113    31    30    2
   114    30    29    1
   115    62    63    2
   116   146   145    1
   117   146   147    2
   118    55    57   ar
   119   145   144    1
   120   145   148    1
   121   142   144   am
   122   142   141    1
   123   140   141    1
   124    27    26    1
   125    51    50    1
   126   153   154    1
   127   153   156    1
   128   150   148    1
   129    58    59   ar
   130   154   155    2
   131   149   148    1
   132   149   151    1
   133    28    23   am
   134    28    29    1
   135    22    23    1
   136    22    25    1
   137    80    79    2
   138    23    24    2
   139    29    32    1
   140    57    59   ar
   141    77    78    1
   142    50    41   am
   143    79    78    1
   144    26    25    1
   145    32    33    1
   146   156   157    1
   147   156    84    1
   148   157   158    1
   149    78    81    1
   150   158   159    1
   151    35    33   ar
   152    35    37   ar
   153    33    34   ar
   154    41    42    2
   155    41    40    1
   156   159   160    1
   157    39    40    1
   158    81    82    1
   159    81    83    1
   160    84    82    1
   161    37    38   ar
   162    40    43    1
   163    34    36   ar
   164    49    47    1
   165    43    44    1
   166    38    36   ar
   167    46    47    2
   168    46    45    1
   169    47    48    1
   170    44    45    1
