@<TRIPOS>MOLECULE
tmp/4bupB00.pdb
 192 191 0 0 0
SMALL
GASTEIGER

@<TRIPOS>ATOM
      1  N         20.8410   23.4940   51.5970 N.3    30  HIS30      -0.1241
      2  CA        20.1730   23.4300   52.8930 C.3    30  HIS30       0.1621
      3  C         18.6490   23.5870   52.8410 C.2    30  HIS30       0.2264
      4  O         18.0900   24.2610   51.9730 O.2    30  HIS30      -0.2867
      5  CB        20.8100   24.3970   53.9050 C.3    30  HIS30       0.0745
      6  CG        20.6410   25.8540   53.5830 C.ar   30  HIS30       0.0817
      7  ND1       21.6410   26.7780   53.8150 N.ar   30  HIS30      -0.2268
      8  CD2       19.5700   26.5610   53.1360 C.ar   30  HIS30       0.1154
      9  CE1       21.2060   27.9870   53.4950 C.ar   30  HIS30       0.1986
     10  NE2       19.9510   27.8840   53.0870 N.ar   30  HIS30      -0.2212
     11  N         33.3860   23.3760   55.4580 N.3   107  TYR107     -0.1241
     12  CA        32.8880   23.2620   56.8310 C.3   107  TYR107      0.1605
     13  C         32.4950   21.8480   57.2560 C.2   107  TYR107      0.2264
     14  O         31.8420   21.1060   56.5150 O.2   107  TYR107     -0.2867
     15  CB        31.7710   24.2800   57.0950 C.3   107  TYR107      0.0534
     16  CG        32.1940   25.6460   56.6380 C.ar  107  TYR107     -0.0201
     17  CD1       33.2100   26.3340   57.3070 C.ar  107  TYR107     -0.0009
     18  CD2       31.6490   26.2190   55.5060 C.ar  107  TYR107     -0.0009
     19  CE1       33.6360   27.5850   56.8830 C.ar  107  TYR107      0.0417
     20  CE2       32.0700   27.4750   55.0700 C.ar  107  TYR107      0.0417
     21  CZ        33.0570   28.1470   55.7580 C.ar  107  TYR107      0.1957
     22  OH        33.4820   29.3870   55.3280 O.3   107  TYR107     -0.2866
     23  N         30.5280   20.8160   59.6850 N.3   109  SER109     -0.1202
     24  CA        29.2060   20.5260   60.2240 C.3   109  SER109      0.2020
     25  C         28.1480   20.5780   59.1460 C.2   109  SER109      0.2618
     26  O         26.9670   20.6840   59.4470 O.2   109  SER109     -0.2717
     27  CB        28.8360   21.4790   61.3590 C.3   109  SER109      0.2103
     28  OG        28.5440   22.7600   60.8460 O.3   109  SER109     -0.2182
     29  N         28.5640   20.5030   57.8910 N.am  110  GLU110     -0.1979
     30  CA        27.5970   20.3660   56.8160 C.3   110  GLU110      0.1602
     31  C         28.1840   19.5470   55.6970 C.2   110  GLU110      0.2287
     32  O         29.4010   19.4840   55.5330 O.2   110  GLU110     -0.2864
     33  CB        27.1640   21.7330   56.2710 C.3   110  GLU110      0.0415
     34  CG        28.2390   22.4460   55.4630 C.3   110  GLU110      0.1163
     35  CD        27.8280   23.8360   54.9990 C.2   110  GLU110      0.3649
     36  OE1       26.6570   24.2250   55.2200 O.co2 110  GLU110     -0.2457
     37  OE2       28.6810   24.5380   54.4040 O.co2 110  GLU110     -0.2457
     38  N         27.0720   19.0450   51.4250 N.3   112  ASN112     -0.1225
     39  CA        26.3350   19.8520   50.4560 C.3   112  ASN112      0.1785
     40  C         26.2980   21.3480   50.8230 C.2   112  ASN112      0.2598
     41  O         25.2700   22.0140   50.6900 O.2   112  ASN112     -0.2718
     42  CB        24.9110   19.3100   50.2730 C.3   112  ASN112      0.1169
     43  CG        24.8920   17.9050   49.7120 C.2   112  ASN112      0.2627
     44  OD1       25.9230   17.3780   49.2930 O.2   112  ASN112     -0.2716
     45  ND2       23.7160   17.2920   49.6940 N.am  112  ASN112     -0.0877
     46  N         27.4190   21.8700   51.2990 N.am  113  GLY113     -0.1942
     47  CA        27.5090   23.2810   51.6220 C.3   113  GLY113      0.2014
     48  C         27.6240   24.1040   50.3500 C.2   113  GLY113      0.2638
     49  O         27.9830   23.5860   49.2900 O.2   113  GLY113     -0.2714
     50  N         27.2920   25.3890   50.4520 N.am  114  ALA114     -0.1977
     51  CA        27.4640   26.3170   49.3430 C.3   114  ALA114      0.1597
     52  C         28.0490   27.6360   49.8470 C.2   114  ALA114      0.2287
     53  O         28.2150   27.8290   51.0440 O.2   114  ALA114     -0.2864
     54  CB        26.1420   26.5390   48.6040 C.3   114  ALA114      0.0319
     55  N         21.0600   26.4160   61.0190 N.3   154  PHE154     -0.1227
     56  CA        22.2710   26.8910   60.3860 C.3   154  PHE154      0.1736
     57  C         22.2400   28.4030   60.1530 C.2   154  PHE154      0.2596
     58  O         23.3000   29.0470   60.0540 O.2   154  PHE154     -0.2718
     59  CB        22.4780   26.1630   59.0560 C.3   154  PHE154      0.0547
     60  CG        21.2410   26.0990   58.1960 C.ar  154  PHE154     -0.0202
     61  CD1       20.8560   27.1860   57.4280 C.ar  154  PHE154     -0.0042
     62  CD2       20.4830   24.9370   58.1360 C.ar  154  PHE154     -0.0042
     63  CE1       19.7370   27.1240   56.6300 C.ar  154  PHE154     -0.0003
     64  CE2       19.3560   24.8590   57.3510 C.ar  154  PHE154     -0.0003
     65  CZ        18.9770   25.9510   56.5890 C.ar  154  PHE154     -0.0000
     66  N         21.0400   28.9720   60.0590 N.am  155  SER155     -0.1952
     67  CA        20.9260   30.4080   59.7850 C.3   155  SER155      0.1924
     68  C         20.0750   31.1510   60.8020 C.2   155  SER155      0.2314
     69  O         19.4190   32.1270   60.4700 O.2   155  SER155     -0.2863
     70  CB        20.4060   30.6600   58.3610 C.3   155  SER155      0.2116
     71  OG        19.1500   30.0220   58.1550 O.3   155  SER155     -0.2180
     72  N         19.8990   33.4350   64.1600 N.3   157  MET157     -0.1245
     73  CA        20.5970   34.3250   65.0880 C.3   157  MET157      0.1570
     74  C         19.7540   34.5370   66.3130 C.2   157  MET157      0.2261
     75  O         18.5460   34.2680   66.3290 O.2   157  MET157     -0.2867
     76  CB        20.8240   35.7090   64.4780 C.3   157  MET157      0.0387
     77  CG        21.4300   35.7020   63.1220 C.3   157  MET157      0.0595
     78  SD        23.0060   34.8400   63.1670 S.3   157  MET157     -0.1393
     79  CE        22.6990   33.6550   61.8510 C.3   157  MET157      0.0692
     80  N         20.9670   35.4010   50.8680 N.3   172  ALA172     -0.1231
     81  CA        21.9010   35.8340   51.9070 C.3   172  ALA172      0.1694
     82  C         22.2030   34.7490   52.9460 C.2   172  ALA172      0.2592
     83  O         23.2000   34.8330   53.6500 O.2   172  ALA172     -0.2718
     84  CB        21.3890   37.0990   52.5920 C.3   172  ALA172      0.0304
     85  N         21.3410   33.7400   53.0490 N.am  173  ALA173     -0.1966
     86  CA        21.6100   32.6200   53.9630 C.3   173  ALA173      0.1728
     87  C         22.6790   31.6660   53.4110 C.2   173  ALA173      0.2616
     88  O         23.0590   30.7050   54.0780 O.2   173  ALA173     -0.2715
     89  CB        20.3210   31.8530   54.2770 C.3   173  ALA173      0.0334
     90  N         23.1650   31.9260   52.1990 N.am  174  PHE174     -0.1960
     91  CA        24.2680   31.1270   51.6430 C.3   174  PHE174      0.1771
     92  C         25.6460   31.7860   51.8120 C.2   174  PHE174      0.2619
     93  O         26.6490   31.3050   51.2970 O.2   174  PHE174     -0.2715
     94  CB        23.9920   30.7670   50.1810 C.3   174  PHE174      0.0574
     95  CG        22.9150   29.7360   50.0280 C.ar  174  PHE174     -0.0200
     96  CD1       23.1740   28.4030   50.3110 C.ar  174  PHE174     -0.0042
     97  CD2       21.6310   30.1010   49.6640 C.ar  174  PHE174     -0.0042
     98  CE1       22.1950   27.4500   50.1870 C.ar  174  PHE174     -0.0003
     99  CE2       20.6460   29.1550   49.5430 C.ar  174  PHE174     -0.0003
    100  CZ        20.9290   27.8200   49.8020 C.ar  174  PHE174     -0.0000
    101  N         25.6680   32.8820   52.5590 N.am  175  ILE175     -0.1963
    102  CA        26.8880   33.6130   52.8630 C.3   175  ILE175      0.1727
    103  C         27.5280   33.0370   54.1230 C.2   175  ILE175      0.2616
    104  O         26.8820   32.9280   55.1630 O.2   175  ILE175     -0.2715
    105  CB        26.5630   35.1160   53.0750 C.3   175  ILE175      0.0290
    106  CG1       26.1820   35.7770   51.7450 C.3   175  ILE175      0.0022
    107  CG2       27.7180   35.8560   53.7130 C.3   175  ILE175      0.0023
    108  CD1       25.5760   37.1890   51.9120 C.3   175  ILE175      0.0001
    109  N         28.8040   32.6850   54.0330 N.am  176  ASN176     -0.1958
    110  CA        29.5020   32.0890   55.1640 C.3   176  ASN176      0.1819
    111  C         30.1040   33.1110   56.1040 C.2   176  ASN176      0.2621
    112  O         30.2260   34.2770   55.7620 O.2   176  ASN176     -0.2715
    113  CB        30.5690   31.1170   54.6610 C.3   176  ASN176      0.1195
    114  CG        29.9550   29.9360   53.9620 C.2   176  ASN176      0.2630
    115  OD1       29.1070   29.2550   54.5330 O.2   176  ASN176     -0.2716
    116  ND2       30.3360   29.7080   52.7160 N.am  176  ASN176     -0.0877
    117  N         30.4740   32.6630   57.2940 N.am  177  HIS177     -0.1973
    118  CA        31.0070   33.5410   58.3230 C.3   177  HIS177      0.1656
    119  C         32.5300   33.6540   58.2370 C.2   177  HIS177      0.2291
    120  O         33.2180   32.6610   57.9930 O.2   177  HIS177     -0.2864
    121  CB        30.5960   33.0040   59.6950 C.3   177  HIS177      0.0771
    122  CG        31.3120   33.6410   60.8450 C.ar  177  HIS177      0.0820
    123  ND1       30.7130   34.5680   61.6700 N.ar  177  HIS177     -0.2267
    124  CD2       32.5660   33.4650   61.3280 C.ar  177  HIS177      0.1154
    125  CE1       31.5690   34.9450   62.6040 C.ar  177  HIS177      0.1986
    126  NE2       32.7030   34.2940   62.4160 N.ar  177  HIS177     -0.2212
    127  N         28.6080   36.6140   61.7010 N.3   211  TYR211     -0.1241
    128  CA        27.3240   36.2150   62.2990 C.3   211  TYR211      0.1605
    129  C         27.1520   36.7980   63.6980 C.2   211  TYR211      0.2264
    130  O         26.0520   37.2040   64.0640 O.2   211  TYR211     -0.2867
    131  CB        27.1400   34.6900   62.3570 C.3   211  TYR211      0.0534
    132  CG        27.1610   33.9610   61.0190 C.ar  211  TYR211     -0.0201
    133  CD1       27.2080   34.6520   59.8130 C.ar  211  TYR211     -0.0009
    134  CD2       27.1510   32.5770   60.9760 C.ar  211  TYR211     -0.0009
    135  CE1       27.2450   33.9740   58.5960 C.ar  211  TYR211      0.0417
    136  CE2       27.1940   31.8860   59.7680 C.ar  211  TYR211      0.0417
    137  CZ        27.2350   32.5920   58.5900 C.ar  211  TYR211      0.1957
    138  OH        27.2740   31.9100   57.4120 O.3   211  TYR211     -0.2866
    139  N         28.4090   32.7560   67.8940 N.3   215  PHE215     -0.1227
    140  CA        27.6410   31.9020   67.0090 C.3   215  PHE215      0.1736
    141  C         28.1800   30.4740   67.0700 C.2   215  PHE215      0.2595
    142  O         27.4180   29.5220   67.1930 O.2   215  PHE215     -0.2718
    143  CB        27.6680   32.4280   65.5670 C.3   215  PHE215      0.0547
    144  CG        26.7420   31.6930   64.6440 C.ar  215  PHE215     -0.0202
    145  CD1       27.1490   30.5360   64.0170 C.ar  215  PHE215     -0.0042
    146  CD2       25.4530   32.1540   64.4190 C.ar  215  PHE215     -0.0042
    147  CE1       26.2990   29.8480   63.1730 C.ar  215  PHE215     -0.0003
    148  CE2       24.5950   31.4710   63.5830 C.ar  215  PHE215     -0.0003
    149  CZ        25.0150   30.3150   62.9580 C.ar  215  PHE215     -0.0000
    150  N         29.5000   30.3400   66.9780 N.am  216  PHE216     -0.1976
    151  CA        30.1390   29.0280   66.9260 C.3   216  PHE216      0.1639
    152  C         30.6900   28.6300   68.2880 C.2   216  PHE216      0.2290
    153  O         31.8820   28.3930   68.4400 O.2   216  PHE216     -0.2864
    154  CB        31.2510   29.0230   65.8770 C.3   216  PHE216      0.0560
    155  CG        30.7610   29.3080   64.4900 C.ar  216  PHE216     -0.0200
    156  CD1       30.2670   28.2910   63.7000 C.ar  216  PHE216     -0.0042
    157  CD2       30.7640   30.5980   63.9870 C.ar  216  PHE216     -0.0042
    158  CE1       29.8030   28.5420   62.4270 C.ar  216  PHE216     -0.0003
    159  CE2       30.2960   30.8620   62.7000 C.ar  216  PHE216     -0.0003
    160  CZ        29.8260   29.8290   61.9200 C.ar  216  PHE216     -0.0000
    161  N         34.5690   27.4250   68.0290 N.3   222  PHE222     -0.1227
    162  CA        34.4690   26.3860   67.0030 C.3   222  PHE222      0.1736
    163  C         34.4560   26.9450   65.5890 C.2   222  PHE222      0.2596
    164  O         34.1010   26.2450   64.6470 O.2   222  PHE222     -0.2718
    165  CB        33.2350   25.5040   67.2280 C.3   222  PHE222      0.0547
    166  CG        33.1650   24.8900   68.6040 C.ar  222  PHE222     -0.0202
    167  CD1       34.1150   23.9610   69.0130 C.ar  222  PHE222     -0.0042
    168  CD2       32.1570   25.2450   69.4860 C.ar  222  PHE222     -0.0042
    169  CE1       34.0540   23.3960   70.2720 C.ar  222  PHE222     -0.0003
    170  CE2       32.0870   24.6730   70.7520 C.ar  222  PHE222     -0.0003
    171  CZ        33.0440   23.7510   71.1460 C.ar  222  PHE222     -0.0000
    172  N         34.8560   28.2020   65.4350 N.am  223  CYS223     -0.1956
    173  CA        34.8560   28.8290   64.1120 C.3   223  CYS223      0.1843
    174  C         35.9320   28.2510   63.1890 C.2   223  CYS223      0.2625
    175  O         37.0890   28.1410   63.5700 O.2   223  CYS223     -0.2714
    176  CB        35.0150   30.3390   64.2310 C.3   223  CYS223      0.0997
    177  SG        34.9100   31.1760   62.6420 S.3   223  CYS223     -0.0797
    178  N         35.5400   27.8790   61.9740 N.am  224  GLU224     -0.1963
    179  CA        36.4690   27.3230   61.0000 C.3   224  GLU224      0.1733
    180  C         36.7640   28.3090   59.8680 C.2   224  GLU224      0.2616
    181  O         37.1090   27.8990   58.7630 O.2   224  GLU224     -0.2715
    182  CB        35.9140   26.0140   60.4210 C.3   224  GLU224      0.0429
    183  CG        35.6640   24.9300   61.4610 C.3   224  GLU224      0.1163
    184  CD        34.8910   23.7310   60.9010 C.2   224  GLU224      0.3649
    185  OE1       34.7230   23.6240   59.6660 O.co2 224  GLU224     -0.2457
    186  OE2       34.4370   22.8930   61.7020 O.co2 224  GLU224     -0.2457
    187  N         36.6280   29.6090   60.1300 N.am  225  CYS225     -0.1968
    188  CA        36.8420   30.5920   59.0620 C.3   225  CYS225      0.1712
    189  C         38.3320   30.7680   58.7640 C.2   225  CYS225      0.2296
    190  O         39.1740   30.4490   59.6080 O.2   225  CYS225     -0.2864
    191  CB        36.2340   31.9480   59.4150 C.3   225  CYS225      0.0983
    192  SG        37.2190   32.9240   60.5650 S.3   225  CYS225     -0.0798
@<TRIPOS>BOND
     1    54    51    1
     2    49    48    2
     3    44    43    2
     4    51    52    1
     5    51    50    1
     6    99    97   ar
     7    99   100   ar
     8    97    95   ar
     9    45    43   am
    10    43    42    1
    11   100    98   ar
    12    52    53    2
    13    95    94    1
    14    95    96   ar
    15    94    91    1
    16    98    96   ar
    17    42    39    1
    18    48    50   am
    19    48    47    1
    20    39    40    1
    21    39    38    1
    22    41    40    2
    23    40    46   am
    24    80    81    1
    25    93    92    2
    26    46    47    1
    27     1     2    1
    28    91    92    1
    29    91    90    1
    30   106   108    1
    31   106   105    1
    32    92   101   am
    33    81    84    1
    34    81    82    1
    35     4     3    2
    36    90    87   am
    37   101   102    1
    38   116   114   am
    39     3     2    1
    40   102   105    1
    41   102   103    1
    42     2     5    1
    43    82    85   am
    44    82    83    2
    45    85    86    1
    46   105   107    1
    47    10     8   ar
    48    10     9   ar
    49     8     6   ar
    50    87    86    1
    51    87    88    2
    52     9     7   ar
    53     6     7   ar
    54     6     5    1
    55   114   115    2
    56   114   113    1
    57    86    89    1
    58   109   103   am
    59   109   110    1
    60   103   104    2
    61    37    35   ar
    62   113   110    1
    63    35    36   ar
    64    35    34    1
    65    20    18   ar
    66    20    21   ar
    67   110   111    1
    68    22    21    1
    69    11    12    1
    70    34    33    1
    71    18    16   ar
    72    32    31    2
    73    31    30    1
    74    21    19   ar
    75   112   111    2
    76   111   117   am
    77    33    30    1
    78    14    13    2
    79    65    63   ar
    80    65    64   ar
    81    63    61   ar
    82    16    15    1
    83    16    17   ar
    84    30    29    1
    85    12    15    1
    86    12    13    1
    87    19    17   ar
    88   117   118    1
    89    64    62   ar
    90   138   137    1
    91    61    60   ar
    92    29    25   am
    93   120   119    2
    94    62    60   ar
    95    71    70    1
    96    60    59    1
    97   119   118    1
    98   118   121    1
    99    70    67    1
   100   137   135   ar
   101   137   136   ar
   102   135   133   ar
   103   181   180    2
   104   189   188    1
   105   189   190    2
   106    59    56    1
   107   188   191    1
   108   188   187    1
   109    25    26    2
   110    25    24    1
   111   191   192    1
   112   185   184   ar
   113    23    24    1
   114   121   122    1
   115   136   134   ar
   116    67    66    1
   117    67    68    1
   118   133   132   ar
   119   180   187   am
   120   180   179    1
   121    58    57    2
   122    66    57   am
   123    57    56    1
   124    24    27    1
   125    56    55    1
   126   182   179    1
   127   182   183    1
   128    69    68    2
   129   122   124   ar
   130   122   123   ar
   131    28    27    1
   132   184   183    1
   133   184   186   ar
   134   134   132   ar
   135   179   178    1
   136   132   131    1
   137   124   126   ar
   138   123   125   ar
   139   127   128    1
   140    79    78    1
   141   160   158   ar
   142   160   159   ar
   143   178   174   am
   144   128   131    1
   145   128   129    1
   146   126   125   ar
   147   158   156   ar
   148   177   176    1
   149   159   157   ar
   150   149   147   ar
   151   149   148   ar
   152    77    78    1
   153    77    76    1
   154   147   145   ar
   155   174   175    2
   156   174   173    1
   157   148   146   ar
   158   129   130    2
   159   156   155   ar
   160   157   155   ar
   161   145   144   ar
   162   173   176    1
   163   173   172    1
   164    72    73    1
   165   146   144   ar
   166    76    73    1
   167   155   154    1
   168   144   143    1
   169   164   163    2
   170    73    74    1
   171   172   163   am
   172   143   140    1
   173   163   162    1
   174   154   151    1
   175    74    75    2
   176   151   150    1
   177   151   152    1
   178   150   141   am
   179   162   165    1
   180   162   161    1
   181   140   141    1
   182   140   139    1
   183   141   142    2
   184   165   166    1
   185   152   153    2
   186   166   167   ar
   187   166   168   ar
   188   167   169   ar
   189   168   170   ar
   190   169   171   ar
   191   170   171   ar
