@<TRIPOS>MOLECULE
tmp/4burD01.pdb
 144 143 0 0 0
SMALL
GASTEIGER

@<TRIPOS>ATOM
      1  N         28.3410  -89.0500 -120.2790 N.3    51  GLU51      -0.1245
      2  CA        27.9040  -90.0420 -121.2740 C.3    51  GLU51       0.1567
      3  C         28.9460  -91.0600 -121.7350 C.2    51  GLU51       0.2260
      4  O         28.5840  -92.1870 -122.0690 O.2    51  GLU51      -0.2867
      5  CB        27.3000  -89.3640 -122.5030 C.3    51  GLU51       0.0388
      6  CG        26.0410  -88.5610 -122.2400 C.3    51  GLU51       0.1160
      7  CD        26.3180  -87.0890 -121.9810 C.2    51  GLU51       0.3649
      8  OE1       27.4920  -86.7070 -121.7490 O.co2  51  GLU51      -0.2457
      9  OE2       25.3480  -86.3050 -122.0160 O.co2  51  GLU51      -0.2457
     10  N         20.8700  -87.6370 -124.6080 N.3    69  TRP69      -0.1241
     11  CA        19.6420  -88.0480 -123.9050 C.3    69  TRP69       0.1605
     12  C         18.5040  -88.2830 -124.8600 C.2    69  TRP69       0.2264
     13  O         17.6090  -89.0770 -124.5700 O.2    69  TRP69      -0.2867
     14  CB        19.2370  -87.0310 -122.8260 C.3    69  TRP69       0.0550
     15  CG        18.7920  -85.6900 -123.3790 C.ar   69  TRP69       0.0003
     16  CD1       19.5690  -84.5410 -123.5560 C.ar   69  TRP69       0.0946
     17  CD2       17.4450  -85.3160 -123.8630 C.ar   69  TRP69       0.0152
     18  NE1       18.8200  -83.5210 -124.0910 N.ar   69  TRP69      -0.2442
     19  CE2       17.5400  -83.9200 -124.3050 C.ar   69  TRP69       0.0810
     20  CE3       16.2220  -85.9740 -123.9720 C.ar   69  TRP69       0.0012
     21  CZ2       16.4460  -83.2360 -124.8310 C.ar   69  TRP69       0.0191
     22  CZ3       15.1290  -85.2730 -124.5010 C.ar   69  TRP69       0.0001
     23  CH2       15.2400  -83.9390 -124.9190 C.ar   69  TRP69       0.0015
     24  N         29.3600  -74.7670 -119.4590 N.3   328  HIS328     -0.1226
     25  CA        29.4160  -75.0430 -120.8940 C.3   328  HIS328      0.1752
     26  C         28.6020  -74.0960 -121.7060 C.2   328  HIS328      0.2596
     27  O         29.1480  -73.4070 -122.5640 O.2   328  HIS328     -0.2718
     28  CB        28.9830  -76.4610 -121.2030 C.3   328  HIS328      0.0759
     29  CG        29.1910  -76.8480 -122.6450 C.ar  328  HIS328      0.0818
     30  ND1       28.1740  -76.9210 -123.5310 N.ar  328  HIS328     -0.2268
     31  CD2       30.3540  -77.1680 -123.3480 C.ar  328  HIS328      0.1154
     32  CE1       28.6540  -77.2850 -124.7330 C.ar  328  HIS328      0.1986
     33  NE2       29.9900  -77.4340 -124.6220 N.ar  328  HIS328     -0.2212
     34  N         27.2960  -74.0470 -121.4470 N.am  329  ASP329     -0.1974
     35  CA        26.4150  -73.1770 -122.2090 C.3   329  ASP329      0.1709
     36  C         26.9330  -71.7500 -122.1970 C.2   329  ASP329      0.2293
     37  O         26.7300  -70.9890 -123.1410 O.2   329  ASP329     -0.2864
     38  CB        24.9830  -73.2240 -121.6610 C.3   329  ASP329      0.1436
     39  CG        24.0100  -72.3460 -122.4620 C.2   329  ASP329      0.3671
     40  OD1       23.7600  -72.6480 -123.6490 O.co2 329  ASP329     -0.2456
     41  OD2       23.4940  -71.3480 -121.9120 O.co2 329  ASP329     -0.2456
     42  N         29.5760  -71.1850 -124.6410 N.3   332  VAL332     -0.1245
     43  CA        28.9990  -71.0290 -125.9720 C.3   332  VAL332      0.1561
     44  C         28.4320  -69.6150 -126.0880 C.2   332  VAL332      0.2260
     45  O         28.9430  -68.8010 -126.8620 O.2   332  VAL332     -0.2867
     46  CB        27.9050  -72.0900 -126.3170 C.3   332  VAL332      0.0252
     47  CG1       27.4830  -71.9570 -127.7670 C.3   332  VAL332      0.0019
     48  CG2       28.3850  -73.5090 -126.0620 C.3   332  VAL332      0.0019
     49  N         22.7770  -70.7250 -119.1130 N.3   354  MET354     -0.1245
     50  CA        22.2020  -71.6850 -118.1640 C.3   354  MET354      0.1570
     51  C         23.0820  -72.9220 -117.9390 C.2   354  MET354      0.2261
     52  O         24.0680  -73.1270 -118.6440 O.2   354  MET354     -0.2867
     53  CB        20.7850  -72.0810 -118.6010 C.3   354  MET354      0.0387
     54  CG        20.6670  -72.6320 -120.0140 C.3   354  MET354      0.0595
     55  SD        21.3510  -74.2900 -120.1770 S.3   354  MET354     -0.1393
     56  CE        19.9630  -75.2810 -119.6130 C.3   354  MET354      0.0692
     57  N         23.2140  -77.3230 -116.2110 N.3   356  TRP356     -0.1241
     58  CA        22.4490  -78.5330 -115.9470 C.3   356  TRP356      0.1605
     59  C         23.3890  -79.5310 -115.3490 C.2   356  TRP356      0.2264
     60  O         24.6140  -79.3870 -115.4620 O.2   356  TRP356     -0.2867
     61  CB        21.7900  -79.0790 -117.2340 C.3   356  TRP356      0.0550
     62  CG        22.7740  -79.8100 -118.1140 C.ar  356  TRP356      0.0003
     63  CD1       22.9750  -81.1880 -118.2070 C.ar  356  TRP356      0.0946
     64  CD2       23.7810  -79.2150 -119.0090 C.ar  356  TRP356      0.0152
     65  NE1       24.0040  -81.4780 -119.0760 N.ar  356  TRP356     -0.2442
     66  CE2       24.5310  -80.3410 -119.5900 C.ar  356  TRP356      0.0810
     67  CE3       24.1190  -77.9140 -119.3770 C.ar  356  TRP356      0.0012
     68  CZ2       25.5610  -80.1470 -120.5030 C.ar  356  TRP356      0.0191
     69  CZ3       25.1670  -77.7280 -120.2810 C.ar  356  TRP356      0.0001
     70  CH2       25.8660  -78.8210 -120.8390 C.ar  356  TRP356      0.0015
     71  N         23.3780  -83.9730 -113.7850 N.3   358  ASP358     -0.1239
     72  CA        22.6920  -85.2390 -113.5460 C.3   358  ASP358      0.1674
     73  C         23.5280  -86.0950 -112.6000 C.2   358  ASP358      0.2266
     74  O         24.7440  -86.2220 -112.7690 O.2   358  ASP358     -0.2867
     75  CB        22.4500  -85.9890 -114.8630 C.3   358  ASP358      0.1410
     76  CG        21.8060  -85.1110 -115.9420 C.2   358  ASP358      0.3668
     77  OD1       20.6250  -84.7170 -115.7820 O.co2 358  ASP358     -0.2456
     78  OD2       22.4820  -84.8250 -116.9620 O.co2 358  ASP358     -0.2456
     79  N         18.6710  -81.7120 -112.8880 N.3   365  TYR365     -0.1227
     80  CA        18.1570  -80.3480 -112.8040 C.3   365  TYR365      0.1736
     81  C         18.7720  -79.4070 -113.8400 C.2   365  TYR365      0.2595
     82  O         19.7990  -79.7220 -114.4470 O.2   365  TYR365     -0.2718
     83  CB        18.3810  -79.7780 -111.3980 C.3   365  TYR365      0.0548
     84  CG        19.8390  -79.6800 -111.0050 C.ar  365  TYR365     -0.0200
     85  CD1       20.5200  -80.7920 -110.5330 C.ar  365  TYR365     -0.0009
     86  CD2       20.5310  -78.4800 -111.0990 C.ar  365  TYR365     -0.0009
     87  CE1       21.8510  -80.7200 -110.1720 C.ar  365  TYR365      0.0417
     88  CE2       21.8690  -78.3990 -110.7350 C.ar  365  TYR365      0.0417
     89  CZ        22.5220  -79.5260 -110.2730 C.ar  365  TYR365      0.1957
     90  OH        23.8550  -79.4860 -109.9110 O.3   365  TYR365     -0.2866
     91  N         18.1240  -78.2530 -114.0160 N.am  366  GLU366     -0.1979
     92  CA        18.6060  -77.1550 -114.8590 C.3   366  GLU366      0.1602
     93  C         18.6720  -75.8900 -114.0180 C.2   366  GLU366      0.2287
     94  O         17.8110  -75.6700 -113.1730 O.2   366  GLU366     -0.2864
     95  CB        17.6430  -76.9070 -116.0190 C.3   366  GLU366      0.0415
     96  CG        17.7880  -77.8600 -117.1900 C.3   366  GLU366      0.1163
     97  CD        16.5240  -77.9810 -118.0400 C.2   366  GLU366      0.3649
     98  OE1       15.6980  -77.0300 -118.0990 O.co2 366  GLU366     -0.2457
     99  OE2       16.3640  -79.0510 -118.6660 O.co2 366  GLU366     -0.2457
    100  N         11.1270  -80.5070 -116.8000 N.3   406  PHE406     -0.1227
    101  CA        11.5140  -80.2030 -118.1630 C.3   406  PHE406      0.1736
    102  C         10.6720  -79.1270 -118.8340 C.2   406  PHE406      0.2595
    103  O          9.5060  -78.9260 -118.4970 O.2   406  PHE406     -0.2718
    104  CB        11.5000  -81.4750 -118.9840 C.3   406  PHE406      0.0547
    105  CG        12.3380  -82.5550 -118.4020 C.ar  406  PHE406     -0.0202
    106  CD1       13.6830  -82.3230 -118.1140 C.ar  406  PHE406     -0.0042
    107  CD2       11.7940  -83.8020 -118.1380 C.ar  406  PHE406     -0.0042
    108  CE1       14.4770  -83.3220 -117.5790 C.ar  406  PHE406     -0.0003
    109  CE2       12.5790  -84.8080 -117.6030 C.ar  406  PHE406     -0.0003
    110  CZ        13.9220  -84.5690 -117.3230 C.ar  406  PHE406     -0.0000
    111  N         11.2870  -78.4470 -119.7960 N.am  407  ASN407     -0.1960
    112  CA        10.5790  -77.5870 -120.7400 C.3   407  ASN407      0.1819
    113  C          9.9910  -76.3780 -120.0770 C.2   407  ASN407      0.2621
    114  O          8.9680  -75.8790 -120.5470 O.2   407  ASN407     -0.2715
    115  CB         9.4370  -78.3320 -121.4600 C.3   407  ASN407      0.1195
    116  CG         9.8680  -79.6710 -122.0470 C.2   407  ASN407      0.2630
    117  OD1       10.7830  -79.7440 -122.8640 O.2   407  ASN407     -0.2716
    118  ND2        9.1780  -80.7370 -121.6480 N.am  407  ASN407     -0.0877
    119  N         10.5890  -75.9110 -118.9830 N.am  408  ARG408     -0.1963
    120  CA        10.0760  -74.6910 -118.3650 C.3   408  ARG408      0.1729
    121  C         11.1500  -73.6070 -118.2990 C.2   408  ARG408      0.2616
    122  O         10.8930  -72.4820 -117.8400 O.2   408  ARG408     -0.2715
    123  CB         9.4480  -74.9310 -116.9820 C.3   408  ARG408      0.0348
    124  CG         8.7340  -76.2620 -116.7340 C.3   408  ARG408      0.0492
    125  CD         7.4010  -76.5210 -117.4530 C.3   408  ARG408      0.2205
    126  NE         6.3070  -75.6240 -117.0780 N.pl3 408  ARG408     -0.0865
    127  CZ         5.0150  -75.9460 -117.1420 C.cat 408  ARG408      0.5346
    128  NH1        4.6270  -77.1620 -117.5340 N.pl3 408  ARG408      0.1354
    129  NH2        4.1010  -75.0470 -116.7990 N.pl3 408  ARG408      0.1354
    130  N         12.3460  -73.9290 -118.7840 N.am  409  MET409     -0.1964
    131  CA        13.4240  -72.9420 -118.8010 C.3   409  MET409      0.1722
    132  C         13.0040  -71.5720 -119.3840 C.2   409  MET409      0.2458
    133  O         13.3800  -70.5280 -118.8570 O.2   409  MET409     -0.2730
    134  CB        14.6570  -73.5010 -119.5140 C.3   409  MET409      0.0427
    135  CG        15.8560  -72.5650 -119.4670 C.3   409  MET409      0.0599
    136  SD        16.4250  -72.1280 -117.8010 S.3   409  MET409     -0.1393
    137  CE        17.4210  -73.5660 -117.3980 C.3   409  MET409      0.0692
    138  N         12.2170  -71.5600 -120.4740 N.am  410  PRO410     -0.2727
    139  CA        11.8510  -70.2060 -120.8910 C.3   410  PRO410      0.1402
    140  C         11.0490  -69.4040 -119.8520 C.2   410  PRO410      0.2269
    141  O         11.1250  -68.1830 -119.8640 O.2   410  PRO410     -0.2865
    142  CB        11.0800  -70.4180 -122.2050 C.3   410  PRO410      0.0296
    143  CG        10.8250  -71.8900 -122.3020 C.3   410  PRO410      0.0237
    144  CD        11.8960  -72.5650 -121.5090 C.3   410  PRO410      0.0939
@<TRIPOS>BOND
     1    47    46    1
     2    45    44    2
     3    46    48    1
     4    46    43    1
     5    44    43    1
     6    43    42    1
     7    23    21   ar
     8    23    22   ar
     9    12    13    2
    10    12    11    1
    11    21    19   ar
    12    32    33   ar
    13    32    30   ar
    14    33    31   ar
    15    10    11    1
    16    22    20   ar
    17    19    18   ar
    18    19    17   ar
    19    18    16   ar
    20    20    17   ar
    21    11    14    1
    22    17    15   ar
    23    40    39   ar
    24    16    15   ar
    25    30    29   ar
    26    15    14    1
    27    31    29   ar
    28    37    36    2
    29   117   116    2
    30    29    28    1
    31    27    26    2
    32     5     6    1
    33     5     2    1
    34    39    41   ar
    35    39    38    1
    36   143   142    1
    37   143   144    1
    38     6     7    1
    39    35    36    1
    40    35    38    1
    41    35    34    1
    42   142   139    1
    43     4     3    2
    44   116   118   am
    45   116   115    1
    46     9     7   ar
    47     7     8   ar
    48     3     2    1
    49    26    34   am
    50    26    25    1
    51   144   138    1
    52   115   112    1
    53     2     1    1
    54    28    25    1
    55    25    24    1
    56   139   138    1
    57   139   140    1
    58    70    68   ar
    59    70    69   ar
    60   112   113    1
    61   112   111    1
    62   114   113    2
    63    68    66   ar
    64   138   132   am
    65    69    67   ar
    66    55    54    1
    67    55    56    1
    68   113   119   am
    69    54    53    1
    70   141   140    2
    71   111   102   am
    72    66    65   ar
    73    66    64   ar
    74   134   135    1
    75   134   131    1
    76   135   136    1
    77   132   133    2
    78   132   131    1
    79    67    64   ar
    80    49    50    1
    81    65    63   ar
    82    64    62   ar
    83   104   105    1
    84   104   101    1
    85   119   120    1
    86   102   103    2
    87   102   101    1
    88   131   130    1
    89   130   121   am
    90    99    97   ar
    91    52    51    2
    92    53    50    1
    93   105   107   ar
    94   105   106   ar
    95   120   121    1
    96   120   123    1
    97   121   122    2
    98    63    62   ar
    99    50    51    1
   100   101   100    1
   101   107   109   ar
   102    62    61    1
   103   106   108   ar
   104    98    97   ar
   105    97    96    1
   106   136   137    1
   107   109   110   ar
   108   108   110   ar
   109   128   127    1
   110   125   126    1
   111   125   124    1
   112    61    58    1
   113    96    95    1
   114   127   126    2
   115   127   129    1
   116   123   124    1
   117    78    76   ar
   118    57    58    1
   119    95    92    1
   120    58    59    1
   121    76    77   ar
   122    76    75    1
   123    60    59    2
   124    75    72    1
   125    92    93    1
   126    92    91    1
   127    82    81    2
   128    93    94    2
   129    91    81   am
   130    81    80    1
   131    71    72    1
   132    72    73    1
   133    79    80    1
   134    80    83    1
   135    74    73    2
   136    83    84    1
   137    86    84   ar
   138    86    88   ar
   139    84    85   ar
   140    88    89   ar
   141    85    87   ar
   142    89    87   ar
   143    89    90    1
