@<TRIPOS>MOLECULE
tmp/4busA00.pdb
 160 161 0 0 0
SMALL
GASTEIGER

@<TRIPOS>ATOM
      1  N        -35.6560   -7.3510   17.3290 N.3    80  HIS80      -0.1226
      2  CA       -36.0640   -7.5690   15.9580 C.3    80  HIS80       0.1752
      3  C        -34.8630   -7.7790   15.1200 C.2    80  HIS80       0.2597
      4  O        -33.9030   -6.9690   15.1530 O.2    80  HIS80      -0.2718
      5  CB       -36.8690   -6.3790   15.4440 C.3    80  HIS80       0.0759
      6  CG       -37.4360   -6.5930   14.0890 C.ar   80  HIS80       0.0818
      7  ND1      -38.5370   -7.3860   13.8710 N.ar   80  HIS80      -0.2268
      8  CD2      -37.0350   -6.1080   12.8340 C.ar   80  HIS80       0.1154
      9  CE1      -38.8040   -7.3750   12.5300 C.ar   80  HIS80       0.1986
     10  NE2      -37.8970   -6.5850   11.9150 N.ar   80  HIS80      -0.2212
     11  N        -34.8700   -8.8850   14.3710 N.am   81  GLY81      -0.1942
     12  CA       -33.7870   -9.1720   13.4220 C.3    81  GLY81       0.2014
     13  C        -34.3700   -9.1930   12.0310 C.2    81  GLY81       0.2640
     14  O        -35.4850   -9.7040   11.8260 O.2    81  GLY81      -0.2714
     15  N        -33.6500   -8.6290   11.0630 N.am   82  SER82      -0.1936
     16  CA       -34.2200   -8.4740    9.7360 C.3    82  SER82       0.2040
     17  C        -33.1690   -8.2190    8.6700 C.2    82  SER82       0.2485
     18  O        -32.2210   -7.5010    8.9330 O.2    82  SER82      -0.2729
     19  CB       -35.1800   -7.2840    9.7350 C.3    82  SER82       0.2129
     20  OG       -35.6330   -7.0060    8.4250 O.3    82  SER82      -0.2179
     21  N        -33.3460   -8.7830    7.4580 N.am   83  PRO83      -0.2715
     22  CA       -32.4570   -8.3070    6.3880 C.3    83  PRO83       0.1536
     23  C        -32.6550   -6.8310    6.0430 C.2    83  PRO83       0.2598
     24  O        -31.8140   -6.2700    5.3590 O.2    83  PRO83      -0.2715
     25  CB       -32.8330   -9.1610    5.1680 C.3    83  PRO83       0.0310
     26  CG       -33.8130  -10.1740    5.6470 C.3    83  PRO83       0.0237
     27  CD       -34.3430   -9.7450    6.9830 C.3    83  PRO83       0.0939
     28  N        -33.7380   -6.2070    6.5050 N.am   84  PHE84      -0.1974
     29  CA       -34.0140   -4.8010    6.1730 C.3    84  PHE84       0.1639
     30  C        -33.6650   -3.8030    7.2610 C.2    84  PHE84       0.2290
     31  O        -34.2320   -2.7080    7.2950 O.2    84  PHE84      -0.2864
     32  CB       -35.4920   -4.6550    5.8220 C.3    84  PHE84       0.0560
     33  CG       -35.9810   -5.7250    4.9090 C.ar   84  PHE84      -0.0200
     34  CD1      -35.4010   -5.8860    3.6670 C.ar   84  PHE84      -0.0042
     35  CD2      -36.9710   -6.6050    5.3090 C.ar   84  PHE84      -0.0042
     36  CE1      -35.8080   -6.8980    2.8280 C.ar   84  PHE84      -0.0003
     37  CE2      -37.3930   -7.6100    4.4740 C.ar   84  PHE84      -0.0003
     38  CZ       -36.8110   -7.7590    3.2330 C.ar   84  PHE84      -0.0000
     39  N        -43.5990   -3.5030    4.2770 N.3    96  ARG96      -0.1231
     40  CA       -42.4820   -4.1890    3.6150 C.3    96  ARG96       0.1694
     41  C        -41.5810   -4.9940    4.5550 C.2    96  ARG96       0.2592
     42  O        -40.7120   -5.7650    4.1120 O.2    96  ARG96      -0.2718
     43  CB       -41.5920   -3.1780    2.9120 C.3    96  ARG96       0.0321
     44  CG       -42.3000   -2.3330    1.8750 C.3    96  ARG96       0.0489
     45  CD       -41.2730   -1.5040    1.1250 C.3    96  ARG96       0.2205
     46  NE       -40.5680   -0.5450    1.9830 N.pl3  96  ARG96      -0.0865
     47  CZ       -41.0780    0.6070    2.4330 C.cat  96  ARG96       0.5346
     48  NH1      -42.3280    0.9760    2.1330 N.pl3  96  ARG96       0.1354
     49  NH2      -40.3340    1.3990    3.2040 N.pl3  96  ARG96       0.1354
     50  N        -41.7220   -4.7590    5.8520 N.am   97  HIS97      -0.1962
     51  CA       -40.8730   -5.4430    6.8400 C.3    97  HIS97       0.1787
     52  C        -41.6130   -6.5770    7.5310 C.2    97  HIS97       0.2620
     53  O        -41.0850   -7.1860    8.4900 O.2    97  HIS97      -0.2715
     54  CB       -40.3570   -4.3950    7.8270 C.3    97  HIS97       0.0785
     55  CG       -39.7370   -3.2120    7.1410 C.ar   97  HIS97       0.0821
     56  ND1      -40.1570   -1.9560    7.3460 N.ar   97  HIS97      -0.2267
     57  CD2      -38.7470   -3.1430    6.1700 C.ar   97  HIS97       0.1154
     58  CE1      -39.4370   -1.1100    6.5750 C.ar   97  HIS97       0.1986
     59  NE2      -38.5820   -1.8340    5.8530 N.ar   97  HIS97      -0.2212
     60  N        -42.7990   -6.9020    7.0050 N.am   98  ALA98      -0.1963
     61  CA       -43.6580   -7.9350    7.5890 C.3    98  ALA98       0.1728
     62  C        -43.1380   -9.3200    7.2210 C.2    98  ALA98       0.2616
     63  O        -42.4640   -9.4970    6.1980 O.2    98  ALA98      -0.2715
     64  CB       -45.1110   -7.7500    7.1550 C.3    98  ALA98       0.0334
     65  N        -43.3990  -10.2880    8.0900 N.am   99  TYR99      -0.1960
     66  CA       -43.1160  -11.6850    7.8120 C.3    99  TYR99       0.1771
     67  C        -44.4060  -12.2770    7.2760 C.2    99  TYR99       0.2619
     68  O        -45.3440  -12.6080    8.0170 O.2    99  TYR99      -0.2715
     69  CB       -42.6450  -12.3660    9.0770 C.3    99  TYR99       0.0574
     70  CG       -42.3110  -13.8150    8.9700 C.ar   99  TYR99      -0.0198
     71  CD1      -42.1900  -14.4790    7.7300 C.ar   99  TYR99      -0.0009
     72  CD2      -42.1170  -14.5510   10.1180 C.ar   99  TYR99      -0.0009
     73  CE1      -41.8900  -15.8310    7.6720 C.ar   99  TYR99       0.0417
     74  CE2      -41.8010  -15.8940   10.0620 C.ar   99  TYR99       0.0417
     75  CZ       -41.7120  -16.5270    8.8390 C.ar   99  TYR99       0.1957
     76  OH       -41.4030  -17.8540    8.8350 O.3    99  TYR99      -0.2866
     77  N        -44.4970  -12.3390    5.9540 N.am  100  ILE100     -0.1977
     78  CA       -45.7710  -12.6760    5.3300 C.3   100  ILE100      0.1596
     79  C        -46.2080  -14.0690    5.7510 C.2   100  ILE100      0.2287
     80  O        -47.3740  -14.2690    6.0370 O.2   100  ILE100     -0.2864
     81  CB       -45.7580  -12.5530    3.7870 C.3   100  ILE100      0.0276
     82  CG1      -45.3650  -11.1250    3.3390 C.3   100  ILE100      0.0022
     83  CG2      -47.0990  -12.9990    3.2030 C.3   100  ILE100      0.0022
     84  CD1      -45.9780   -9.9710    4.0940 C.3   100  ILE100      0.0001
     85  N        -42.8140   -9.0770   13.3770 N.3   109  TYR109     -0.1227
     86  CA       -42.5670   -9.9710   14.4970 C.3   109  TYR109      0.1736
     87  C        -41.4210   -9.4810   15.3550 C.2   109  TYR109      0.2595
     88  O        -40.3590   -9.0890   14.8270 O.2   109  TYR109     -0.2718
     89  CB       -42.2220  -11.3930   13.9860 C.3   109  TYR109      0.0548
     90  CG       -43.4330  -12.1230   13.4370 C.ar  109  TYR109     -0.0200
     91  CD1      -44.1520  -11.6170   12.3590 C.ar  109  TYR109     -0.0009
     92  CD2      -43.9100  -13.2850   14.0500 C.ar  109  TYR109     -0.0009
     93  CE1      -45.2700  -12.2690   11.8910 C.ar  109  TYR109      0.0417
     94  CE2      -45.0190  -13.9420   13.5610 C.ar  109  TYR109      0.0417
     95  CZ       -45.7080  -13.4180   12.5160 C.ar  109  TYR109      0.1957
     96  OH       -46.8470  -14.0630   12.0710 O.3   109  TYR109     -0.2866
     97  N        -41.6100   -9.6040   16.6730 N.am  110  PHE110     -0.1962
     98  CA       -40.6070   -9.2490   17.6810 C.3   110  PHE110      0.1771
     99  C        -40.4530  -10.3760   18.6870 C.2   110  PHE110      0.2619
    100  O        -41.3980  -11.1540   18.8860 O.2   110  PHE110     -0.2715
    101  CB       -41.0650   -7.9930   18.4230 C.3   110  PHE110      0.0574
    102  CG       -41.1750   -6.8020   17.5390 C.ar  110  PHE110     -0.0200
    103  CD1      -42.3260   -6.5580   16.8260 C.ar  110  PHE110     -0.0042
    104  CD2      -40.1110   -5.9460   17.3880 C.ar  110  PHE110     -0.0042
    105  CE1      -42.3890   -5.5010   15.9440 C.ar  110  PHE110     -0.0003
    106  CE2      -40.1930   -4.8340   16.5380 C.ar  110  PHE110     -0.0003
    107  CZ       -41.3250   -4.6230   15.8190 C.ar  110  PHE110     -0.0000
    108  N        -39.3010  -10.4450   19.3430 N.am  111  ALA111     -0.1977
    109  CA       -39.0020  -11.4980   20.3080 C.3   111  ALA111      0.1597
    110  C        -38.4330  -10.9840   21.6160 C.2   111  ALA111      0.2287
    111  O        -37.6070  -10.0530   21.6270 O.2   111  ALA111     -0.2864
    112  CB       -37.9660  -12.4640   19.6990 C.3   111  ALA111      0.0319
    113  N        -33.7250  -15.6070   19.2930 N.3   116  LYS116     -0.1231
    114  CA       -34.7660  -15.8390   18.3030 C.3   116  LYS116      0.1693
    115  C        -34.6440  -14.8040   17.1440 C.2   116  LYS116      0.2592
    116  O        -34.6680  -15.1830   15.9740 O.2   116  LYS116     -0.2718
    117  CB       -36.1400  -15.8150   18.9550 C.3   116  LYS116      0.0285
    118  CG       -37.3390  -15.7190   18.0190 C.3   116  LYS116      0.0035
    119  CD       -37.4480  -16.8410   16.9960 C.3   116  LYS116      0.0206
    120  CE       -37.4890  -18.2110   17.5820 C.3   116  LYS116      0.1093
    121  NZ       -37.8720  -19.1850   16.4730 N.3   116  LYS116     -0.1314
    122  N        -34.5710  -13.5120   17.4640 N.am  117  SER117     -0.1952
    123  CA       -34.3580  -12.4720   16.4280 C.3   117  SER117      0.1924
    124  C        -33.0680  -12.7000   15.6380 C.2   117  SER117      0.2314
    125  O        -33.0240  -12.4700   14.4240 O.2   117  SER117     -0.2863
    126  CB       -34.3550  -11.0740   17.0610 C.3   117  SER117      0.2116
    127  OG       -35.6750  -10.7250   17.4680 O.3   117  SER117     -0.2180
    128  N        -33.1510  -14.4270   12.2570 N.3   120  TYR120     -0.1241
    129  CA       -33.6680  -13.7070   11.0900 C.3   120  TYR120      0.1605
    130  C        -32.7370  -12.6450   10.4650 C.2   120  TYR120      0.2264
    131  O        -33.1130  -11.9790    9.4900 O.2   120  TYR120     -0.2867
    132  CB       -35.0400  -13.0810   11.4080 C.3   120  TYR120      0.0534
    133  CG       -36.0800  -14.1460   11.6610 C.ar  120  TYR120     -0.0201
    134  CD1      -36.2350  -14.6860   12.9140 C.ar  120  TYR120     -0.0009
    135  CD2      -36.8780  -14.6300   10.6440 C.ar  120  TYR120     -0.0009
    136  CE1      -37.1330  -15.7030   13.1470 C.ar  120  TYR120      0.0417
    137  CE2      -37.8300  -15.6250   10.8830 C.ar  120  TYR120      0.0417
    138  CZ       -37.9280  -16.1620   12.1440 C.ar  120  TYR120      0.1957
    139  OH       -38.8230  -17.1480   12.4330 O.3   120  TYR120     -0.2866
    140  N        -32.0770  -13.5580    7.1500 N.3   123  GLY123     -0.1210
    141  CA       -33.3290  -13.8290    6.4470 C.3   123  GLY123      0.1956
    142  C        -34.1010  -14.9570    7.1300 C.2   123  GLY123      0.2611
    143  O        -33.6150  -15.5350    8.0930 O.2   123  GLY123     -0.2717
    144  N        -35.2690  -15.2920    6.5880 N.am  124  ILE124     -0.1979
    145  CA       -36.1180  -16.3280    7.1650 C.3   124  ILE124      0.1595
    146  C        -35.2940  -17.6100    7.1740 C.2   124  ILE124      0.2287
    147  O        -34.6710  -17.9520    6.1880 O.2   124  ILE124     -0.2864
    148  CB       -37.4220  -16.5430    6.3720 C.3   124  ILE124      0.0276
    149  CG1      -38.2940  -15.2950    6.4400 C.3   124  ILE124      0.0022
    150  CG2      -38.2170  -17.7540    6.9140 C.3   124  ILE124      0.0022
    151  CD1      -39.3350  -15.2580    5.3320 C.3   124  ILE124      0.0001
    152  N        -43.0830  -14.3130   21.8600 N.3   185  GLU185     -0.1245
    153  CA       -42.9380  -13.5920   20.5900 C.3   185  GLU185      0.1567
    154  C        -44.2250  -12.8180   20.3340 C.2   185  GLU185      0.2260
    155  O        -45.2930  -13.1510   20.8730 O.2   185  GLU185     -0.2867
    156  CB       -42.6620  -14.5990   19.4440 C.3   185  GLU185      0.0388
    157  CG       -41.4780  -15.4750   19.8090 C.3   185  GLU185      0.1160
    158  CD       -41.1820  -16.5910   18.8180 C.2   185  GLU185      0.3649
    159  OE1      -41.6950  -16.5390   17.6930 O.co2 185  GLU185     -0.2457
    160  OE2      -40.3850  -17.4750   19.2030 O.co2 185  GLU185     -0.2457
@<TRIPOS>BOND
     1    45    44    1
     2    45    46    1
     3    44    43    1
     4    46    47    2
     5    48    47    1
     6    47    49    1
     7    36    38   ar
     8    36    34   ar
     9    43    40    1
    10    83    81    1
    11    38    37   ar
    12    82    81    1
    13    82    84    1
    14    40    39    1
    15    40    41    1
    16    34    33   ar
    17    81    78    1
    18    42    41    2
    19    37    35   ar
    20    41    50   am
    21    33    35   ar
    22    33    32    1
    23    25    26    1
    24    25    22    1
    25    78    79    1
    26    78    77    1
    27   151   149    1
    28    24    23    2
    29    26    27    1
    30    79    80    2
    31    32    29    1
    32    50    51    1
    33    59    57   ar
    34    59    58   ar
    35    77    67   am
    36    23    22    1
    37    23    28   am
    38    57    55   ar
    39    29    28    1
    40    29    30    1
    41   147   146    2
    42    63    62    2
    43   148   149    1
    44   148   150    1
    45   148   145    1
    46    22    21    1
    47   141   142    1
    48   141   140    1
    49    58    56   ar
    50   144   142   am
    51   144   145    1
    52    51    52    1
    53    51    54    1
    54    27    21    1
    55    60    52   am
    56    60    61    1
    57   142   143    2
    58    55    56   ar
    59    55    54    1
    60    64    61    1
    61   145   146    1
    62    62    61    1
    63    62    65   am
    64    30    31    2
    65    67    66    1
    66    67    68    2
    67    21    17   am
    68    52    53    2
    69    73    71   ar
    70    73    75   ar
    71    71    70   ar
    72    66    65    1
    73    66    69    1
    74    20    19    1
    75    17    18    2
    76    17    16    1
    77    76    75    1
    78    75    74   ar
    79    70    69    1
    80    70    72   ar
    81   131   130    2
    82    19    16    1
    83    16    15    1
    84    74    72   ar
    85   130   129    1
    86   135   137   ar
    87   135   133   ar
    88   137   138   ar
    89    15    13   am
    90   129   132    1
    91   129   128    1
    92   132   133    1
    93   133   134   ar
    94    14    13    2
    95    93    91   ar
    96    93    95   ar
    97    10     9   ar
    98    10     8   ar
    99    13    12    1
   100    96    95    1
   101   138   139    1
   102   138   136   ar
   103    91    90   ar
   104    95    94   ar
   105     9     7   ar
   106     8     6   ar
   107   134   136   ar
   108    85    86    1
   109    12    11    1
   110    90    89    1
   111    90    92   ar
   112    94    92   ar
   113     7     6   ar
   114    89    86    1
   115     6     5    1
   116    11     3   am
   117   125   124    2
   118    86    87    1
   119    88    87    2
   120     3     4    2
   121     3     2    1
   122    87    97   am
   123     5     2    1
   124   124   123    1
   125   107   105   ar
   126   107   106   ar
   127   105   103   ar
   128     2     1    1
   129   116   115    2
   130   123   126    1
   131   123   122    1
   132   121   120    1
   133   106   104   ar
   134    97    98    1
   135   103   102   ar
   136   119   120    1
   137   119   118    1
   138   126   127    1
   139   115   122   am
   140   115   114    1
   141   104   102   ar
   142   102   101    1
   143    98   101    1
   144    98    99    1
   145   159   158   ar
   146   118   117    1
   147   114   117    1
   148   114   113    1
   149    99   100    2
   150    99   108   am
   151   158   160   ar
   152   158   157    1
   153   108   109    1
   154   156   157    1
   155   156   153    1
   156   112   109    1
   157   109   110    1
   158   154   153    1
   159   154   155    2
   160   153   152    1
   161   110   111    2
