@<TRIPOS>MOLECULE
tmp/4butA00.pdb
 160 161 0 0 0
SMALL
GASTEIGER

@<TRIPOS>ATOM
      1  N        -36.2340   -7.3000   17.5120 N.3    80  HIS80      -0.1226
      2  CA       -36.6350   -7.5070   16.1250 C.3    80  HIS80       0.1752
      3  C        -35.4130   -7.7330   15.2650 C.2    80  HIS80       0.2597
      4  O        -34.4960   -6.9050   15.2670 O.2    80  HIS80      -0.2718
      5  CB       -37.4190   -6.3060   15.5710 C.3    80  HIS80       0.0759
      6  CG       -38.0020   -6.5600   14.2060 C.ar   80  HIS80       0.0818
      7  ND1      -39.1370   -7.2900   14.0350 N.ar   80  HIS80      -0.2268
      8  CD2      -37.5580   -6.2080   12.9150 C.ar   80  HIS80       0.1154
      9  CE1      -39.4220   -7.3680   12.7010 C.ar   80  HIS80       0.1986
     10  NE2      -38.4700   -6.7020   12.0200 N.ar   80  HIS80      -0.2212
     11  N        -35.4090   -8.8330   14.5110 N.am   81  GLY81      -0.1942
     12  CA       -34.3560   -9.1370   13.5250 C.3    81  GLY81       0.2014
     13  C        -34.9840   -9.1650   12.1520 C.2    81  GLY81       0.2640
     14  O        -36.1320   -9.6510   11.9850 O.2    81  GLY81      -0.2714
     15  N        -34.2770   -8.6040   11.1760 N.am   82  SER82      -0.1936
     16  CA       -34.8060   -8.4900    9.8150 C.3    82  SER82       0.2040
     17  C        -33.7120   -8.1810    8.7950 C.2    82  SER82       0.2485
     18  O        -32.8080   -7.3870    9.0760 O.2    82  SER82      -0.2729
     19  CB       -35.8620   -7.3820    9.7470 C.3    82  SER82       0.2129
     20  OG       -36.3090   -7.1380    8.4160 O.3    82  SER82      -0.2179
     21  N        -33.8160   -8.7710    7.5960 N.am   83  PRO83      -0.2715
     22  CA       -32.9460   -8.2770    6.5310 C.3    83  PRO83       0.1536
     23  C        -33.1730   -6.7910    6.2140 C.2    83  PRO83       0.2598
     24  O        -32.3080   -6.1870    5.6120 O.2    83  PRO83      -0.2715
     25  CB       -33.3130   -9.1450    5.3120 C.3    83  PRO83       0.0310
     26  CG       -34.2300  -10.1960    5.8120 C.3    83  PRO83       0.0237
     27  CD       -34.8220   -9.7270    7.0990 C.3    83  PRO83       0.0939
     28  N        -34.2840   -6.2000    6.6340 N.am   84  PHE84      -0.1974
     29  CA       -34.5810   -4.7720    6.3490 C.3    84  PHE84       0.1639
     30  C        -34.1980   -3.7640    7.4680 C.2    84  PHE84       0.2290
     31  O        -34.6880   -2.6270    7.4900 O.2    84  PHE84      -0.2864
     32  CB       -36.0770   -4.6100    6.0530 C.3    84  PHE84       0.0560
     33  CG       -36.5400   -5.3580    4.8530 C.ar   84  PHE84      -0.0200
     34  CD1      -36.4180   -4.7930    3.5740 C.ar   84  PHE84      -0.0042
     35  CD2      -37.1330   -6.6090    4.9810 C.ar   84  PHE84      -0.0042
     36  CE1      -36.8480   -5.4900    2.4430 C.ar   84  PHE84      -0.0003
     37  CE2      -37.5700   -7.3040    3.8650 C.ar   84  PHE84      -0.0003
     38  CZ       -37.4290   -6.7500    2.5950 C.ar   84  PHE84      -0.0000
     39  N        -44.1270   -3.6710    4.4820 N.3    96  ARG96      -0.1231
     40  CA       -43.0050   -4.4280    3.8810 C.3    96  ARG96       0.1694
     41  C        -42.0550   -5.1190    4.8610 C.2    96  ARG96       0.2592
     42  O        -41.1680   -5.8780    4.4720 O.2    96  ARG96      -0.2718
     43  CB       -42.1620   -3.4690    3.0370 C.3    96  ARG96       0.0321
     44  CG       -42.9580   -2.8110    1.9180 C.3    96  ARG96       0.0489
     45  CD       -42.1400   -1.7840    1.1540 C.3    96  ARG96       0.2205
     46  NE       -41.5070   -0.7610    1.9990 N.pl3  96  ARG96      -0.0865
     47  CZ       -41.9710    0.4800    2.2210 C.cat  96  ARG96       0.5346
     48  NH1      -43.1280    0.9070    1.6940 N.pl3  96  ARG96       0.1354
     49  NH2      -41.2710    1.3100    3.0010 N.pl3  96  ARG96       0.1354
     50  N        -42.1970   -4.7920    6.1330 N.am   97  HIS97      -0.1962
     51  CA       -41.4310   -5.4370    7.1940 C.3    97  HIS97       0.1787
     52  C        -42.2100   -6.5750    7.8500 C.2    97  HIS97       0.2620
     53  O        -41.7300   -7.1750    8.8460 O.2    97  HIS97      -0.2715
     54  CB       -41.0090   -4.3400    8.1750 C.3    97  HIS97       0.0785
     55  CG       -40.2970   -3.2150    7.4790 C.ar   97  HIS97       0.0821
     56  ND1      -40.6840   -1.9330    7.5690 N.ar   97  HIS97      -0.2267
     57  CD2      -39.2610   -3.2450    6.5660 C.ar   97  HIS97       0.1154
     58  CE1      -39.8870   -1.1720    6.7930 C.ar   97  HIS97       0.1986
     59  NE2      -39.0230   -1.9740    6.1800 N.ar   97  HIS97      -0.2212
     60  N        -43.3760   -6.9150    7.2600 N.am   98  ALA98      -0.1963
     61  CA       -44.3140   -7.9110    7.8330 C.3    98  ALA98       0.1728
     62  C        -43.8540   -9.3040    7.4570 C.2    98  ALA98       0.2616
     63  O        -43.3100   -9.5060    6.3800 O.2    98  ALA98      -0.2715
     64  CB       -45.7570   -7.6890    7.3350 C.3    98  ALA98       0.0334
     65  N        -44.0770  -10.2550    8.3380 N.am   99  TYR99      -0.1960
     66  CA       -43.8040  -11.6550    8.0340 C.3    99  TYR99       0.1771
     67  C        -45.1080  -12.2530    7.4860 C.2    99  TYR99       0.2619
     68  O        -46.0320  -12.5710    8.2450 O.2    99  TYR99      -0.2715
     69  CB       -43.3300  -12.3360    9.3070 C.3    99  TYR99       0.0574
     70  CG       -42.9690  -13.7950    9.1950 C.ar   99  TYR99      -0.0198
     71  CD1      -42.8580  -14.4530    7.9470 C.ar   99  TYR99      -0.0009
     72  CD2      -42.7560  -14.5440   10.3380 C.ar   99  TYR99      -0.0009
     73  CE1      -42.5250  -15.7930    7.8930 C.ar   99  TYR99       0.0417
     74  CE2      -42.4140  -15.8600   10.2700 C.ar   99  TYR99       0.0417
     75  CZ       -42.3330  -16.4900    9.0610 C.ar   99  TYR99       0.1957
     76  OH       -42.0060  -17.8360    9.0410 O.3    99  TYR99      -0.2866
     77  N        -45.2120  -12.3380    6.1530 N.am  100  ILE100     -0.1977
     78  CA       -46.4720  -12.7340    5.5150 C.3   100  ILE100      0.1596
     79  C        -46.8520  -14.1280    5.9890 C.2   100  ILE100      0.2287
     80  O        -47.9950  -14.3750    6.3720 O.2   100  ILE100     -0.2864
     81  CB       -46.4130  -12.6990    3.9560 C.3   100  ILE100      0.0276
     82  CG1      -46.0670  -11.2900    3.4330 C.3   100  ILE100      0.0022
     83  CG2      -47.7080  -13.2350    3.3390 C.3   100  ILE100      0.0022
     84  CD1      -46.6630  -10.1310    4.1990 C.3   100  ILE100      0.0001
     85  N        -43.4470   -8.9900   13.6020 N.3   109  TYR109     -0.1227
     86  CA       -43.1960   -9.8990   14.7240 C.3   109  TYR109      0.1736
     87  C        -42.0270   -9.4020   15.5870 C.2   109  TYR109      0.2595
     88  O        -41.0330   -8.9420   15.0600 O.2   109  TYR109     -0.2718
     89  CB       -42.8550  -11.2820   14.1890 C.3   109  TYR109      0.0548
     90  CG       -44.0670  -12.0180   13.6830 C.ar  109  TYR109     -0.0200
     91  CD1      -44.7810  -11.5480   12.5740 C.ar  109  TYR109     -0.0009
     92  CD2      -44.5180  -13.1760   14.3180 C.ar  109  TYR109     -0.0009
     93  CE1      -45.9260  -12.2080   12.1230 C.ar  109  TYR109      0.0417
     94  CE2      -45.6510  -13.8470   13.8470 C.ar  109  TYR109      0.0417
     95  CZ       -46.3470  -13.3560   12.7640 C.ar  109  TYR109      0.1957
     96  OH       -47.5240  -13.9930   12.3520 O.3   109  TYR109     -0.2866
     97  N        -42.1740   -9.5610   16.8930 N.am  110  PHE110     -0.1962
     98  CA       -41.1710   -9.2070   17.9100 C.3   110  PHE110      0.1771
     99  C        -41.0050  -10.3520   18.8970 C.2   110  PHE110      0.2619
    100  O        -41.9550  -11.0970   19.1540 O.2   110  PHE110     -0.2715
    101  CB       -41.6050   -7.9520   18.6440 C.3   110  PHE110      0.0574
    102  CG       -41.7160   -6.7420   17.7580 C.ar  110  PHE110     -0.0200
    103  CD1      -42.8600   -6.4900   17.0810 C.ar  110  PHE110     -0.0042
    104  CD2      -40.6330   -5.8890   17.5740 C.ar  110  PHE110     -0.0042
    105  CE1      -42.9430   -5.4060   16.2010 C.ar  110  PHE110     -0.0003
    106  CE2      -40.7100   -4.7890   16.7340 C.ar  110  PHE110     -0.0003
    107  CZ       -41.8630   -4.5320   16.0480 C.ar  110  PHE110     -0.0000
    108  N        -39.8350  -10.4500   19.5030 N.am  111  ALA111     -0.1977
    109  CA       -39.5280  -11.5050   20.4930 C.3   111  ALA111      0.1597
    110  C        -38.9670  -10.9690   21.7970 C.2   111  ALA111      0.2287
    111  O        -38.1340  -10.0550   21.7720 O.2   111  ALA111     -0.2864
    112  CB       -38.5060  -12.4830   19.9050 C.3   111  ALA111      0.0319
    113  N        -34.2980  -15.5590   19.3740 N.3   116  LYS116     -0.1231
    114  CA       -35.3950  -15.8020   18.4280 C.3   116  LYS116      0.1693
    115  C        -35.2770  -14.7710   17.2770 C.2   116  LYS116      0.2592
    116  O        -35.2630  -15.1420   16.1220 O.2   116  LYS116     -0.2718
    117  CB       -36.7580  -15.7330   19.1330 C.3   116  LYS116      0.0285
    118  CG       -37.9980  -15.6780   18.2480 C.3   116  LYS116      0.0035
    119  CD       -38.0460  -16.7590   17.1610 C.3   116  LYS116      0.0206
    120  CE       -38.2020  -18.1200   17.6930 C.3   116  LYS116      0.1093
    121  NZ       -38.5060  -19.0800   16.5490 N.3   116  LYS116     -0.1314
    122  N        -35.1750  -13.4760   17.5880 N.am  117  SER117     -0.1952
    123  CA       -34.9880  -12.4640   16.5390 C.3   117  SER117      0.1924
    124  C        -33.7030  -12.6840   15.7130 C.2   117  SER117      0.2314
    125  O        -33.6540  -12.4040   14.5060 O.2   117  SER117     -0.2863
    126  CB       -35.0300  -11.0650   17.1540 C.3   117  SER117      0.2116
    127  OG       -36.3360  -10.7160   17.5920 O.3   117  SER117     -0.2180
    128  N        -33.7250  -14.3660   12.2910 N.3   120  TYR120     -0.1241
    129  CA       -34.2430  -13.6480   11.1400 C.3   120  TYR120      0.1605
    130  C        -33.3240  -12.6000   10.5550 C.2   120  TYR120      0.2264
    131  O        -33.7010  -11.9630    9.5650 O.2   120  TYR120     -0.2867
    132  CB       -35.5970  -12.9890   11.4900 C.3   120  TYR120      0.0534
    133  CG       -36.6410  -14.0190   11.7670 C.ar  120  TYR120     -0.0201
    134  CD1      -36.8000  -14.5380   13.0420 C.ar  120  TYR120     -0.0009
    135  CD2      -37.4400  -14.5210   10.7460 C.ar  120  TYR120     -0.0009
    136  CE1      -37.7380  -15.5100   13.3000 C.ar  120  TYR120      0.0417
    137  CE2      -38.3920  -15.5030   11.0140 C.ar  120  TYR120      0.0417
    138  CZ       -38.5360  -15.9830   12.2880 C.ar  120  TYR120      0.1957
    139  OH       -39.4650  -16.9740   12.5620 O.3   120  TYR120     -0.2866
    140  N        -32.8310  -13.4540    7.1080 N.3   123  GLY123     -0.1210
    141  CA       -34.0660  -13.7700    6.4170 C.3   123  GLY123      0.1956
    142  C        -34.8110  -14.8780    7.1590 C.2   123  GLY123      0.2611
    143  O        -34.3360  -15.3750    8.1620 O.2   123  GLY123     -0.2717
    144  N        -35.9700  -15.2490    6.6440 N.am  124  ILE124     -0.1979
    145  CA       -36.7950  -16.3070    7.2400 C.3   124  ILE124      0.1595
    146  C        -35.9850  -17.5920    7.2910 C.2   124  ILE124      0.2287
    147  O        -35.3700  -17.9740    6.3120 O.2   124  ILE124     -0.2864
    148  CB       -38.1100  -16.5200    6.4320 C.3   124  ILE124      0.0276
    149  CG1      -38.9930  -15.2600    6.4730 C.3   124  ILE124      0.0022
    150  CG2      -38.8680  -17.7380    6.9780 C.3   124  ILE124      0.0022
    151  CD1      -39.9310  -15.1100    5.2900 C.3   124  ILE124      0.0001
    152  N        -43.6400  -14.2530   22.0470 N.3   185  GLU185     -0.1245
    153  CA       -43.4750  -13.5080   20.8160 C.3   185  GLU185      0.1567
    154  C        -44.7750  -12.7260   20.5760 C.2   185  GLU185      0.2260
    155  O        -45.8430  -13.0870   21.1070 O.2   185  GLU185     -0.2867
    156  CB       -43.1970  -14.4910   19.6770 C.3   185  GLU185      0.0388
    157  CG       -41.9640  -15.3390   19.9480 C.3   185  GLU185      0.1160
    158  CD       -41.8030  -16.4930   18.9640 C.2   185  GLU185      0.3649
    159  OE1      -42.3920  -16.4600   17.8690 O.co2 185  GLU185     -0.2457
    160  OE2      -41.0800  -17.4300   19.3210 O.co2 185  GLU185     -0.2457
@<TRIPOS>BOND
     1    45    44    1
     2    45    46    1
     3    48    47    1
     4    44    43    1
     5    46    47    2
     6    47    49    1
     7    36    38   ar
     8    36    34   ar
     9    38    37   ar
    10    43    40    1
    11    83    81    1
    12    82    81    1
    13    82    84    1
    14    34    33   ar
    15    37    35   ar
    16    40    39    1
    17    40    41    1
    18    81    78    1
    19    42    41    2
    20    33    35   ar
    21    33    32    1
    22    41    50   am
    23   151   149    1
    24    25    26    1
    25    25    22    1
    26    78    79    1
    27    78    77    1
    28    24    23    2
    29    26    27    1
    30    79    80    2
    31    32    29    1
    32    50    51    1
    33    77    67   am
    34    59    57   ar
    35    59    58   ar
    36    23    22    1
    37    23    28   am
    38   147   146    2
    39    29    28    1
    40    29    30    1
    41    63    62    2
    42   141   140    1
    43   141   142    1
    44   148   149    1
    45   148   150    1
    46   148   145    1
    47    22    21    1
    48    57    55   ar
    49   144   142   am
    50   144   145    1
    51    58    56   ar
    52    27    21    1
    53   142   143    2
    54    51    52    1
    55    51    54    1
    56   145   146    1
    57    60    61    1
    58    60    52   am
    59    64    61    1
    60    62    61    1
    61    62    65   am
    62    30    31    2
    63    55    56   ar
    64    55    54    1
    65    67    66    1
    66    67    68    2
    67    21    17   am
    68    52    53    2
    69    73    71   ar
    70    73    75   ar
    71    71    70   ar
    72    66    65    1
    73    66    69    1
    74    20    19    1
    75    17    18    2
    76    17    16    1
    77    76    75    1
    78    75    74   ar
    79    70    69    1
    80    70    72   ar
    81   131   130    2
    82    19    16    1
    83    16    15    1
    84    74    72   ar
    85   130   129    1
    86   135   137   ar
    87   135   133   ar
    88   137   138   ar
    89   129   132    1
    90   129   128    1
    91    15    13   am
    92   132   133    1
    93   133   134   ar
    94    14    13    2
    95    10     9   ar
    96    10     8   ar
    97    93    91   ar
    98    93    95   ar
    99    13    12    1
   100   138   139    1
   101   138   136   ar
   102    96    95    1
   103    91    90   ar
   104     9     7   ar
   105    95    94   ar
   106     8     6   ar
   107   134   136   ar
   108    12    11    1
   109    85    86    1
   110    90    89    1
   111    90    92   ar
   112    94    92   ar
   113     7     6   ar
   114    89    86    1
   115     6     5    1
   116   125   124    2
   117    11     3   am
   118    86    87    1
   119    88    87    2
   120     3     4    2
   121     3     2    1
   122     5     2    1
   123    87    97   am
   124   124   123    1
   125   107   105   ar
   126   107   106   ar
   127   116   115    2
   128     2     1    1
   129   105   103   ar
   130   123   126    1
   131   123   122    1
   132   121   120    1
   133   106   104   ar
   134    97    98    1
   135   103   102   ar
   136   126   127    1
   137   119   120    1
   138   119   118    1
   139   115   122   am
   140   115   114    1
   141   104   102   ar
   142   102   101    1
   143   159   158   ar
   144    98   101    1
   145    98    99    1
   146   118   117    1
   147   114   117    1
   148   114   113    1
   149    99   100    2
   150    99   108   am
   151   158   160   ar
   152   158   157    1
   153   108   109    1
   154   156   157    1
   155   156   153    1
   156   112   109    1
   157   109   110    1
   158   154   153    1
   159   154   155    2
   160   153   152    1
   161   111   110    2
