@<TRIPOS>MOLECULE
tmp/4buuB00.pdb
 161 161 0 0 0
SMALL
GASTEIGER

@<TRIPOS>ATOM
      1  N        -50.6680  -39.6150   11.9650 N.3    80  HIS80      -0.1226
      2  CA       -50.8740  -39.9940   13.3630 C.3    80  HIS80       0.1752
      3  C        -51.2150  -38.7600   14.1870 C.2    80  HIS80       0.2597
      4  O        -50.4780  -37.7750   14.1810 O.2    80  HIS80      -0.2718
      5  CB       -49.6420  -40.6780   13.9560 C.3    80  HIS80       0.0759
      6  CG       -49.8620  -41.2420   15.3300 C.ar   80  HIS80       0.0818
      7  ND1      -50.4660  -42.4650   15.5520 N.ar   80  HIS80      -0.2268
      8  CD2      -49.5720  -40.7450   16.5580 C.ar   80  HIS80       0.1154
      9  CE1      -50.5060  -42.7090   16.8510 C.ar   80  HIS80       0.1986
     10  NE2      -49.9880  -41.6730   17.4840 N.ar   80  HIS80      -0.2212
     11  N        -52.3350  -38.8200   14.9030 N.am   81  GLY81      -0.1942
     12  CA       -52.7440  -37.7780   15.8100 C.3    81  GLY81       0.2014
     13  C        -52.7400  -38.3420   17.2110 C.2    81  GLY81       0.2640
     14  O        -53.1220  -39.4850   17.4170 O.2    81  GLY81      -0.2714
     15  N        -52.3080  -37.5450   18.1810 N.am   82  SER82      -0.1936
     16  CA       -52.1620  -38.0420   19.5450 C.3    82  SER82       0.2040
     17  C        -51.8830  -36.9190   20.5340 C.2    82  SER82       0.2485
     18  O        -51.1340  -36.0110   20.2140 O.2    82  SER82      -0.2729
     19  CB       -50.9990  -39.0330   19.5690 C.3    82  SER82       0.2129
     20  OG       -50.6260  -39.3650   20.9000 O.3    82  SER82      -0.2179
     21  N        -52.4530  -36.9910   21.7480 N.am   83  PRO83      -0.2715
     22  CA       -52.0040  -36.0560   22.7970 C.3    83  PRO83       0.1536
     23  C        -50.5000  -36.1500   23.1030 C.2    83  PRO83       0.2598
     24  O        -49.9340  -35.2020   23.6700 O.2    83  PRO83      -0.2715
     25  CB       -52.7900  -36.5110   24.0400 C.3    83  PRO83       0.0310
     26  CG       -53.9050  -37.3320   23.5270 C.3    83  PRO83       0.0237
     27  CD       -53.4250  -37.9740   22.2570 C.3    83  PRO83       0.0939
     28  N        -49.8610  -37.2570   22.7480 N.am   84  PHE84      -0.1974
     29  CA       -48.4390  -37.4750   23.0690 C.3    84  PHE84       0.1639
     30  C        -47.4580  -37.0930   21.9600 C.2    84  PHE84       0.2290
     31  O        -46.3070  -37.5150   21.9970 O.2    84  PHE84      -0.2864
     32  CB       -48.2440  -38.9390   23.4650 C.3    84  PHE84       0.0560
     33  CG       -49.1100  -39.3590   24.6200 C.ar   84  PHE84      -0.0200
     34  CD1      -49.0710  -38.6460   25.8220 C.ar   84  PHE84      -0.0042
     35  CD2      -49.9800  -40.4320   24.5120 C.ar   84  PHE84      -0.0042
     36  CE1      -49.8680  -39.0130   26.8950 C.ar   84  PHE84      -0.0003
     37  CE2      -50.7780  -40.8060   25.5880 C.ar   84  PHE84      -0.0003
     38  CZ       -50.7220  -40.0990   26.7780 C.ar   84  PHE84      -0.0000
     39  N        -46.4880  -47.0310   25.0810 N.3    96  ARG96      -0.1231
     40  CA       -47.2520  -45.9410   25.7130 C.3    96  ARG96       0.1694
     41  C        -48.1770  -45.2140   24.7160 C.2    96  ARG96       0.2592
     42  O        -49.1580  -44.5840   25.1110 O.2    96  ARG96      -0.2718
     43  CB       -46.3170  -44.9130   26.3640 C.3    96  ARG96       0.0321
     44  CG       -45.2860  -45.4910   27.3330 C.3    96  ARG96       0.0489
     45  CD       -44.6190  -44.4140   28.1810 C.3    96  ARG96       0.2205
     46  NE       -44.6120  -43.0890   27.5510 N.pl3  96  ARG96      -0.0865
     47  CZ       -43.7240  -42.6640   26.6500 C.cat  96  ARG96       0.5346
     48  NH1      -42.7390  -43.4580   26.2330 N.pl3  96  ARG96       0.1354
     49  NH2      -43.8250  -41.4300   26.1560 N.pl3  96  ARG96       0.1354
     50  N        -47.8630  -45.3230   23.4260 N.am   97  HIS97      -0.1962
     51  CA       -48.5730  -44.5780   22.3700 C.3    97  HIS97       0.1787
     52  C        -49.6100  -45.4160   21.6500 C.2    97  HIS97       0.2620
     53  O        -50.2790  -44.9330   20.7280 O.2    97  HIS97      -0.2715
     54  CB       -47.5580  -43.9950   21.4090 C.3    97  HIS97       0.0785
     55  CG       -46.5140  -43.2010   22.1150 C.ar   97  HIS97       0.0821
     56  ND1      -45.1710  -43.4370   21.9640 N.ar   97  HIS97      -0.2267
     57  CD2      -46.6220  -42.2370   23.0550 C.ar   97  HIS97       0.1154
     58  CE1      -44.4890  -42.6170   22.7410 C.ar   97  HIS97       0.1986
     59  NE2      -45.3470  -41.8840   23.4170 N.ar   97  HIS97      -0.2212
     60  N        -49.7750  -46.6490   22.1240 N.am   98  ALA98      -0.1963
     61  CA       -50.7790  -47.5760   21.6070 C.3    98  ALA98       0.1728
     62  C        -52.2060  -47.2220   22.0310 C.2    98  ALA98       0.2616
     63  O        -52.4420  -46.6120   23.0780 O.2    98  ALA98      -0.2715
     64  CB       -50.4480  -48.9940   22.0500 C.3    98  ALA98       0.0334
     65  N        -53.1540  -47.6130   21.1880 N.am   99  TYR99      -0.1974
     66  CA       -54.5760  -47.4430   21.4340 C.3    99  TYR99       0.1639
     67  C        -55.0600  -48.7850   21.9170 C.2    99  TYR99       0.2290
     68  O        -55.3020  -49.6950   21.1150 O.2    99  TYR99      -0.2864
     69  CB       -55.2780  -46.9990   20.1310 C.3    99  TYR99       0.0560
     70  CG       -56.7700  -46.7690   20.1990 C.ar   99  TYR99      -0.0198
     71  CD1      -57.4560  -46.7190   21.4250 C.ar   99  TYR99      -0.0009
     72  CD2      -57.5120  -46.5610   19.0320 C.ar   99  TYR99      -0.0009
     73  CE1      -58.8180  -46.4940   21.4720 C.ar   99  TYR99       0.0417
     74  CE2      -58.8650  -46.3170   19.0810 C.ar   99  TYR99       0.0417
     75  CZ       -59.5200  -46.3130   20.3030 C.ar   99  TYR99       0.1957
     76  OH       -60.8640  -46.0900   20.3630 O.3    99  TYR99      -0.2866
     77  N        -51.8810  -46.8640   15.9240 N.3   109  TYR109     -0.1227
     78  CA       -52.7840  -46.6970   14.7900 C.3   109  TYR109      0.1736
     79  C        -52.3810  -45.5100   13.9160 C.2   109  TYR109      0.2595
     80  O        -52.0370  -44.4490   14.4410 O.2   109  TYR109     -0.2718
     81  CB       -54.2120  -46.4540   15.2840 C.3   109  TYR109      0.0548
     82  CG       -54.9210  -47.7030   15.7690 C.ar  109  TYR109     -0.0200
     83  CD1      -54.4000  -48.4670   16.8070 C.ar  109  TYR109     -0.0009
     84  CD2      -56.0800  -48.1470   15.1430 C.ar  109  TYR109     -0.0009
     85  CE1      -55.0300  -49.6290   17.2380 C.ar  109  TYR109      0.0417
     86  CE2      -56.7130  -49.3130   15.5660 C.ar  109  TYR109      0.0417
     87  CZ       -56.1820  -50.0450   16.6060 C.ar  109  TYR109      0.1957
     88  OH       -56.7760  -51.2110   17.0330 O.3   109  TYR109     -0.2866
     89  N        -52.5170  -45.6810   12.5940 N.am  110  PHE110     -0.1962
     90  CA       -52.1860  -44.6630   11.6090 C.3   110  PHE110      0.1771
     91  C        -53.3010  -44.5990   10.5760 C.2   110  PHE110      0.2619
     92  O        -54.0050  -45.6000   10.3410 O.2   110  PHE110     -0.2715
     93  CB       -50.8630  -44.9760   10.9130 C.3   110  PHE110      0.0574
     94  CG       -49.6850  -44.9830   11.8380 C.ar  110  PHE110     -0.0200
     95  CD1      -49.3420  -46.1190   12.5510 C.ar  110  PHE110     -0.0042
     96  CD2      -48.9380  -43.8300   12.0110 C.ar  110  PHE110     -0.0042
     97  CE1      -48.2800  -46.1090   13.4260 C.ar  110  PHE110     -0.0003
     98  CE2      -47.8760  -43.8120   12.8820 C.ar  110  PHE110     -0.0003
     99  CZ       -47.5380  -44.9590   13.5870 C.ar  110  PHE110     -0.0000
    100  N        -53.4830  -43.4270    9.9730 N.am  111  ALA111     -0.1977
    101  CA       -54.5510  -43.2150    9.0100 C.3   111  ALA111      0.1597
    102  C        -54.0750  -42.6800    7.6760 C.2   111  ALA111      0.2287
    103  O        -53.1640  -41.8450    7.6160 O.2   111  ALA111     -0.2864
    104  CB       -55.5580  -42.2480    9.5720 C.3   111  ALA111      0.0319
    105  N        -59.0630  -38.3370    9.9110 N.3   116  LYS116     -0.1231
    106  CA       -59.2340  -39.4230   10.8960 C.3   116  LYS116      0.1693
    107  C        -58.2490  -39.2040   12.0570 C.2   116  LYS116      0.2592
    108  O        -58.6440  -39.2110   13.2250 O.2   116  LYS116     -0.2718
    109  CB       -59.0380  -40.7900   10.2300 C.3   116  LYS116      0.0285
    110  CG       -58.8960  -41.9750   11.1740 C.3   116  LYS116      0.0035
    111  CD       -60.0110  -42.1390   12.1800 C.3   116  LYS116      0.0206
    112  CE       -61.3920  -42.3510   11.5780 C.3   116  LYS116      0.1093
    113  NZ       -62.3760  -42.7320   12.6460 N.3   116  LYS116     -0.1314
    114  N        -56.9790  -38.9710   11.7290 N.am  117  SER117     -0.1952
    115  CA       -55.9680  -38.6670   12.7570 C.3   117  SER117      0.1924
    116  C        -56.3000  -37.3950   13.5510 C.2   117  SER117      0.2314
    117  O        -56.0430  -37.3170   14.7700 O.2   117  SER117     -0.2863
    118  CB       -54.5740  -38.5790   12.1320 C.3   117  SER117      0.2116
    119  OG       -54.1080  -39.8650   11.7470 O.3   117  SER117     -0.2180
    120  N        -58.0360  -37.5550   16.9760 N.3   120  TYR120     -0.1241
    121  CA       -57.2810  -38.0540   18.1300 C.3   120  TYR120      0.1605
    122  C        -56.3060  -37.0300   18.7070 C.2   120  TYR120      0.2264
    123  O        -55.6230  -37.3140   19.6870 O.2   120  TYR120     -0.2867
    124  CB       -56.5560  -39.3420   17.7440 C.3   120  TYR120      0.0534
    125  CG       -57.5100  -40.4870   17.4890 C.ar  120  TYR120     -0.0201
    126  CD1      -57.9360  -41.3090   18.5270 C.ar  120  TYR120     -0.0009
    127  CD2      -58.0340  -40.7130   16.2080 C.ar  120  TYR120     -0.0009
    128  CE1      -58.8280  -42.3360   18.3000 C.ar  120  TYR120      0.0417
    129  CE2      -58.9330  -41.7300   15.9860 C.ar  120  TYR120      0.0417
    130  CZ       -59.3330  -42.5330   17.0250 C.ar  120  TYR120      0.1957
    131  OH       -60.2320  -43.5510   16.7750 O.3   120  TYR120     -0.2866
    132  N        -57.2250  -36.4390   22.1240 N.3   123  GLY123     -0.1210
    133  CA       -57.4530  -37.7190   22.7870 C.3   123  GLY123      0.1956
    134  C        -58.4990  -38.5460   22.0790 C.2   123  GLY123      0.2611
    135  O        -59.0430  -38.1350   21.0620 O.2   123  GLY123     -0.2717
    136  N        -58.7450  -39.7370   22.6080 N.am  124  ILE124     -0.1979
    137  CA       -59.7470  -40.6330   22.0580 C.3   124  ILE124      0.1595
    138  C        -61.1230  -39.9460   22.0620 C.2   124  ILE124      0.2287
    139  O        -61.5560  -39.3770   23.0810 O.2   124  ILE124     -0.2864
    140  CB       -59.8020  -41.9410   22.8670 C.3   124  ILE124      0.0276
    141  CG1      -58.4900  -42.7080   22.7250 C.3   124  ILE124      0.0022
    142  CG2      -60.9440  -42.8160   22.3690 C.3   124  ILE124      0.0022
    143  CD1      -58.2600  -43.6860   23.8540 C.3   124  ILE124      0.0001
    144  N        -52.9180  -52.3510   21.4850 N.3   163  LYS163     -0.1245
    145  CA       -52.0920  -51.3570   22.1350 C.3   163  LYS163      0.1561
    146  C        -50.7630  -51.9210   22.6070 C.2   163  LYS163      0.2260
    147  O        -49.7320  -51.2490   22.6680 O.2   163  LYS163     -0.2867
    148  CB       -52.8100  -50.7350   23.3490 C.3   163  LYS163      0.0271
    149  CG       -52.6330  -49.2290   23.4960 C.3   163  LYS163      0.0035
    150  CD       -51.3210  -48.8430   24.1860 C.3   163  LYS163      0.0206
    151  CE       -51.3650  -47.3990   24.6560 C.3   163  LYS163      0.1093
    152  NZ       -52.6200  -47.1310   25.4450 N.3   163  LYS163     -0.1314
    153  N        -56.9690  -47.6440    7.6310 N.3   187  GLU187     -0.1245
    154  CA       -56.2750  -47.3900    8.8850 C.3   187  GLU187      0.1567
    155  C        -55.3380  -48.5610    9.0670 C.2   187  GLU187      0.2260
    156  O        -55.6330  -49.6690    8.6110 O.2   187  GLU187     -0.2867
    157  CB       -57.2980  -47.2440   10.0140 C.3   187  GLU187      0.0388
    158  CG       -58.2530  -46.1000    9.6820 C.3   187  GLU187      0.1160
    159  CD       -59.5020  -46.0020   10.5270 C.2   187  GLU187      0.3649
    160  OE1      -59.4990  -46.5440   11.6530 O.co2 187  GLU187     -0.2457
    161  OE2      -60.4860  -45.3680   10.0560 O.co2 187  GLU187     -0.2457
@<TRIPOS>BOND
     1   103   102    2
     2   153   154    1
     3   102   101    1
     4   156   155    2
     5   154   155    1
     6   154   157    1
     7   101   104    1
     8   101   100    1
     9   158   157    1
    10   158   159    1
    11   105   106    1
    12   100    91   am
    13   161   159   ar
    14   109   106    1
    15   109   110    1
    16    92    91    2
    17   159   160   ar
    18    91    90    1
    19   106   107    1
    20    93    90    1
    21    93    94    1
    22   110   111    1
    23   112   111    1
    24   112   113    1
    25    90    89    1
    26   114   107   am
    27   114   115    1
    28   119   118    1
    29    94    96   ar
    30    94    95   ar
    31     1     2    1
    32    96    98   ar
    33   107   108    2
    34   118   115    1
    35    95    97   ar
    36    89    79   am
    37   115   116    1
    38    98    99   ar
    39     2     5    1
    40     2     3    1
    41    97    99   ar
    42   116   117    2
    43    79    80    2
    44    79    78    1
    45     5     6    1
    46     4     3    2
    47     3    11   am
    48    78    81    1
    49    78    77    1
    50    11    12    1
    51    84    86   ar
    52    84    82   ar
    53    81    82    1
    54     6     7   ar
    55     6     8   ar
    56     7     9   ar
    57    86    87   ar
    58    82    83   ar
    59    12    13    1
    60   129   127   ar
    61   129   130   ar
    62   127   125   ar
    63     8    10   ar
    64    87    88    1
    65    87    85   ar
    66   131   130    1
    67    83    85   ar
    68     9    10   ar
    69   120   121    1
    70   130   128   ar
    71    13    14    2
    72    13    15   am
    73   125   124    1
    74   125   126   ar
    75   124   121    1
    76   121   122    1
    77    15    16    1
    78   128   126   ar
    79   122   123    2
    80    72    74   ar
    81    72    70   ar
    82    74    75   ar
    83    16    19    1
    84    16    17    1
    85    19    20    1
    86    69    70    1
    87    69    66    1
    88    70    71   ar
    89    18    17    2
    90    75    76    1
    91    75    73   ar
    92    17    21   am
    93    53    52    2
    94   135   134    2
    95    68    67    2
    96    65    66    1
    97    65    62   am
    98    54    55    1
    99    54    51    1
   100    71    73   ar
   101    66    67    1
   102   144   145    1
   103    61    62    1
   104    61    64    1
   105    61    60    1
   106    52    60   am
   107    52    51    1
   108    21    27    1
   109    21    22    1
   110    30    31    2
   111    30    29    1
   112    56    55   ar
   113    56    58   ar
   114    62    63    2
   115   137   138    1
   116   137   136    1
   117   137   140    1
   118   138   139    2
   119   134   136   am
   120   134   133    1
   121    55    57   ar
   122   132   133    1
   123   145   146    1
   124   145   148    1
   125    27    26    1
   126   142   140    1
   127    51    50    1
   128   146   147    2
   129   141   140    1
   130   141   143    1
   131    58    59   ar
   132    28    29    1
   133    28    23   am
   134    22    23    1
   135    22    25    1
   136    57    59   ar
   137    29    32    1
   138    23    24    2
   139   148   149    1
   140    50    41   am
   141    32    33    1
   142   149   150    1
   143    26    25    1
   144   150   151    1
   145    35    33   ar
   146    35    37   ar
   147    33    34   ar
   148   151   152    1
   149    41    42    2
   150    41    40    1
   151    39    40    1
   152    37    38   ar
   153    40    43    1
   154    34    36   ar
   155    49    47    1
   156    48    47    1
   157    43    44    1
   158    47    46    2
   159    38    36   ar
   160    44    45    1
   161    46    45    1
