@<TRIPOS>MOLECULE
tmp/4buvB00.pdb
 161 161 0 0 0
SMALL
GASTEIGER

@<TRIPOS>ATOM
      1  N         -4.8310  -39.5700   11.9390 N.3    80  HIS80      -0.1226
      2  CA        -5.0470  -39.9900   13.3230 C.3    80  HIS80       0.1752
      3  C         -5.3740  -38.7760   14.1780 C.2    80  HIS80       0.2597
      4  O         -4.5790  -37.8120   14.2300 O.2    80  HIS80      -0.2718
      5  CB        -3.7880  -40.6680   13.8950 C.3    80  HIS80       0.0759
      6  CG        -3.9850  -41.2670   15.2570 C.ar   80  HIS80       0.0818
      7  ND1       -4.6240  -42.4760   15.4620 N.ar   80  HIS80      -0.2268
      8  CD2       -3.6210  -40.8240   16.4910 C.ar   80  HIS80       0.1154
      9  CE1       -4.6280  -42.7600   16.7550 C.ar   80  HIS80       0.1986
     10  NE2       -4.0380  -41.7680   17.4020 N.ar   80  HIS80      -0.2212
     11  N         -6.4890  -38.8590   14.9040 N.am   81  GLY81      -0.1942
     12  CA        -6.9180  -37.8190   15.8510 C.3    81  GLY81       0.2014
     13  C         -6.8650  -38.4200   17.2500 C.2    81  GLY81       0.2640
     14  O         -7.2010  -39.6020   17.4370 O.2    81  GLY81      -0.2714
     15  N         -6.4670  -37.6230   18.2410 N.am   82  SER82      -0.1936
     16  CA        -6.2650  -38.2040   19.5710 C.3    82  SER82       0.2040
     17  C         -6.0200  -37.1070   20.5950 C.2    82  SER82       0.2485
     18  O         -5.3220  -36.1420   20.3020 O.2    82  SER82      -0.2729
     19  CB        -5.0700  -39.1540   19.5720 C.3    82  SER82       0.2129
     20  OG        -4.7060  -39.5610   20.8930 O.3    82  SER82      -0.2179
     21  N         -6.5810  -37.2680   21.8020 N.am   83  PRO83      -0.2715
     22  CA        -6.1740  -36.3630   22.9030 C.3    83  PRO83       0.1536
     23  C         -4.6680  -36.3850   23.2200 C.2    83  PRO83       0.2598
     24  O         -4.1800  -35.4680   23.8830 O.2    83  PRO83      -0.2715
     25  CB        -6.9430  -36.8970   24.1310 C.3    83  PRO83       0.0310
     26  CG        -7.9360  -37.8840   23.6000 C.3    83  PRO83       0.0237
     27  CD        -7.4790  -38.3510   22.2530 C.3    83  PRO83       0.0939
     28  N         -3.9410  -37.4070   22.7700 N.am   84  PHE84      -0.1974
     29  CA        -2.5290  -37.5790   23.1410 C.3    84  PHE84       0.1639
     30  C         -1.5730  -37.1460   22.0280 C.2    84  PHE84       0.2290
     31  O         -0.3950  -37.4730   22.0650 O.2    84  PHE84      -0.2864
     32  CB        -2.2780  -39.0390   23.5120 C.3    84  PHE84       0.0560
     33  CG        -3.2030  -39.5460   24.5840 C.ar   84  PHE84      -0.0200
     34  CD1       -3.2220  -38.9400   25.8420 C.ar   84  PHE84      -0.0042
     35  CD2       -4.0810  -40.6020   24.3330 C.ar   84  PHE84      -0.0042
     36  CE1       -4.0810  -39.4010   26.8350 C.ar   84  PHE84      -0.0003
     37  CE2       -4.9370  -41.0650   25.3200 C.ar   84  PHE84      -0.0003
     38  CZ        -4.9430  -40.4610   26.5710 C.ar   84  PHE84      -0.0000
     39  N         -0.7340  -47.0370   25.1680 N.3    96  ARG96      -0.1231
     40  CA        -1.5490  -45.9240   25.6990 C.3    96  ARG96       0.1694
     41  C         -2.3770  -45.1710   24.6330 C.2    96  ARG96       0.2592
     42  O         -3.3530  -44.4950   24.9600 O.2    96  ARG96      -0.2718
     43  CB        -0.6670  -44.9350   26.4930 C.3    96  ARG96       0.0321
     44  CG        -1.3490  -43.6360   26.9450 C.3    96  ARG96       0.0489
     45  CD        -2.4460  -43.8820   27.9800 C.3    96  ARG96       0.2205
     46  NE        -2.9680  -42.6500   28.5840 N.pl3  96  ARG96      -0.0865
     47  CZ        -4.1400  -42.5590   29.2180 C.cat  96  ARG96       0.5346
     48  NH1       -4.9310  -43.6230   29.3220 N.pl3  96  ARG96       0.1354
     49  NH2       -4.5350  -41.4010   29.7380 N.pl3  96  ARG96       0.1354
     50  N         -1.9830  -45.2830   23.3650 N.am   97  HIS97      -0.1962
     51  CA        -2.6890  -44.5700   22.2680 C.3    97  HIS97       0.1787
     52  C         -3.7330  -45.4500   21.5520 C.2    97  HIS97       0.2620
     53  O         -4.3230  -45.0540   20.5240 O.2    97  HIS97      -0.2715
     54  CB        -1.6730  -43.9450   21.3030 C.3    97  HIS97       0.0785
     55  CG        -0.5960  -43.1850   22.0110 C.ar   97  HIS97       0.0821
     56  ND1        0.7420  -43.3670   21.7430 N.ar   97  HIS97      -0.2267
     57  CD2       -0.6590  -42.3060   23.0390 C.ar   97  HIS97       0.1154
     58  CE1        1.4550  -42.6040   22.5510 C.ar   97  HIS97       0.1986
     59  NE2        0.6300  -41.9530   23.3470 N.ar   97  HIS97      -0.2212
     60  N         -3.9760  -46.6200   22.1450 N.am   98  ALA98      -0.1963
     61  CA        -4.9400  -47.5880   21.6370 C.3    98  ALA98       0.1728
     62  C         -6.3490  -47.1980   22.0310 C.2    98  ALA98       0.2616
     63  O         -6.5710  -46.5650   23.0670 O.2    98  ALA98      -0.2715
     64  CB        -4.6270  -48.9770   22.1680 C.3    98  ALA98       0.0334
     65  N         -7.2990  -47.6040   21.1980 N.am   99  TYR99      -0.1974
     66  CA        -8.7090  -47.4270   21.4750 C.3    99  TYR99       0.1639
     67  C         -9.2210  -48.7820   21.9230 C.2    99  TYR99       0.2290
     68  O         -9.5290  -49.6630   21.0960 O.2    99  TYR99      -0.2864
     69  CB        -9.4040  -46.9270   20.1980 C.3    99  TYR99       0.0560
     70  CG       -10.8920  -46.7060   20.2710 C.ar   99  TYR99      -0.0198
     71  CD1      -11.5810  -46.6170   21.5050 C.ar   99  TYR99      -0.0009
     72  CD2      -11.6250  -46.5780   19.0970 C.ar   99  TYR99      -0.0009
     73  CE1      -12.9520  -46.4130   21.5420 C.ar   99  TYR99       0.0417
     74  CE2      -12.9850  -46.3540   19.1210 C.ar   99  TYR99       0.0417
     75  CZ       -13.6380  -46.2840   20.3440 C.ar   99  TYR99       0.1957
     76  OH       -14.9740  -46.0900   20.3210 O.3    99  TYR99      -0.2866
     77  N         -6.0330  -46.8160   15.9320 N.3   109  TYR109     -0.1227
     78  CA        -6.9050  -46.6930   14.7800 C.3   109  TYR109      0.1736
     79  C         -6.5220  -45.5190   13.8910 C.2   109  TYR109      0.2595
     80  O         -6.1590  -44.4660   14.4030 O.2   109  TYR109     -0.2718
     81  CB        -8.3510  -46.4790   15.2460 C.3   109  TYR109      0.0548
     82  CG        -9.0140  -47.7310   15.7250 C.ar  109  TYR109     -0.0200
     83  CD1       -8.5140  -48.4520   16.8210 C.ar  109  TYR109     -0.0009
     84  CD2      -10.1620  -48.2080   15.0800 C.ar  109  TYR109     -0.0009
     85  CE1       -9.1420  -49.6290   17.2570 C.ar  109  TYR109      0.0417
     86  CE2      -10.7850  -49.3750   15.5180 C.ar  109  TYR109      0.0417
     87  CZ       -10.2720  -50.0730   16.5850 C.ar  109  TYR109      0.1957
     88  OH       -10.9070  -51.2370   16.9830 O.3   109  TYR109     -0.2866
     89  N         -6.6580  -45.6910   12.5740 N.am  110  PHE110     -0.1962
     90  CA        -6.3420  -44.6330   11.6330 C.3   110  PHE110      0.1771
     91  C         -7.4480  -44.5740   10.5990 C.2   110  PHE110      0.2619
     92  O         -8.1340  -45.5840   10.3550 O.2   110  PHE110     -0.2715
     93  CB        -5.0090  -44.9390   10.9160 C.3   110  PHE110      0.0574
     94  CG        -3.8190  -44.9670   11.8370 C.ar  110  PHE110     -0.0200
     95  CD1       -3.4920  -46.1340   12.5290 C.ar  110  PHE110     -0.0042
     96  CD2       -3.0330  -43.8210   12.0310 C.ar  110  PHE110     -0.0042
     97  CE1       -2.4000  -46.1700   13.3950 C.ar  110  PHE110     -0.0003
     98  CE2       -1.9390  -43.8500   12.8880 C.ar  110  PHE110     -0.0003
     99  CZ        -1.6250  -45.0280   13.5810 C.ar  110  PHE110     -0.0000
    100  N         -7.6120  -43.4110    9.9770 N.am  111  ALA111     -0.1977
    101  CA        -8.7190  -43.2180    9.0410 C.3   111  ALA111      0.1597
    102  C         -8.2420  -42.6830    7.6890 C.2   111  ALA111      0.2287
    103  O         -7.3560  -41.8010    7.6140 O.2   111  ALA111     -0.2864
    104  CB        -9.7220  -42.2400    9.6040 C.3   111  ALA111      0.0319
    105  N        -13.2610  -38.3300    9.9320 N.3   116  LYS116     -0.1231
    106  CA       -13.3960  -39.4230   10.9160 C.3   116  LYS116      0.1693
    107  C        -12.3830  -39.2200   12.0820 C.2   116  LYS116      0.2592
    108  O        -12.7340  -39.2670   13.2480 O.2   116  LYS116     -0.2718
    109  CB       -13.1910  -40.7910   10.2420 C.3   116  LYS116      0.0285
    110  CG       -13.0250  -41.9960   11.2110 C.3   116  LYS116      0.0035
    111  CD       -14.1740  -42.1690   12.2210 C.3   116  LYS116      0.0206
    112  CE       -15.5230  -42.3190   11.5440 C.3   116  LYS116      0.1093
    113  NZ       -16.4990  -42.7480   12.6060 N.3   116  LYS116     -0.1314
    114  N        -11.1220  -38.9870   11.7420 N.am  117  SER117     -0.1952
    115  CA       -10.1190  -38.7020   12.7680 C.3   117  SER117      0.1924
    116  C        -10.4590  -37.4230   13.5710 C.2   117  SER117      0.2314
    117  O        -10.1650  -37.3600   14.7810 O.2   117  SER117     -0.2863
    118  CB        -8.7240  -38.6220   12.1460 C.3   117  SER117      0.2116
    119  OG        -8.2710  -39.8970   11.8220 O.3   117  SER117     -0.2180
    120  N        -12.1450  -37.5670   16.9910 N.3   120  TYR120     -0.1241
    121  CA       -11.4040  -38.0570   18.1510 C.3   120  TYR120      0.1605
    122  C        -10.4210  -37.0420   18.7550 C.2   120  TYR120      0.2264
    123  O         -9.7270  -37.3390   19.7430 O.2   120  TYR120     -0.2867
    124  CB       -10.6450  -39.3510   17.7980 C.3   120  TYR120      0.0534
    125  CG       -11.6060  -40.4810   17.5350 C.ar  120  TYR120     -0.0201
    126  CD1      -12.0880  -41.2660   18.5930 C.ar  120  TYR120     -0.0009
    127  CD2      -12.0770  -40.7320   16.2410 C.ar  120  TYR120     -0.0009
    128  CE1      -12.9770  -42.3050   18.3640 C.ar  120  TYR120      0.0417
    129  CE2      -12.9920  -41.7340   16.0060 C.ar  120  TYR120      0.0417
    130  CZ       -13.4350  -42.5110   17.0590 C.ar  120  TYR120      0.1957
    131  OH       -14.3230  -43.4970   16.8110 O.3   120  TYR120     -0.2866
    132  N        -11.2560  -36.5500   22.1690 N.3   123  GLY123     -0.1210
    133  CA       -11.5020  -37.8300   22.8390 C.3   123  GLY123      0.1956
    134  C        -12.6000  -38.6530   22.1700 C.2   123  GLY123      0.2611
    135  O        -13.1870  -38.2090   21.2150 O.2   123  GLY123     -0.2717
    136  N        -12.8450  -39.8680   22.6630 N.am  124  ILE124     -0.1979
    137  CA       -13.8970  -40.7390   22.1210 C.3   124  ILE124      0.1595
    138  C        -15.2550  -40.0140   22.0720 C.2   124  ILE124      0.2287
    139  O        -15.6860  -39.4040   23.0500 O.2   124  ILE124     -0.2864
    140  CB       -13.9380  -42.0570   22.9300 C.3   124  ILE124      0.0276
    141  CG1      -12.6480  -42.8600   22.6800 C.3   124  ILE124      0.0022
    142  CG2      -15.1770  -42.8680   22.6020 C.3   124  ILE124      0.0022
    143  CD1      -12.2360  -43.7200   23.8760 C.3   124  ILE124      0.0001
    144  N         -7.2280  -52.3800   21.9600 N.3   163  LYS163     -0.1245
    145  CA        -6.3160  -51.4050   22.5190 C.3   163  LYS163      0.1561
    146  C         -4.9450  -51.9900   22.8110 C.2   163  LYS163      0.2260
    147  O         -3.9070  -51.3280   22.7550 O.2   163  LYS163     -0.2867
    148  CB        -6.8700  -50.8010   23.8240 C.3   163  LYS163      0.0271
    149  CG        -7.2280  -49.4600   23.2460 C.3   163  LYS163      0.0035
    150  CD        -5.8950  -48.8150   23.7620 C.3   163  LYS163      0.0206
    151  CE        -6.5700  -47.7960   24.6770 C.3   163  LYS163      0.1093
    152  NZ        -5.8060  -46.5670   24.9690 N.3   163  LYS163     -0.1314
    153  N        -11.1380  -47.6280    7.6020 N.3   187  GLU187     -0.1245
    154  CA       -10.4390  -47.3620    8.8510 C.3   187  GLU187      0.1567
    155  C         -9.5090  -48.5390    9.0560 C.2   187  GLU187      0.2260
    156  O         -9.7940  -49.6410    8.5550 O.2   187  GLU187     -0.2867
    157  CB       -11.4520  -47.2150    9.9830 C.3   187  GLU187      0.0388
    158  CG       -12.4070  -46.0460    9.6690 C.3   187  GLU187      0.1160
    159  CD       -13.6400  -45.9510   10.5500 C.2   187  GLU187      0.3649
    160  OE1      -13.6140  -46.4610   11.6970 O.co2 187  GLU187     -0.2457
    161  OE2      -14.6400  -45.3330   10.0880 O.co2 187  GLU187     -0.2457
@<TRIPOS>BOND
     1   153   154    1
     2   103   102    2
     3   102   101    1
     4   156   155    2
     5   154   155    1
     6   154   157    1
     7   101   104    1
     8   101   100    1
     9   158   157    1
    10   158   159    1
    11   105   106    1
    12   100    91   am
    13   161   159   ar
    14   109   106    1
    15   109   110    1
    16    92    91    2
    17   159   160   ar
    18    91    90    1
    19   106   107    1
    20    93    90    1
    21    93    94    1
    22   110   111    1
    23   112   111    1
    24   112   113    1
    25    90    89    1
    26   114   107   am
    27   114   115    1
    28   119   118    1
    29    94    96   ar
    30    94    95   ar
    31     1     2    1
    32    96    98   ar
    33   107   108    2
    34   118   115    1
    35    95    97   ar
    36    89    79   am
    37   115   116    1
    38    98    99   ar
    39     2     5    1
    40     2     3    1
    41    97    99   ar
    42   116   117    2
    43    79    80    2
    44    79    78    1
    45     5     6    1
    46     3     4    2
    47     3    11   am
    48    78    81    1
    49    78    77    1
    50    11    12    1
    51    84    86   ar
    52    84    82   ar
    53    81    82    1
    54     6     7   ar
    55     6     8   ar
    56     7     9   ar
    57    86    87   ar
    58    82    83   ar
    59    12    13    1
    60   129   127   ar
    61   129   130   ar
    62   127   125   ar
    63     8    10   ar
    64    87    88    1
    65    87    85   ar
    66     9    10   ar
    67   131   130    1
    68    83    85   ar
    69   120   121    1
    70   130   128   ar
    71    13    14    2
    72    13    15   am
    73   125   124    1
    74   125   126   ar
    75   124   121    1
    76   121   122    1
    77    15    16    1
    78   128   126   ar
    79   122   123    2
    80    72    74   ar
    81    72    70   ar
    82    74    75   ar
    83    16    19    1
    84    16    17    1
    85    19    20    1
    86    69    70    1
    87    69    66    1
    88    70    71   ar
    89    18    17    2
    90    76    75    1
    91    75    73   ar
    92    53    52    2
    93    17    21   am
    94    68    67    2
    95    65    66    1
    96    65    62   am
    97   135   134    2
    98    54    55    1
    99    54    51    1
   100    66    67    1
   101    71    73   ar
   102    52    60   am
   103    52    51    1
   104    61    62    1
   105    61    60    1
   106    61    64    1
   107    56    55   ar
   108    56    58   ar
   109    21    27    1
   110    21    22    1
   111   144   145    1
   112    55    57   ar
   113    30    31    2
   114    30    29    1
   115    62    63    2
   116   138   137    1
   117   138   139    2
   118   137   136    1
   119   137   140    1
   120   132   133    1
   121   134   136   am
   122   134   133    1
   123    27    26    1
   124    51    50    1
   125   145   146    1
   126   145   148    1
   127    58    59   ar
   128   142   140    1
   129   141   140    1
   130   141   143    1
   131   147   146    2
   132    28    29    1
   133    28    23   am
   134    22    23    1
   135    22    25    1
   136    57    59   ar
   137    29    32    1
   138    23    24    2
   139   149   150    1
   140   149   148    1
   141    50    41   am
   142    32    33    1
   143    26    25    1
   144   150   151    1
   145    35    33   ar
   146    35    37   ar
   147    33    34   ar
   148    41    42    2
   149    41    40    1
   150   151   152    1
   151    39    40    1
   152    37    38   ar
   153    40    43    1
   154    34    36   ar
   155    43    44    1
   156    38    36   ar
   157    44    45    1
   158    45    46    1
   159    46    47    2
   160    47    48    1
   161    47    49    1
