@<TRIPOS>MOLECULE
tmp/4buwB00.pdb
 169 171 0 0 0
SMALL
GASTEIGER

@<TRIPOS>ATOM
      1  N        -50.4930  -39.5760   11.9510 N.3    80  HIS80      -0.1226
      2  CA       -50.7060  -39.9690   13.3590 C.3    80  HIS80       0.1752
      3  C        -51.0080  -38.7450   14.1840 C.2    80  HIS80       0.2597
      4  O        -50.2210  -37.7550   14.2060 O.2    80  HIS80      -0.2718
      5  CB       -49.4950  -40.6870   13.9450 C.3    80  HIS80       0.0759
      6  CG       -49.6850  -41.1980   15.3480 C.ar   80  HIS80       0.0818
      7  ND1      -50.3210  -42.3930   15.6280 N.ar   80  HIS80      -0.2268
      8  CD2      -49.2880  -40.7000   16.5500 C.ar   80  HIS80       0.1154
      9  CE1      -50.3350  -42.5930   16.9360 C.ar   80  HIS80       0.1986
     10  NE2      -49.7150  -41.5850   17.5200 N.ar   80  HIS80      -0.2212
     11  N        -52.1520  -38.8070   14.8550 N.am   81  GLY81      -0.1942
     12  CA       -52.6140  -37.7610   15.7180 C.3    81  GLY81       0.2014
     13  C        -52.5570  -38.2830   17.1190 C.2    81  GLY81       0.2640
     14  O        -52.9530  -39.4160   17.3750 O.2    81  GLY81      -0.2714
     15  N        -52.0680  -37.4690   18.0490 N.am   82  SER82      -0.1936
     16  CA       -51.9680  -37.9330   19.4240 C.3    82  SER82       0.2040
     17  C        -51.6660  -36.7770   20.3660 C.2    82  SER82       0.2485
     18  O        -50.9220  -35.8670   19.9960 O.2    82  SER82      -0.2729
     19  CB       -50.8400  -38.9510   19.5510 C.3    82  SER82       0.2129
     20  OG       -50.5120  -39.2380   20.9100 O.3    82  SER82      -0.2179
     21  N        -52.1960  -36.8360   21.5820 N.am   83  PRO83      -0.2715
     22  CA       -51.7360  -35.8790   22.6090 C.3    83  PRO83       0.1536
     23  C        -50.2650  -36.0090   22.9980 C.2    83  PRO83       0.2598
     24  O        -49.7270  -35.1150   23.6540 O.2    83  PRO83      -0.2715
     25  CB       -52.5740  -36.2400   23.8440 C.3    83  PRO83       0.0310
     26  CG       -53.6920  -37.0570   23.3540 C.3    83  PRO83       0.0237
     27  CD       -53.1970  -37.7780   22.1230 C.3    83  PRO83       0.0939
     28  N        -49.6150  -37.1080   22.6410 N.am   84  PHE84      -0.1974
     29  CA       -48.2130  -37.3090   22.9770 C.3    84  PHE84       0.1639
     30  C        -47.2220  -36.9980   21.8530 C.2    84  PHE84       0.2290
     31  O        -46.1090  -37.4610   21.9060 O.2    84  PHE84      -0.2864
     32  CB       -48.0620  -38.7320   23.4970 C.3    84  PHE84       0.0560
     33  CG       -49.0180  -39.0300   24.6140 C.ar   84  PHE84      -0.0200
     34  CD1      -48.9050  -38.3470   25.8110 C.ar   84  PHE84      -0.0042
     35  CD2      -50.0660  -39.9170   24.4510 C.ar   84  PHE84      -0.0042
     36  CE1      -49.7910  -38.5690   26.8440 C.ar   84  PHE84      -0.0003
     37  CE2      -50.9630  -40.1410   25.4850 C.ar   84  PHE84      -0.0003
     38  CZ       -50.8230  -39.4720   26.6810 C.ar   84  PHE84      -0.0000
     39  N        -46.2610  -46.9910   24.9780 N.3    96  ARG96      -0.1231
     40  CA       -47.0470  -45.9200   25.6260 C.3    96  ARG96       0.1694
     41  C        -47.9100  -45.1300   24.6190 C.2    96  ARG96       0.2592
     42  O        -48.8060  -44.3850   25.0230 O.2    96  ARG96      -0.2718
     43  CB       -46.1440  -44.9480   26.3750 C.3    96  ARG96       0.0321
     44  CG       -45.1920  -45.6010   27.3730 C.3    96  ARG96       0.0489
     45  CD       -44.3020  -44.5500   28.0040 C.3    96  ARG96       0.2205
     46  NE       -43.3470  -44.0050   27.0390 N.pl3  96  ARG96      -0.0865
     47  CZ       -42.0740  -44.3820   26.9220 C.cat  96  ARG96       0.5346
     48  NH1      -41.5580  -45.3230   27.7150 N.pl3  96  ARG96       0.1354
     49  NH2      -41.3020  -43.8080   26.0030 N.pl3  96  ARG96       0.1354
     50  N        -47.6180  -45.2730   23.3220 N.am   97  HIS97      -0.1962
     51  CA       -48.3930  -44.5450   22.2680 C.3    97  HIS97       0.1787
     52  C        -49.4910  -45.3980   21.5820 C.2    97  HIS97       0.2620
     53  O        -50.1930  -44.9310   20.6500 O.2    97  HIS97      -0.2715
     54  CB       -47.4130  -43.9050   21.2850 C.3    97  HIS97       0.0785
     55  CG       -46.3990  -43.0510   21.9760 C.ar   97  HIS97       0.0821
     56  ND1      -45.0500  -43.3000   21.9000 N.ar   97  HIS97      -0.2267
     57  CD2      -46.5410  -42.0510   22.8760 C.ar   97  HIS97       0.1154
     58  CE1      -44.3980  -42.4450   22.6650 C.ar   97  HIS97       0.1986
     59  NE2      -45.2790  -41.6910   23.2840 N.ar   97  HIS97      -0.2212
     60  N        -49.6620  -46.6120   22.1080 N.am   98  ALA98      -0.1963
     61  CA       -50.6620  -47.5650   21.6410 C.3    98  ALA98       0.1728
     62  C        -52.0600  -47.1560   22.0590 C.2    98  ALA98       0.2616
     63  O        -52.2650  -46.4690   23.0700 O.2    98  ALA98      -0.2715
     64  CB       -50.3660  -48.9700   22.1420 C.3    98  ALA98       0.0334
     65  N        -53.0130  -47.5770   21.2300 N.am   99  TYR99      -0.1960
     66  CA       -54.4270  -47.3740   21.4650 C.3    99  TYR99       0.1771
     67  C        -54.9100  -48.7130   21.9370 C.2    99  TYR99       0.2619
     68  O        -55.1750  -49.6120   21.1220 O.2    99  TYR99      -0.2715
     69  CB       -55.1100  -46.9630   20.1490 C.3    99  TYR99       0.0574
     70  CG       -56.5920  -46.7200   20.2070 C.ar   99  TYR99      -0.0198
     71  CD1      -57.2840  -46.6170   21.4360 C.ar   99  TYR99      -0.0009
     72  CD2      -57.3210  -46.5740   19.0330 C.ar   99  TYR99      -0.0009
     73  CE1      -58.6390  -46.3750   21.4610 C.ar   99  TYR99       0.0417
     74  CE2      -58.6700  -46.2850   19.0530 C.ar   99  TYR99       0.0417
     75  CZ       -59.3300  -46.2390   20.2750 C.ar   99  TYR99       0.1957
     76  OH       -60.6610  -45.9750   20.3000 O.3    99  TYR99      -0.2866
     77  N        -54.9960  -48.8670   23.2630 N.am  100  ILE100     -0.1977
     78  CA       -55.2400  -50.1980   23.8220 C.3   100  ILE100      0.1596
     79  C        -56.5930  -50.7000   23.3460 C.2   100  ILE100      0.2287
     80  O        -56.7400  -51.8610   22.9880 O.2   100  ILE100     -0.2864
     81  CB       -55.1710  -50.2510   25.3690 C.3   100  ILE100      0.0276
     82  CG1      -53.8240  -49.7140   25.8920 C.3   100  ILE100      0.0022
     83  CG2      -55.3930  -51.6840   25.8500 C.3   100  ILE100      0.0022
     84  CD1      -52.5870  -50.4340   25.3810 C.3   100  ILE100      0.0020
     85  N        -51.7240  -46.8270   15.9180 N.3   109  TYR109     -0.1227
     86  CA       -52.6200  -46.6360   14.7990 C.3   109  TYR109      0.1736
     87  C        -52.2240  -45.4440   13.9210 C.2   109  TYR109      0.2595
     88  O        -51.8880  -44.3820   14.4500 O.2   109  TYR109     -0.2718
     89  CB       -54.0330  -46.3940   15.3270 C.3   109  TYR109      0.0548
     90  CG       -54.7080  -47.6550   15.7910 C.ar  109  TYR109     -0.0200
     91  CD1      -54.1930  -48.4000   16.8400 C.ar  109  TYR109     -0.0009
     92  CD2      -55.8540  -48.1290   15.1460 C.ar  109  TYR109     -0.0009
     93  CE1      -54.8160  -49.5920   17.2690 C.ar  109  TYR109      0.0417
     94  CE2      -56.4730  -49.3090   15.5640 C.ar  109  TYR109      0.0417
     95  CZ       -55.9520  -50.0380   16.6270 C.ar  109  TYR109      0.1957
     96  OH       -56.5720  -51.2290   17.0070 O.3   109  TYR109     -0.2866
     97  N        -52.3320  -45.6100   12.5970 N.am  110  PHE110     -0.1962
     98  CA       -52.0090  -44.5900   11.6360 C.3   110  PHE110      0.1771
     99  C        -53.1430  -44.5370   10.6070 C.2   110  PHE110      0.2619
    100  O        -53.8580  -45.5430   10.3840 O.2   110  PHE110     -0.2715
    101  CB       -50.7160  -44.9440   10.9330 C.3   110  PHE110      0.0574
    102  CG       -49.5340  -44.9190   11.8080 C.ar  110  PHE110     -0.0200
    103  CD1      -49.2070  -46.0410   12.5810 C.ar  110  PHE110     -0.0042
    104  CD2      -48.7630  -43.7660   11.9300 C.ar  110  PHE110     -0.0042
    105  CE1      -48.1220  -46.0130   13.4280 C.ar  110  PHE110     -0.0003
    106  CE2      -47.6840  -43.7360   12.7880 C.ar  110  PHE110     -0.0003
    107  CZ       -47.3550  -44.8730   13.5200 C.ar  110  PHE110     -0.0000
    108  N        -53.3050  -43.3860    9.9750 N.am  111  ALA111     -0.1977
    109  CA       -54.3600  -43.1840    8.9830 C.3   111  ALA111      0.1597
    110  C        -53.8760  -42.6490    7.6580 C.2   111  ALA111      0.2287
    111  O        -52.9850  -41.7720    7.5880 O.2   111  ALA111     -0.2864
    112  CB       -55.3700  -42.2130    9.5270 C.3   111  ALA111      0.0319
    113  N        -58.8740  -38.2750    9.8910 N.3   116  LYS116     -0.1231
    114  CA       -59.0670  -39.3680   10.8510 C.3   116  LYS116      0.1693
    115  C        -58.0660  -39.1640   12.0100 C.2   116  LYS116      0.2592
    116  O        -58.4690  -39.1510   13.1530 O.2   116  LYS116     -0.2718
    117  CB       -58.8860  -40.7240   10.1930 C.3   116  LYS116      0.0285
    118  CG       -58.7380  -41.9050   11.1460 C.3   116  LYS116      0.0035
    119  CD       -59.8470  -42.0420   12.1540 C.3   116  LYS116      0.0206
    120  CE       -61.1810  -42.2800   11.5240 C.3   116  LYS116      0.1093
    121  NZ       -62.1290  -42.7190   12.6120 N.3   116  LYS116     -0.1314
    122  N        -56.7940  -38.9140   11.6890 N.am  117  SER117     -0.1952
    123  CA       -55.7870  -38.6270   12.7060 C.3   117  SER117      0.1924
    124  C        -56.1080  -37.3610   13.5200 C.2   117  SER117      0.2314
    125  O        -55.8170  -37.3060   14.7350 O.2   117  SER117     -0.2863
    126  CB       -54.3820  -38.5960   12.1060 C.3   117  SER117      0.2116
    127  OG       -53.9580  -39.8860   11.7400 O.3   117  SER117     -0.2180
    128  N        -57.8500  -37.5210   16.8980 N.3   120  TYR120     -0.1241
    129  CA       -57.1010  -38.0400   18.0300 C.3   120  TYR120      0.1605
    130  C        -56.1100  -37.0610   18.6210 C.2   120  TYR120      0.2264
    131  O        -55.4450  -37.3720   19.6340 O.2   120  TYR120     -0.2867
    132  CB       -56.3690  -39.3380   17.6540 C.3   120  TYR120      0.0534
    133  CG       -57.3330  -40.4790   17.4480 C.ar  120  TYR120     -0.0201
    134  CD1      -57.7920  -41.2470   18.5350 C.ar  120  TYR120     -0.0009
    135  CD2      -57.8450  -40.7460   16.1940 C.ar  120  TYR120     -0.0009
    136  CE1      -58.6860  -42.2770   18.3410 C.ar  120  TYR120      0.0417
    137  CE2      -58.7630  -41.7430   16.0080 C.ar  120  TYR120      0.0417
    138  CZ       -59.1970  -42.4940   17.0590 C.ar  120  TYR120      0.1957
    139  OH       -60.1280  -43.4630   16.7680 O.3   120  TYR120     -0.2866
    140  N        -56.9440  -36.4550   22.0680 N.3   123  GLY123     -0.1210
    141  CA       -57.2490  -37.6960   22.7720 C.3   123  GLY123      0.1956
    142  C        -58.2680  -38.5630   22.0430 C.2   123  GLY123      0.2611
    143  O        -58.8230  -38.1580   21.0380 O.2   123  GLY123     -0.2717
    144  N        -58.5210  -39.7530   22.5740 N.am  124  ILE124     -0.1979
    145  CA       -59.5590  -40.6410   22.0300 C.3   124  ILE124      0.1595
    146  C        -60.8930  -39.9350   21.9870 C.2   124  ILE124      0.2287
    147  O        -61.3270  -39.3320   22.9590 O.2   124  ILE124     -0.2864
    148  CB       -59.6370  -41.9460   22.8480 C.3   124  ILE124      0.0276
    149  CG1      -58.3280  -42.7330   22.7240 C.3   124  ILE124      0.0022
    150  CG2      -60.8110  -42.7950   22.3790 C.3   124  ILE124      0.0022
    151  CD1      -58.1090  -43.7390   23.8390 C.3   124  ILE124      0.0001
    152  N        -52.9410  -52.2910   21.8740 N.3   163  LYS163     -0.1245
    153  CA       -52.0620  -51.2980   22.4530 C.3   163  LYS163      0.1561
    154  C        -50.6850  -51.8530   22.7740 C.2   163  LYS163      0.2260
    155  O        -49.6610  -51.1690   22.7400 O.2   163  LYS163     -0.2867
    156  CB       -52.6570  -50.7060   23.7460 C.3   163  LYS163      0.0253
    157  CG       -52.4820  -49.2000   23.9010 C.3   163  LYS163      0.0034
    158  CD       -51.1090  -48.8090   24.4580 C.3   163  LYS163      0.0206
    159  CE       -51.1210  -47.3740   24.9560 C.3   163  LYS163      0.1093
    160  NZ       -52.2890  -47.1360   25.8760 N.3   163  LYS163     -0.1314
    161  N        -56.8110  -47.5580    7.6210 N.3   187  GLU187     -0.1245
    162  CA       -56.0910  -47.3300    8.8660 C.3   187  GLU187      0.1567
    163  C        -55.1560  -48.5000    9.0630 C.2   187  GLU187      0.2260
    164  O        -55.3900  -49.6060    8.5300 O.2   187  GLU187     -0.2867
    165  CB       -57.1110  -47.1400   10.0050 C.3   187  GLU187      0.0388
    166  CG       -58.1570  -46.0890    9.5960 C.3   187  GLU187      0.1160
    167  CD       -59.3840  -45.9740   10.4760 C.2   187  GLU187      0.3649
    168  OE1      -59.3620  -46.5370   11.6090 O.co2 187  GLU187     -0.2457
    169  OE2      -60.3510  -45.2760   10.0190 O.co2 187  GLU187     -0.2457
@<TRIPOS>BOND
     1   111   110    2
     2   161   162    1
     3   110   109    1
     4   164   163    2
     5   162   163    1
     6   162   165    1
     7   109   112    1
     8   109   108    1
     9   166   165    1
    10   166   167    1
    11   113   114    1
    12   108    99   am
    13   169   167   ar
    14   117   114    1
    15   117   118    1
    16   100    99    2
    17   167   168   ar
    18    99    98    1
    19   114   115    1
    20   101    98    1
    21   101   102    1
    22   118   119    1
    23   120   119    1
    24   120   121    1
    25    98    97    1
    26   122   115   am
    27   122   123    1
    28   127   126    1
    29   102   104   ar
    30   102   103   ar
    31   104   106   ar
    32     1     2    1
    33   115   116    2
    34   126   123    1
    35   103   105   ar
    36    97    87   am
    37   123   124    1
    38   106   107   ar
    39     2     5    1
    40     2     3    1
    41   105   107   ar
    42   124   125    2
    43    87    88    2
    44    87    86    1
    45     5     6    1
    46     3     4    2
    47     3    11   am
    48    86    89    1
    49    86    85    1
    50    11    12    1
    51    92    94   ar
    52    92    90   ar
    53    89    90    1
    54     6     7   ar
    55     6     8   ar
    56    94    95   ar
    57     7     9   ar
    58    12    13    1
    59    90    91   ar
    60   137   135   ar
    61   137   138   ar
    62   135   133   ar
    63     8    10   ar
    64    95    96    1
    65    95    93   ar
    66   139   138    1
    67    91    93   ar
    68   128   129    1
    69     9    10   ar
    70   138   136   ar
    71    13    14    2
    72    13    15   am
    73   133   132    1
    74   133   134   ar
    75   132   129    1
    76   129   130    1
    77    15    16    1
    78   136   134   ar
    79   130   131    2
    80    72    74   ar
    81    72    70   ar
    82    74    75   ar
    83    16    19    1
    84    16    17    1
    85    19    20    1
    86    18    17    2
    87    69    70    1
    88    69    66    1
    89    70    71   ar
    90    75    76    1
    91    75    73   ar
    92    17    21   am
    93    53    52    2
    94   143   142    2
    95    68    67    2
    96    65    66    1
    97    65    62   am
    98    54    55    1
    99    54    51    1
   100    71    73   ar
   101    66    67    1
   102    52    60   am
   103    52    51    1
   104    21    27    1
   105    21    22    1
   106    61    62    1
   107    61    60    1
   108    61    64    1
   109    30    31    2
   110    30    29    1
   111   152   153    1
   112    56    55   ar
   113    56    58   ar
   114    67    77   am
   115    55    57   ar
   116   146   145    1
   117   146   147    2
   118   145   144    1
   119   145   148    1
   120   142   144   am
   121   142   141    1
   122    62    63    2
   123   140   141    1
   124    27    26    1
   125    51    50    1
   126   150   148    1
   127   153   154    1
   128   153   156    1
   129    22    23    1
   130    22    25    1
   131    28    29    1
   132    28    23   am
   133    58    59   ar
   134   149   148    1
   135   149   151    1
   136   155   154    2
   137    57    59   ar
   138    29    32    1
   139    80    79    2
   140    23    24    2
   141    77    78    1
   142    50    41   am
   143    79    78    1
   144    26    25    1
   145    32    33    1
   146   156   157    1
   147   156    84    1
   148    78    81    1
   149   157   158    1
   150   157    84    1
   151    35    33   ar
   152    35    37   ar
   153   158   159    1
   154    33    34   ar
   155    41    42    2
   156    41    40    1
   157   159   160    1
   158    39    40    1
   159    81    83    1
   160    81    82    1
   161    84    82    1
   162    37    38   ar
   163    40    43    1
   164    34    36   ar
   165    49    47    1
   166    43    44    1
   167    38    36   ar
   168    47    46    2
   169    47    48    1
   170    46    45    1
   171    44    45    1
