@<TRIPOS>MOLECULE
tmp/4buxA00.pdb
 160 161 0 0 0
SMALL
GASTEIGER

@<TRIPOS>ATOM
      1  N          9.4910   -7.3050   17.3700 N.3    80  HIS80      -0.1226
      2  CA         9.0810   -7.5360   15.9960 C.3    80  HIS80       0.1752
      3  C         10.3300   -7.7700   15.1490 C.2    80  HIS80       0.2597
      4  O         11.2530   -6.9490   15.1510 O.2    80  HIS80      -0.2718
      5  CB         8.2830   -6.3620   15.4270 C.3    80  HIS80       0.0759
      6  CG         7.7550   -6.6070   14.0450 C.ar   80  HIS80       0.0818
      7  ND1        6.6250   -7.3650   13.8050 N.ar   80  HIS80      -0.2268
      8  CD2        8.2090   -6.2130   12.8270 C.ar   80  HIS80       0.1154
      9  CE1        6.4080   -7.4180   12.5010 C.ar   80  HIS80       0.1986
     10  NE2        7.3390   -6.7130   11.8880 N.ar   80  HIS80      -0.2212
     11  N         10.3400   -8.8980   14.4320 N.am   81  GLY81      -0.1942
     12  CA        11.3780   -9.2110   13.4570 C.3    81  GLY81       0.2014
     13  C         10.8170   -9.2440   12.0520 C.2    81  GLY81       0.2640
     14  O          9.7090   -9.7570   11.8250 O.2    81  GLY81      -0.2714
     15  N         11.5640   -8.6820   11.1020 N.am   82  SER82      -0.1936
     16  CA        11.0720   -8.5430    9.7350 C.3    82  SER82       0.2040
     17  C         12.1610   -8.2220    8.7510 C.2    82  SER82       0.2485
     18  O         13.0550   -7.4470    9.0600 O.2    82  SER82      -0.2729
     19  CB        10.0650   -7.4010    9.6570 C.3    82  SER82       0.2129
     20  OG         9.6020   -7.2540    8.3290 O.3    82  SER82      -0.2179
     21  N         12.0620   -8.7610    7.5270 N.am   83  PRO83      -0.2715
     22  CA        12.9430   -8.2560    6.4580 C.3    83  PRO83       0.1536
     23  C         12.7610   -6.7760    6.1760 C.2    83  PRO83       0.2598
     24  O         13.6370   -6.1720    5.5690 O.2    83  PRO83      -0.2715
     25  CB        12.5120   -9.0660    5.2400 C.3    83  PRO83       0.0310
     26  CG        11.8730  -10.3010    5.8130 C.3    83  PRO83       0.0237
     27  CD        11.1660   -9.8150    7.0370 C.3    83  PRO83       0.0939
     28  N         11.6510   -6.1840    6.6100 N.am   84  PHE84      -0.1974
     29  CA        11.3400   -4.7830    6.3110 C.3    84  PHE84       0.1639
     30  C         11.5850   -3.7760    7.4410 C.2    84  PHE84       0.2290
     31  O         11.0220   -2.6710    7.4230 O.2    84  PHE84      -0.2864
     32  CB         9.8940   -4.6980    5.8240 C.3    84  PHE84       0.0560
     33  CG         9.6000   -5.6590    4.7160 C.ar   84  PHE84      -0.0200
     34  CD1       10.3200   -5.5910    3.5250 C.ar   84  PHE84      -0.0042
     35  CD2        8.6510   -6.6450    4.8680 C.ar   84  PHE84      -0.0042
     36  CE1       10.0820   -6.4910    2.4970 C.ar   84  PHE84      -0.0003
     37  CE2        8.4040   -7.5520    3.8470 C.ar   84  PHE84      -0.0003
     38  CZ         9.1170   -7.4730    2.6640 C.ar   84  PHE84      -0.0000
     39  N          1.4030   -3.5020    4.4910 N.3    96  ARG96      -0.1231
     40  CA         2.5040   -4.1920    3.8050 C.3    96  ARG96       0.1694
     41  C          3.4540   -4.9650    4.7120 C.2    96  ARG96       0.2592
     42  O          4.3090   -5.7060    4.2350 O.2    96  ARG96      -0.2718
     43  CB         3.3400   -3.1760    3.0440 C.3    96  ARG96       0.0321
     44  CG         2.5470   -2.3980    2.0060 C.3    96  ARG96       0.0489
     45  CD         3.4740   -1.5550    1.1500 C.3    96  ARG96       0.2205
     46  NE         4.2560   -0.5690    1.9130 N.pl3  96  ARG96      -0.0865
     47  CZ         3.8520    0.6670    2.2370 C.cat  96  ARG96       0.5346
     48  NH1        2.6380    1.1240    1.8970 N.pl3  96  ARG96       0.1354
     49  NH2        4.6720    1.4600    2.9200 N.pl3  96  ARG96       0.1354
     50  N          3.3540   -4.7430    6.0180 N.am   97  HIS97      -0.1962
     51  CA         4.1910   -5.4640    6.9870 C.3    97  HIS97       0.1787
     52  C          3.4570   -6.6350    7.6650 C.2    97  HIS97       0.2620
     53  O          4.0280   -7.3320    8.5230 O.2    97  HIS97      -0.2715
     54  CB         4.7440   -4.4610    7.9930 C.3    97  HIS97       0.0785
     55  CG         5.4380   -3.3160    7.3340 C.ar   97  HIS97       0.0821
     56  ND1        5.0510   -2.0100    7.5110 N.ar   97  HIS97      -0.2267
     57  CD2        6.4360   -3.2900    6.4260 C.ar   97  HIS97       0.1154
     58  CE1        5.8040   -1.2200    6.7650 C.ar   97  HIS97       0.1986
     59  NE2        6.6430   -1.9770    6.0830 N.ar   97  HIS97      -0.2212
     60  N          2.2220   -6.8790    7.2210 N.am   98  ALA98      -0.1963
     61  CA         1.3550   -7.9250    7.7610 C.3    98  ALA98       0.1728
     62  C          1.7860   -9.3080    7.3080 C.2    98  ALA98       0.2616
     63  O          2.2360   -9.4850    6.1830 O.2    98  ALA98      -0.2715
     64  CB        -0.0870   -7.6670    7.3710 C.3    98  ALA98       0.0334
     65  N          1.6960  -10.2740    8.2140 N.am   99  TYR99      -0.1960
     66  CA         1.9410  -11.6710    7.8940 C.3    99  TYR99       0.1771
     67  C          0.6370  -12.2420    7.3490 C.2    99  TYR99       0.2619
     68  O         -0.2570  -12.6360    8.1100 O.2    99  TYR99      -0.2715
     69  CB         2.3840  -12.3940    9.1610 C.3    99  TYR99       0.0574
     70  CG         2.7610  -13.8490    9.0350 C.ar   99  TYR99      -0.0198
     71  CD1        2.7830  -14.5260    7.7960 C.ar   99  TYR99      -0.0009
     72  CD2        3.0630  -14.5790   10.1750 C.ar   99  TYR99      -0.0009
     73  CE1        3.1360  -15.8600    7.7270 C.ar   99  TYR99       0.0417
     74  CE2        3.4290  -15.8920   10.1080 C.ar   99  TYR99       0.0417
     75  CZ         3.4580  -16.5340    8.8870 C.ar   99  TYR99       0.1957
     76  OH         3.8070  -17.8630    8.8790 O.3    99  TYR99      -0.2866
     77  N          0.5140  -12.2670    6.0200 N.am  100  ILE100     -0.1977
     78  CA        -0.7440  -12.6590    5.3930 C.3   100  ILE100      0.1596
     79  C         -1.1310  -14.0560    5.8610 C.2   100  ILE100      0.2287
     80  O         -2.2720  -14.2880    6.2430 O.2   100  ILE100     -0.2864
     81  CB        -0.6920  -12.5820    3.8430 C.3   100  ILE100      0.0276
     82  CG1       -0.3240  -11.1570    3.3600 C.3   100  ILE100      0.0022
     83  CG2       -2.0040  -13.0620    3.2380 C.3   100  ILE100      0.0022
     84  CD1       -1.1150  -10.0200    3.9770 C.3   100  ILE100      0.0001
     85  N          2.3470   -9.0280   13.4890 N.3   109  TYR109     -0.1227
     86  CA         2.5720   -9.9600   14.5890 C.3   109  TYR109      0.1736
     87  C          3.7390   -9.4820   15.4640 C.2   109  TYR109      0.2595
     88  O          4.8020   -9.0820   14.9460 O.2   109  TYR109     -0.2718
     89  CB         2.9150  -11.3580   14.0150 C.3   109  TYR109      0.0548
     90  CG         1.7170  -12.1120   13.5030 C.ar  109  TYR109     -0.0200
     91  CD1        0.9800  -11.6300   12.4360 C.ar  109  TYR109     -0.0009
     92  CD2        1.2810  -13.2850   14.1380 C.ar  109  TYR109     -0.0009
     93  CE1       -0.1690  -12.2820   12.0120 C.ar  109  TYR109      0.0417
     94  CE2        0.1470  -13.9490   13.7080 C.ar  109  TYR109      0.0417
     95  CZ        -0.5770  -13.4330   12.6370 C.ar  109  TYR109      0.1957
     96  OH        -1.7200  -14.0770   12.2090 O.3   109  TYR109     -0.2866
     97  N          3.5790   -9.6340   16.7770 N.am  110  PHE110     -0.1962
     98  CA         4.6130   -9.2780   17.7550 C.3   110  PHE110      0.1771
     99  C          4.7680  -10.4140   18.7760 C.2   110  PHE110      0.2619
    100  O          3.8110  -11.1600   19.0090 O.2   110  PHE110     -0.2715
    101  CB         4.2340   -8.0000   18.4780 C.3   110  PHE110      0.0574
    102  CG         4.1120   -6.8030   17.5810 C.ar  110  PHE110     -0.0200
    103  CD1        2.9440   -6.5540   16.8900 C.ar  110  PHE110     -0.0042
    104  CD2        5.1800   -5.9310   17.4210 C.ar  110  PHE110     -0.0042
    105  CE1        2.8560   -5.4790   16.0210 C.ar  110  PHE110     -0.0003
    106  CE2        5.0810   -4.8190   16.5930 C.ar  110  PHE110     -0.0003
    107  CZ         3.9220   -4.5920   15.8850 C.ar  110  PHE110     -0.0000
    108  N          5.9570  -10.5300   19.3790 N.am  111  ALA111     -0.1977
    109  CA         6.2520  -11.5760   20.3470 C.3   111  ALA111      0.1597
    110  C          6.7940  -11.0230   21.6560 C.2   111  ALA111      0.2287
    111  O          7.5890  -10.0750   21.6520 O.2   111  ALA111     -0.2864
    112  CB         7.2750  -12.5420   19.7700 C.3   111  ALA111      0.0319
    113  N         11.4840  -15.6370   19.3320 N.3   116  LYS116     -0.1231
    114  CA        10.4190  -15.8380   18.3330 C.3   116  LYS116      0.1693
    115  C         10.5300  -14.8340   17.1730 C.2   116  LYS116      0.2592
    116  O         10.5060  -15.2060   16.0000 O.2   116  LYS116     -0.2718
    117  CB         9.0400  -15.8210   19.0090 C.3   116  LYS116      0.0285
    118  CG         7.8330  -15.7610   18.1050 C.3   116  LYS116      0.0035
    119  CD         7.7340  -16.8340   17.0210 C.3   116  LYS116      0.0206
    120  CE         7.4840  -18.1870   17.5810 C.3   116  LYS116      0.1093
    121  NZ         7.3150  -19.1540   16.4550 N.3   116  LYS116     -0.1314
    122  N         10.6630  -13.5460   17.4990 N.am  117  SER117     -0.1952
    123  CA        10.8360  -12.5090   16.4640 C.3   117  SER117      0.1924
    124  C         12.1060  -12.7080   15.6570 C.2   117  SER117      0.2314
    125  O         12.1400  -12.4090   14.4680 O.2   117  SER117     -0.2863
    126  CB        10.7950  -11.1030   17.0860 C.3   117  SER117      0.2116
    127  OG         9.4690  -10.7700   17.4720 O.3   117  SER117     -0.2180
    128  N         12.0090  -14.4250   12.2650 N.3   120  TYR120     -0.1241
    129  CA        11.4850  -13.7250   11.0770 C.3   120  TYR120      0.1605
    130  C         12.4000  -12.6550   10.4730 C.2   120  TYR120      0.2264
    131  O         12.0580  -12.0450    9.4700 O.2   120  TYR120     -0.2867
    132  CB        10.1250  -13.1040   11.3700 C.3   120  TYR120      0.0534
    133  CG         9.0950  -14.1480   11.6710 C.ar  120  TYR120     -0.0201
    134  CD1        8.9210  -14.6200   12.9600 C.ar  120  TYR120     -0.0009
    135  CD2        8.3280  -14.7070   10.6630 C.ar  120  TYR120     -0.0009
    136  CE1        7.9910  -15.6130   13.2380 C.ar  120  TYR120      0.0417
    137  CE2        7.3820  -15.6940   10.9460 C.ar  120  TYR120      0.0417
    138  CZ         7.2370  -16.1370   12.2410 C.ar  120  TYR120      0.1957
    139  OH         6.3350  -17.1200   12.5240 O.3   120  TYR120     -0.2866
    140  N         12.9710  -13.5660    7.0920 N.3   123  GLY123     -0.1210
    141  CA        11.7570  -13.9780    6.4230 C.3   123  GLY123      0.1956
    142  C         11.0230  -15.0680    7.1630 C.2   123  GLY123      0.2611
    143  O         11.4720  -15.5560    8.1840 O.2   123  GLY123     -0.2717
    144  N          9.8950  -15.4670    6.6090 N.am  124  ILE124     -0.1979
    145  CA         9.0630  -16.4770    7.2370 C.3   124  ILE124      0.1595
    146  C          9.8640  -17.7490    7.2630 C.2   124  ILE124      0.2287
    147  O         10.4590  -18.1220    6.2750 O.2   124  ILE124     -0.2864
    148  CB         7.7830  -16.7330    6.4510 C.3   124  ILE124      0.0276
    149  CG1        6.9340  -15.4740    6.4260 C.3   124  ILE124      0.0022
    150  CG2        7.0240  -17.9170    7.0740 C.3   124  ILE124      0.0022
    151  CD1        5.8500  -15.5480    5.3890 C.3   124  ILE124      0.0001
    152  N          2.1350  -14.2820   21.9450 N.3   185  GLU185     -0.1245
    153  CA         2.3110  -13.5670   20.6710 C.3   185  GLU185      0.1567
    154  C          1.0210  -12.7990   20.4550 C.2   185  GLU185      0.2260
    155  O         -0.0270  -13.1970   20.9840 O.2   185  GLU185     -0.2867
    156  CB         2.5630  -14.5820   19.5390 C.3   185  GLU185      0.0388
    157  CG         3.7710  -15.4610   19.8490 C.3   185  GLU185      0.1160
    158  CD         3.9850  -16.5920   18.8580 C.2   185  GLU185      0.3649
    159  OE1        3.4050  -16.5790   17.7450 O.co2 185  GLU185     -0.2457
    160  OE2        4.7460  -17.5040   19.2280 O.co2 185  GLU185     -0.2457
@<TRIPOS>BOND
     1    45    46    1
     2    45    44    1
     3    48    47    1
     4    46    47    2
     5    44    43    1
     6    47    49    1
     7    36    38   ar
     8    36    34   ar
     9    38    37   ar
    10    43    40    1
    11    83    81    1
    12    82    81    1
    13    82    84    1
    14    34    33   ar
    15    40    39    1
    16    40    41    1
    17    81    78    1
    18    37    35   ar
    19    42    41    2
    20    41    50   am
    21    33    35   ar
    22    33    32    1
    23    25    26    1
    24    25    22    1
    25   151   149    1
    26    78    79    1
    27    78    77    1
    28    24    23    2
    29    26    27    1
    30    32    29    1
    31    79    80    2
    32    50    51    1
    33    77    67   am
    34    59    57   ar
    35    59    58   ar
    36    23    22    1
    37    23    28   am
    38    63    62    2
    39   147   146    2
    40    29    28    1
    41    29    30    1
    42   141   140    1
    43   141   142    1
    44   149   148    1
    45    57    55   ar
    46   148   150    1
    47   148   145    1
    48    22    21    1
    49   144   142   am
    50   144   145    1
    51    58    56   ar
    52    51    52    1
    53    51    54    1
    54    27    21    1
    55   142   143    2
    56    60    52   am
    57    60    61    1
    58   145   146    1
    59    62    61    1
    60    62    65   am
    61    55    56   ar
    62    55    54    1
    63    67    66    1
    64    67    68    2
    65    64    61    1
    66    31    30    2
    67    21    17   am
    68    52    53    2
    69    73    71   ar
    70    73    75   ar
    71    71    70   ar
    72    66    65    1
    73    66    69    1
    74    20    19    1
    75    17    18    2
    76    17    16    1
    77    76    75    1
    78    75    74   ar
    79    70    69    1
    80    70    72   ar
    81   131   130    2
    82    19    16    1
    83    16    15    1
    84    74    72   ar
    85   130   129    1
    86   135   137   ar
    87   135   133   ar
    88   137   138   ar
    89   129   132    1
    90   129   128    1
    91    15    13   am
    92   132   133    1
    93   133   134   ar
    94    14    13    2
    95    10     9   ar
    96    10     8   ar
    97    93    91   ar
    98    93    95   ar
    99    13    12    1
   100    96    95    1
   101   138   139    1
   102   138   136   ar
   103    91    90   ar
   104     9     7   ar
   105    95    94   ar
   106     8     6   ar
   107   134   136   ar
   108    12    11    1
   109    85    86    1
   110    90    89    1
   111    90    92   ar
   112    94    92   ar
   113     7     6   ar
   114    89    86    1
   115     6     5    1
   116    11     3   am
   117   125   124    2
   118    86    87    1
   119    88    87    2
   120     3     4    2
   121     3     2    1
   122     5     2    1
   123    87    97   am
   124   124   123    1
   125   107   105   ar
   126   107   106   ar
   127     2     1    1
   128   116   115    2
   129   105   103   ar
   130   121   120    1
   131   123   126    1
   132   123   122    1
   133   106   104   ar
   134    97    98    1
   135   103   102   ar
   136   119   120    1
   137   119   118    1
   138   126   127    1
   139   115   122   am
   140   115   114    1
   141   104   102   ar
   142   102   101    1
   143   159   158   ar
   144    98   101    1
   145    98    99    1
   146   118   117    1
   147   114   117    1
   148   114   113    1
   149    99   100    2
   150    99   108   am
   151   158   160   ar
   152   158   157    1
   153   108   109    1
   154   156   157    1
   155   156   153    1
   156   112   109    1
   157   109   110    1
   158   154   153    1
   159   154   155    2
   160   153   152    1
   161   111   110    2
