@<TRIPOS>MOLECULE
tmp/4bv4C03.pdb
 81 75 0 0 0
SMALL
GASTEIGER

@<TRIPOS>ATOM
      1  N        401.5340  -25.6580   94.7140 N.3   296  ILE296     -0.1245
      2  CA       401.7160  -24.2120   94.7900 C.3   296  ILE296      0.1561
      3  C        402.8820  -23.7100   93.9150 C.2   296  ILE296      0.2260
      4  O        403.9950  -24.2030   94.0030 O.2   296  ILE296     -0.2867
      5  CB       401.9110  -23.7800   96.2830 C.3   296  ILE296      0.0252
      6  CG1      400.8050  -24.3500   97.2070 C.3   296  ILE296      0.0019
      7  CG2      402.0150  -22.2490   96.4300 C.3   296  ILE296      0.0019
      8  CD1      401.2490  -24.6930   98.6140 C.3   296  ILE296      0.0001
      9  N        404.6620  -19.9510   93.0330 N.3   298  ARG298     -0.1245
     10  CA       404.7980  -18.5120   93.2680 C.3   298  ARG298      0.1563
     11  C        405.8620  -18.0190   92.2890 C.2   298  ARG298      0.2260
     12  O        407.0280  -18.4000   92.4120 O.2   298  ARG298     -0.2867
     13  CB       405.1340  -18.2160   94.7400 C.3   298  ARG298      0.0307
     14  CG       404.2030  -18.8960   95.7500 C.3   298  ARG298      0.0489
     15  CD       403.0110  -18.0250   96.1150 C.3   298  ARG298      0.2205
     16  NE       402.2770  -18.5660   97.2600 N.pl3 298  ARG298     -0.0865
     17  CZ       401.0160  -18.9850   97.2220 C.cat 298  ARG298      0.5346
     18  NH1      400.3140  -18.9150   96.0880 N.pl3 298  ARG298      0.1354
     19  NH2      400.4470  -19.4850   98.3120 N.pl3 298  ARG298      0.1354
     20  N        396.9890  -26.3470   92.9130 N.3   318  THR318     -0.1203
     21  CA       395.8660  -25.6750   93.5750 C.3   318  THR318      0.1994
     22  C        396.0490  -24.1510   93.6090 C.2   318  THR318      0.2617
     23  O        395.0450  -23.4390   93.6600 O.2   318  THR318     -0.2717
     24  CB       395.6130  -26.2280   95.0010 C.3   318  THR318      0.1784
     25  OG1      396.7420  -25.9930   95.8510 O.3   318  THR318     -0.2211
     26  CG2      395.2340  -27.6950   95.0100 C.3   318  THR318      0.0376
     27  N        397.3020  -23.6460   93.6440 N.am  319  ASN319     -0.1974
     28  CA       397.5430  -22.1970   93.7250 C.3   319  ASN319      0.1688
     29  C        398.6370  -21.7680   92.8100 C.2   319  ASN319      0.2292
     30  O        399.7260  -22.3290   92.8680 O.2   319  ASN319     -0.2864
     31  CB       397.8740  -21.7560   95.1530 C.3   319  ASN319      0.1181
     32  CG       396.8600  -22.2230   96.1340 C.2   319  ASN319      0.2629
     33  OD1      396.7550  -23.4190   96.4140 O.2   319  ASN319     -0.2716
     34  ND2      396.0950  -21.2830   96.6480 N.am  319  ASN319     -0.0877
     35  N        392.5270  -23.9060   92.5200 N.3   342  LEU342     -0.1231
     36  CA       391.6080  -23.1700   93.4060 C.3   342  LEU342      0.1693
     37  C        391.7590  -21.6730   93.2210 C.2   342  LEU342      0.2592
     38  O        390.7570  -20.9510   93.2350 O.2   342  LEU342     -0.2718
     39  CB       391.8540  -23.5170   94.8900 C.3   342  LEU342      0.0284
     40  CG       391.6040  -24.9620   95.3290 C.3   342  LEU342      0.0019
     41  CD1      392.1420  -25.2020   96.7400 C.3   342  LEU342      0.0001
     42  CD2      390.1300  -25.3350   95.2210 C.3   342  LEU342      0.0001
     43  N        393.0140  -21.2080   93.0770 N.am  343  SER343     -0.1952
     44  CA       393.3110  -19.8000   92.9460 C.3   343  SER343      0.1924
     45  C        394.2910  -19.5330   91.8360 C.2   343  SER343      0.2314
     46  O        395.3000  -20.2340   91.7210 O.2   343  SER343     -0.2863
     47  CB       393.8700  -19.2590   94.2540 C.3   343  SER343      0.2116
     48  OG       394.0830  -17.8590   94.1710 O.3   343  SER343     -0.2180
     49  N        388.1020  -20.9850   92.3740 N.3   366  THR366     -0.1203
     50  CA       387.2470  -20.2040   93.2550 C.3   366  THR366      0.1994
     51  C        387.6390  -18.7170   93.2090 C.2   366  THR366      0.2617
     52  O        386.7850  -17.8430   93.3700 O.2   366  THR366     -0.2717
     53  CB       387.2810  -20.7630   94.6960 C.3   366  THR366      0.1784
     54  OG1      388.6260  -20.7770   95.1830 O.3   366  THR366     -0.2211
     55  CG2      386.6680  -22.1500   94.8130 C.3   366  THR366      0.0376
     56  N        388.9210  -18.4330   93.0170 N.am  367  ASP367     -0.1973
     57  CA       389.4120  -17.0540   93.0100 C.3   367  ASP367      0.1709
     58  C        390.1830  -16.7720   91.7380 C.2   367  ASP367      0.2293
     59  O        391.0570  -17.5530   91.3580 O.2   367  ASP367     -0.2864
     60  CB       390.2590  -16.7750   94.2600 C.3   367  ASP367      0.1436
     61  CG       389.4830  -16.9870   95.5610 C.2   367  ASP367      0.3671
     62  OD1      389.2070  -18.1590   95.9070 O.co2 367  ASP367     -0.2456
     63  OD2      389.1350  -15.9810   96.2180 O.co2 367  ASP367     -0.2456
     64  N        383.8170  -18.1680   93.0740 N.3   390  GLN390     -0.1231
     65  CA       383.2800  -17.4220   94.2020 C.3   390  GLN390      0.1698
     66  C        383.6630  -15.9610   94.0900 C.2   390  GLN390      0.2592
     67  O        382.8560  -15.0920   94.4010 O.2   390  GLN390     -0.2718
     68  CB       383.8450  -17.9780   95.5240 C.3   390  GLN390      0.0381
     69  CG       383.4400  -19.4020   95.8510 C.3   390  GLN390      0.0905
     70  CD       383.9980  -19.8470   97.1750 C.2   390  GLN390      0.2608
     71  OE1      384.0860  -19.0780   98.1350 O.2   390  GLN390     -0.2717
     72  NE2      384.3380  -21.1170   97.2730 N.am  390  GLN390     -0.0878
     73  N        384.9200  -15.6890   93.6920 N.am  391  LYS391     -0.1980
     74  CA       385.4640  -14.3330   93.6470 C.3   391  LYS391      0.1596
     75  C        386.2270  -14.0500   92.3820 C.2   391  LYS391      0.2287
     76  O        387.0060  -14.8890   91.9410 O.2   391  LYS391     -0.2864
     77  CB       386.3850  -14.1040   94.8690 C.3   391  LYS391      0.0298
     78  CG       385.5980  -13.9750   96.1840 C.3   391  LYS391      0.0038
     79  CD       386.4940  -13.7490   97.3860 C.3   391  LYS391      0.0206
     80  CE       385.6780  -13.4620   98.6230 C.3   391  LYS391      0.1093
     81  NZ       386.5420  -13.3050   99.8210 N.3   391  LYS391     -0.1314
@<TRIPOS>BOND
     1    59    58    2
     2    46    45    2
     3    58    57    1
     4    45    44    1
     5    76    75    2
     6    11    12    2
     7    11    10    1
     8    49    50    1
     9    75    74    1
    10    35    36    1
    11    29    30    2
    12    29    28    1
    13    20    21    1
    14    44    43    1
    15    44    47    1
    16    57    56    1
    17    57    60    1
    18    56    51   am
    19     9    10    1
    20    64    65    1
    21    43    37   am
    22    51    50    1
    23    51    52    2
    24    37    38    2
    25    37    36    1
    26    50    53    1
    27    10    13    1
    28    36    39    1
    29    21    22    1
    30    21    24    1
    31    22    27   am
    32    22    23    2
    33    27    28    1
    34    74    73    1
    35    74    77    1
    36    73    66   am
    37    28    31    1
    38     3     4    2
    39     3     2    1
    40    66    65    1
    41    66    67    2
    42    48    47    1
    43    65    68    1
    44    60    61    1
    45    53    55    1
    46    53    54    1
    47     1     2    1
    48    13    14    1
    49     2     5    1
    50    77    78    1
    51    39    40    1
    52    24    26    1
    53    24    25    1
    54    31    32    1
    55    42    40    1
    56    40    41    1
    57    68    69    1
    58    61    62   ar
    59    61    63   ar
    60    14    15    1
    61    69    70    1
    62    18    17    1
    63    15    16    1
    64    32    33    2
    65    32    34   am
    66    78    79    1
    67     5     7    1
    68     5     6    1
    69    70    72   am
    70    70    71    2
    71     6     8    1
    72    17    16    2
    73    17    19    1
    74    79    80    1
    75    80    81    1
