@<TRIPOS>MOLECULE
tmp/4bv5A00.pdb
 107 107 0 0 0
SMALL
GASTEIGER

@<TRIPOS>ATOM
      1  N         -0.3170    7.1870   14.0430 N.3    32  ARG32      -0.1231
      2  CA        -0.0790    5.7890   13.7150 C.3    32  ARG32       0.1694
      3  C          1.3760    5.4470   14.0710 C.2    32  ARG32       0.2592
      4  O          2.3180    6.1490   13.6790 O.2    32  ARG32      -0.2718
      5  CB        -0.3970    5.5390   12.2330 C.3    32  ARG32       0.0321
      6  CG        -0.4560    4.0700   11.7730 C.3    32  ARG32       0.0489
      7  CD        -1.3020    3.9090   10.4720 C.3    32  ARG32       0.2205
      8  NE        -2.7060    4.3130   10.6680 N.pl3  32  ARG32      -0.0865
      9  CZ        -3.6690    3.5380   11.1910 C.cat  32  ARG32       0.5346
     10  NH1       -3.4080    2.2860   11.5680 N.pl3  32  ARG32       0.1354
     11  NH2       -4.9060    4.0160   11.3320 N.pl3  32  ARG32       0.1354
     12  N          1.5610    4.3920   14.8440 N.am   33  HIS33      -0.1962
     13  CA         2.9090    4.0350   15.2870 C.3    33  HIS33       0.1787
     14  C          3.1400    2.5350   15.4400 C.2    33  HIS33       0.2620
     15  O          2.2280    1.7530   15.3460 O.2    33  HIS33      -0.2715
     16  CB         3.2830    4.7820   16.5760 C.3    33  HIS33       0.0785
     17  CG         2.5170    4.3460   17.7820 C.ar   33  HIS33       0.0821
     18  ND1        2.9640    3.3630   18.6290 N.ar   33  HIS33      -0.2267
     19  CD2        1.3340    4.7630   18.2850 C.ar   33  HIS33       0.1154
     20  CE1        2.0810    3.1830   19.5920 C.ar   33  HIS33       0.1986
     21  NE2        1.0920    4.0310   19.4130 N.ar   33  HIS33      -0.2212
     22  N          4.3850    2.1630   15.7110 N.am   34  GLN34      -0.1963
     23  CA         4.7490    0.7720   15.8780 C.3    34  GLN34       0.1733
     24  C          5.3320    0.4600   17.2670 C.2    34  GLN34       0.2616
     25  O          5.9310   -0.5740   17.4570 O.2    34  GLN34      -0.2715
     26  CB         5.7330    0.3650   14.7940 C.3    34  GLN34       0.0408
     27  CG         5.1430    0.1040   13.4240 C.3    34  GLN34       0.0908
     28  CD         6.1890    0.1540   12.3320 C.2    34  GLN34       0.2608
     29  OE1        7.1490   -0.5940   12.3520 O.2    34  GLN34      -0.2717
     30  NE2        6.0190    1.0530   11.4000 N.am   34  GLN34      -0.0878
     31  N          5.1600    1.3780   18.2100 N.am   35  ARG35      -0.1977
     32  CA         5.6610    1.2420   19.5770 C.3    35  ARG35       0.1597
     33  C          4.5000    0.8810   20.5230 C.2    35  ARG35       0.2287
     34  O          4.1920    1.6090   21.4400 O.2    35  ARG35      -0.2864
     35  CB         6.3150    2.5540   20.0280 C.3    35  ARG35       0.0334
     36  CG         7.8300    2.6080   20.0580 C.3    35  ARG35       0.0492
     37  CD         8.4990    1.9090   18.8970 C.3    35  ARG35       0.2205
     38  NE         9.2590    2.7990   18.0440 N.pl3  35  ARG35      -0.0865
     39  CZ        10.5790    2.7780   17.9360 C.cat  35  ARG35       0.5346
     40  NH1       11.2840    1.9200   18.6390 N.pl3  35  ARG35       0.1354
     41  NH2       11.1900    3.6140   17.1180 N.pl3  35  ARG35       0.1354
     42  N         12.5280    2.8480   23.4920 N.3    54  ASP54      -0.1239
     43  CA        13.5570    2.8860   22.4410 C.3    54  ASP54       0.1674
     44  C         14.9450    3.3870   22.9020 C.2    54  ASP54       0.2266
     45  O         15.7760    3.7760   22.0680 O.2    54  ASP54      -0.2867
     46  CB        13.0570    3.7650   21.2880 C.3    54  ASP54       0.1410
     47  CG        12.7400    5.1830   21.7330 C.2    54  ASP54       0.3668
     48  OD1       12.5170    5.4280   22.9300 O.co2  54  ASP54      -0.2456
     49  OD2       12.7310    6.0770   20.8900 O.co2  54  ASP54      -0.2456
     50  N         15.7480    6.1660   24.6910 N.3    56  ASP56      -0.1239
     51  CA        15.9310    7.5800   24.5040 C.3    56  ASP56       0.1674
     52  C         16.5790    8.1200   25.7930 C.2    56  ASP56       0.2266
     53  O         17.0510    7.3550   26.6130 O.2    56  ASP56      -0.2867
     54  CB        14.5990    8.2470   24.1650 C.3    56  ASP56       0.1410
     55  CG        14.7670    9.5190   23.3650 C.2    56  ASP56       0.3668
     56  OD1       15.7760   10.1870   23.5170 O.co2  56  ASP56      -0.2456
     57  OD2       13.8990    9.8640   22.5900 O.co2  56  ASP56      -0.2456
     58  N          9.0920    9.5740   27.4960 N.3    60  TRP60      -0.1241
     59  CA         8.3690   10.2850   26.4610 C.3    60  TRP60       0.1605
     60  C          7.0080    9.6500   26.0930 C.2    60  TRP60       0.2264
     61  O          6.5910    8.6850   26.6970 O.2    60  TRP60      -0.2867
     62  CB         9.2550   10.3840   25.2250 C.3    60  TRP60       0.0550
     63  CG         9.5980    9.0740   24.5960 C.ar   60  TRP60       0.0003
     64  CD1       10.6410    8.2560   24.9150 C.ar   60  TRP60       0.0946
     65  CD2        8.9240    8.4480   23.5120 C.ar   60  TRP60       0.0152
     66  NE1       10.6430    7.1580   24.1070 N.ar   60  TRP60      -0.2442
     67  CE2        9.5940    7.2450   23.2400 C.ar   60  TRP60       0.0810
     68  CE3        7.8000    8.7740   22.7550 C.ar   60  TRP60       0.0012
     69  CZ2        9.1780    6.3770   22.2440 C.ar   60  TRP60       0.0191
     70  CZ3        7.3960    7.9130   21.7710 C.ar   60  TRP60       0.0001
     71  CH2        8.0790    6.7340   21.5240 C.ar   60  TRP60       0.0015
     72  N          3.8710    9.6470   22.5040 N.3    62  PHE62      -0.1241
     73  CA         3.2550   10.3100   21.3540 C.3    62  PHE62       0.1605
     74  C          2.2000   11.2200   21.9600 C.2    62  PHE62       0.2264
     75  O          1.6960   10.9390   23.0440 O.2    62  PHE62      -0.2867
     76  CB         2.6400    9.2780   20.3940 C.3    62  PHE62       0.0534
     77  CG         3.6470    8.3140   19.8020 C.ar   62  PHE62      -0.0203
     78  CD1        4.3160    8.6190   18.6120 C.ar   62  PHE62      -0.0042
     79  CD2        3.9170    7.0920   20.4220 C.ar   62  PHE62      -0.0042
     80  CE1        5.2430    7.7340   18.0630 C.ar   62  PHE62      -0.0003
     81  CE2        4.8340    6.1990   19.8640 C.ar   62  PHE62      -0.0003
     82  CZ         5.5010    6.5330   18.6860 C.ar   62  PHE62      -0.0000
     83  N          3.8890   14.8430   16.7980 N.3    69  ARG69      -0.1231
     84  CA         3.9500   13.3850   16.8970 C.3    69  ARG69       0.1694
     85  C          4.3720   12.8170   18.2840 C.2    69  ARG69       0.2592
     86  O          3.6840   11.9560   18.8170 O.2    69  ARG69      -0.2718
     87  CB         4.8060   12.8000   15.7700 C.3    69  ARG69       0.0321
     88  CG         4.9320   11.2830   15.8230 C.3    69  ARG69       0.0489
     89  CD         5.6650   10.7160   14.6210 C.3    69  ARG69       0.2205
     90  NE         5.7660    9.2560   14.6850 N.pl3  69  ARG69      -0.0865
     91  CZ         4.8230    8.4180   14.2560 C.cat  69  ARG69       0.5346
     92  NH1        3.6910    8.8970   13.7210 N.pl3  69  ARG69       0.1354
     93  NH2        5.0090    7.1000   14.3570 N.pl3  69  ARG69       0.1354
     94  N          5.4910   13.2900   18.8400 N.am   70  TRP70      -0.1976
     95  CA         6.0220   12.7810   20.1170 C.3    70  TRP70       0.1640
     96  C          6.7280   13.8880   20.9110 C.2    70  TRP70       0.2290
     97  O          7.2120   14.8450   20.3230 O.2    70  TRP70      -0.2864
     98  CB         6.9670   11.5640   19.9150 C.3    70  TRP70       0.0576
     99  CG         8.3330   11.9270   19.3720 C.ar   70  TRP70       0.0006
    100  CD1        8.6740   12.0950   18.0620 C.ar   70  TRP70       0.0946
    101  CD2        9.5420   12.1690   20.1350 C.ar   70  TRP70       0.0152
    102  NE1       10.0070   12.4320   17.9610 N.ar   70  TRP70      -0.2442
    103  CE2       10.5590   12.4990   19.2130 C.ar   70  TRP70       0.0810
    104  CE3        9.8480   12.1720   21.5050 C.ar   70  TRP70       0.0012
    105  CZ2       11.8740   12.8050   19.6150 C.ar   70  TRP70       0.0191
    106  CZ3       11.1440   12.4660   21.8980 C.ar   70  TRP70       0.0001
    107  CH2       12.1410   12.7820   20.9570 C.ar   70  TRP70       0.0015
@<TRIPOS>BOND
     1     7     8    1
     2     7     6    1
     3     8     9    2
     4     9    11    1
     5     9    10    1
     6    30    28   am
     7     6     5    1
     8     5     2    1
     9    28    29    2
    10    28    27    1
    11    27    26    1
    12     4     3    2
    13     2     1    1
    14     2     3    1
    15    92    91    1
    16     3    12   am
    17    91    93    1
    18    91    90    2
    19    89    90    1
    20    89    88    1
    21    26    23    1
    22    12    13    1
    23    13    14    1
    24    13    16    1
    25    15    14    2
    26    14    22   am
    27    22    23    1
    28    87    88    1
    29    87    84    1
    30    23    24    1
    31    16    17    1
    32    83    84    1
    33    84    85    1
    34    41    39    1
    35    24    25    2
    36    24    31   am
    37    17    19   ar
    38    17    18   ar
    39    39    38    2
    40    39    40    1
    41   102   100   ar
    42   102   103   ar
    43    38    37    1
    44   100    99   ar
    45    80    78   ar
    46    80    82   ar
    47    31    32    1
    48    85    86    2
    49    85    94   am
    50    19    21   ar
    51    78    77   ar
    52    18    20   ar
    53    82    81   ar
    54    94    95    1
    55    37    36    1
    56   103   105   ar
    57   103   101   ar
    58    99    98    1
    59    99   101   ar
    60    21    20   ar
    61    32    35    1
    62    32    33    1
    63   105   107   ar
    64    77    76    1
    65    77    79   ar
    66    81    79   ar
    67    98    95    1
    68    35    36    1
    69    95    96    1
    70   101   104   ar
    71    97    96    2
    72    76    73    1
    73    33    34    2
    74    49    47   ar
    75   107   106   ar
    76    46    47    1
    77    46    43    1
    78    73    74    1
    79    73    72    1
    80   104   106   ar
    81    71    70   ar
    82    71    69   ar
    83    47    48   ar
    84    70    68   ar
    85    74    75    2
    86    45    44    2
    87    69    67   ar
    88    43    44    1
    89    43    42    1
    90    57    55   ar
    91    68    65   ar
    92    67    65   ar
    93    67    66   ar
    94    55    56   ar
    95    55    54    1
    96    65    63   ar
    97    66    64   ar
    98    54    51    1
    99    51    50    1
   100    51    52    1
   101    63    64   ar
   102    63    62    1
   103    62    59    1
   104    52    53    2
   105    60    59    1
   106    60    61    2
   107    59    58    1
