@<TRIPOS>MOLECULE
tmp/4bvaB01.pdb
 173 165 0 0 0
SMALL
GASTEIGER

@<TRIPOS>ATOM
      1  N         27.1630    3.7970   12.0740 N.3    46  ARG46      -0.1245
      2  CA        26.5450    2.8590   13.0310 C.3    46  ARG46       0.1563
      3  C         27.5860    2.2310   13.9680 C.2    46  ARG46       0.2260
      4  O         28.6770    1.8820   13.5350 O.2    46  ARG46      -0.2867
      5  CB        25.7690    1.7930   12.2380 C.3    46  ARG46       0.0307
      6  CG        25.6450    0.4010   12.8380 C.3    46  ARG46       0.0489
      7  CD        25.4120   -0.6090   11.7150 C.3    46  ARG46       0.2205
      8  NE        24.0100   -0.8640   11.4920 N.pl3  46  ARG46      -0.0865
      9  CZ        23.4830   -1.3980   10.3930 C.cat  46  ARG46       0.5346
     10  NH1       24.2210   -1.7510    9.3280 N.pl3  46  ARG46       0.1354
     11  NH2       22.1770   -1.5730   10.3630 N.pl3  46  ARG46       0.1354
     12  N         28.3270   -0.9840   16.4950 N.3    48  VAL48      -0.1245
     13  CA        27.8730   -2.3610   16.7680 C.3    48  VAL48       0.1561
     14  C         28.5530   -2.8460   18.0450 C.2    48  VAL48       0.2260
     15  O         29.7850   -2.8070   18.1470 O.2    48  VAL48      -0.2867
     16  CB        28.2230   -3.3110   15.6060 C.3    48  VAL48       0.0252
     17  CG1       27.8190   -4.7470   15.9060 C.3    48  VAL48       0.0019
     18  CG2       27.5510   -2.8400   14.3280 C.3    48  VAL48       0.0019
     19  N         24.4170   -9.2980   18.4140 N.3    57  PHE57      -0.1227
     20  CA        25.0060   -7.9910   18.1260 C.3    57  PHE57       0.1736
     21  C         23.9340   -6.9410   18.3610 C.2    57  PHE57       0.2595
     22  O         22.7660   -7.1890   18.0730 O.2    57  PHE57      -0.2718
     23  CB        25.4820   -7.9090   16.6720 C.3    57  PHE57       0.0547
     24  CG        26.5220   -8.9360   16.3030 C.ar   57  PHE57      -0.0202
     25  CD1       26.1380  -10.1840   15.8280 C.ar   57  PHE57      -0.0042
     26  CD2       27.8840   -8.6550   16.4180 C.ar   57  PHE57      -0.0042
     27  CE1       27.0930  -11.1290   15.4690 C.ar   57  PHE57      -0.0003
     28  CE2       28.8440   -9.6040   16.0700 C.ar   57  PHE57      -0.0003
     29  CZ        28.4430  -10.8440   15.5910 C.ar   57  PHE57      -0.0000
     30  N         24.3320   -5.7840   18.8860 N.am   58  LEU58      -0.1966
     31  CA        23.4280   -4.6270   19.0140 C.3    58  LEU58       0.1728
     32  C         23.9600   -3.4790   18.1630 C.2    58  LEU58       0.2616
     33  O         25.0860   -3.0310   18.3780 O.2    58  LEU58      -0.2715
     34  CB        23.3410   -4.1930   20.4820 C.3    58  LEU58       0.0311
     35  CG        22.6080   -2.8730   20.7600 C.3    58  LEU58       0.0022
     36  CD1       21.1120   -2.9680   20.4890 C.3    58  LEU58       0.0001
     37  CD2       22.8630   -2.4450   22.1860 C.3    58  LEU58       0.0001
     38  N         23.1590   -3.0290   17.1920 N.am   59  GLY59      -0.1955
     39  CA        23.4850   -1.8830   16.3440 C.3    59  GLY59       0.1869
     40  C         22.8340   -0.6350   16.9070 C.2    59  GLY59       0.2309
     41  O         21.6890   -0.6740   17.3400 O.2    59  GLY59      -0.2863
     42  N         17.8180    4.5180   16.2470 N.3    74  LYS74      -0.1245
     43  CA        17.3830    3.1550   16.0550 C.3    74  LYS74       0.1561
     44  C         18.3520    2.2160   16.7550 C.2    74  LYS74       0.2260
     45  O         19.5670    2.3940   16.6810 O.2    74  LYS74      -0.2867
     46  CB        17.3030    2.8340   14.5820 C.3    74  LYS74       0.0271
     47  CG        16.6450    1.4970   14.3130 C.3    74  LYS74       0.0035
     48  CD        16.5850    1.3350   12.8330 C.3    74  LYS74       0.0206
     49  CE        16.1520   -0.0320   12.3900 C.3    74  LYS74       0.1093
     50  NZ        16.3920   -0.0590   10.9190 N.3    74  LYS74      -0.1314
     51  N         19.0390   -1.8630   16.9240 N.3    76  VAL76      -0.1231
     52  CA        18.6940   -3.0700   16.1990 C.3    76  VAL76       0.1692
     53  C         19.5360   -4.2140   16.7380 C.2    76  VAL76       0.2593
     54  O         20.7090   -4.0220   17.0800 O.2    76  VAL76      -0.2718
     55  CB        18.8560   -2.8780   14.6630 C.3    76  VAL76       0.0266
     56  CG1       20.2300   -2.3430   14.3030 C.3    76  VAL76       0.0020
     57  CG2       18.5850   -4.1680   13.9190 C.3    76  VAL76       0.0020
     58  N         18.9320   -5.3980   16.8270 N.am   77  THR77      -0.1939
     59  CA        19.6680   -6.5770   17.2520 C.3    77  THR77       0.2028
     60  C         19.6210   -7.6540   16.1800 C.2    77  THR77       0.2642
     61  O         18.6470   -7.7560   15.4220 O.2    77  THR77      -0.2714
     62  CB        19.1580   -7.1460   18.6000 C.3    77  THR77       0.1808
     63  OG1       17.7550   -7.4260   18.5340 O.3    77  THR77      -0.2208
     64  CG2       19.4200   -6.1700   19.7450 C.3    77  THR77       0.0379
     65  N         20.7030   -8.4150   16.0990 N.am   78  PHE78      -0.1973
     66  CA        20.7620   -9.6250   15.2810 C.3    78  PHE78       0.1639
     67  C         21.4290  -10.7540   16.0580 C.2    78  PHE78       0.2290
     68  O         22.5060  -10.5790   16.6170 O.2    78  PHE78      -0.2864
     69  CB        21.5350   -9.3930   13.9810 C.3    78  PHE78       0.0560
     70  CG        21.8180  -10.6690   13.2250 C.ar   78  PHE78      -0.0200
     71  CD1       20.7880  -11.3550   12.5940 C.ar   78  PHE78      -0.0042
     72  CD2       23.0920  -11.2110   13.1990 C.ar   78  PHE78      -0.0042
     73  CE1       21.0310  -12.5460   11.9230 C.ar   78  PHE78      -0.0003
     74  CE2       23.3420  -12.3990   12.5280 C.ar   78  PHE78      -0.0003
     75  CZ        22.3130  -13.0620   11.8840 C.ar   78  PHE78      -0.0000
     76  N         15.7780  -10.9220   13.8660 N.3    83  HIS83      -0.1241
     77  CA        16.0780   -9.5070   13.6290 C.3    83  HIS83       0.1621
     78  C         14.9970   -8.7110   14.3200 C.2    83  HIS83       0.2264
     79  O         13.8200   -8.9320   14.0510 O.2    83  HIS83      -0.2867
     80  CB        16.0390   -9.1760   12.1320 C.3    83  HIS83       0.0745
     81  CG        16.9310  -10.0330   11.2910 C.ar   83  HIS83       0.0817
     82  ND1       18.1730   -9.6180   10.8630 N.ar   83  HIS83      -0.2268
     83  CD2       16.7460  -11.2700   10.7720 C.ar   83  HIS83       0.1154
     84  CE1       18.7210  -10.5670   10.1240 C.ar   83  HIS83       0.1986
     85  NE2       17.8770  -11.5820   10.0600 N.ar   83  HIS83      -0.2212
     86  N         12.1340   -0.9290    9.1550 N.3   107  THR107     -0.1218
     87  CA        13.2860   -1.4910    8.4470 C.3   107  THR107      0.1862
     88  C         12.8520   -2.1010    7.1110 C.2   107  THR107      0.2287
     89  O         13.4840   -1.8700    6.0720 O.2   107  THR107     -0.2866
     90  CB        14.0280   -2.5400    9.2950 C.3   107  THR107      0.1770
     91  OG1       14.5370   -1.9230   10.4880 O.3   107  THR107     -0.2211
     92  CG2       15.1850   -3.1410    8.5130 C.3   107  THR107      0.0375
     93  N         11.5910    1.1600    4.7340 N.3   110  ARG110     -0.1245
     94  CA        12.5900    2.1320    4.2600 C.3   110  ARG110      0.1563
     95  C         13.6680    1.4900    3.4060 C.2   110  ARG110      0.2260
     96  O         14.1370    2.1130    2.4670 O.2   110  ARG110     -0.2867
     97  CB        13.1910    3.0340    5.3610 C.3   110  ARG110      0.0307
     98  CG        13.9160    2.3970    6.5410 C.3   110  ARG110      0.0489
     99  CD        15.2390    1.7410    6.1750 C.3   110  ARG110      0.2205
    100  NE        16.2150    1.7950    7.2690 N.pl3 110  ARG110     -0.0865
    101  CZ        17.3350    1.0750    7.3290 C.cat 110  ARG110      0.5346
    102  NH1       17.6260    0.1730    6.3930 N.pl3 110  ARG110      0.1354
    103  NH2       18.1640    1.2380    8.3520 N.pl3 110  ARG110      0.1354
    104  N         21.0640  -13.8810    3.3360 N.3   197  MET197     -0.1245
    105  CA        22.0910  -13.9020    4.3630 C.3   197  MET197      0.1570
    106  C         23.2890  -14.7460    3.9230 C.2   197  MET197      0.2261
    107  O         23.9580  -15.3680    4.7530 O.2   197  MET197     -0.2867
    108  CB        21.5160  -14.4370    5.6750 C.3   197  MET197      0.0387
    109  CG        20.5480  -13.4820    6.3490 C.3   197  MET197      0.0595
    110  SD        21.4160  -12.2180    7.2870 S.3   197  MET197     -0.1393
    111  CE        22.0740  -13.1950    8.6290 C.3   197  MET197      0.0692
    112  N         21.6000   -5.8710   -1.1470 N.3   217  VAL217     -0.1245
    113  CA        21.0090   -5.4580    0.1410 C.3   217  VAL217      0.1561
    114  C         21.4750   -6.3340    1.3070 C.2   217  VAL217      0.2260
    115  O         21.4620   -5.8900    2.4600 O.2   217  VAL217     -0.2867
    116  CB        19.4600   -5.4330    0.0480 C.3   217  VAL217      0.0252
    117  CG1       18.8120   -5.0320    1.3680 C.3   217  VAL217      0.0019
    118  CG2       18.9940   -4.4920   -1.0610 C.3   217  VAL217      0.0019
    119  N         25.4570   -7.9330    5.0790 N.3   220  SER220     -0.1202
    120  CA        25.5790   -6.7030    5.8400 C.3   220  SER220      0.2020
    121  C         26.5950   -6.8320    6.9750 C.2   220  SER220      0.2619
    122  O         26.2830   -6.5450    8.1300 O.2   220  SER220     -0.2717
    123  CB        24.2170   -6.3410    6.4140 C.3   220  SER220      0.2103
    124  OG        23.7420   -7.3980    7.2300 O.3   220  SER220     -0.2182
    125  N         27.8050   -7.2600    6.6330 N.am  221  ARG221     -0.1965
    126  CA        28.8730   -7.4680    7.5980 C.3   221  ARG221      0.1714
    127  C         30.1770   -7.4350    6.8070 C.2   221  ARG221      0.2458
    128  O         30.1900   -7.8470    5.6510 O.2   221  ARG221     -0.2730
    129  CB        28.6870   -8.8320    8.2580 C.3   221  ARG221      0.0347
    130  CG        28.6390   -8.7810    9.7610 C.3   221  ARG221      0.0492
    131  CD        28.2880  -10.1450   10.3290 C.3   221  ARG221      0.2205
    132  NE        29.4410  -11.0350   10.3300 N.pl3 221  ARG221     -0.0865
    133  CZ        29.5640  -12.1120   11.1050 C.cat 221  ARG221      0.5346
    134  NH1       28.6000  -12.4520   11.9500 N.pl3 221  ARG221      0.1354
    135  NH2       30.6590  -12.8590   11.0350 N.pl3 221  ARG221      0.1354
    136  N         31.2740   -6.9380    7.4020 N.am  222  PRO222     -0.2727
    137  CA        32.4820   -6.7470    6.5830 C.3   222  PRO222      0.1402
    138  C         33.1860   -8.0380    6.1460 C.2   222  PRO222      0.2269
    139  O         34.0720   -7.9990    5.2970 O.2   222  PRO222     -0.2865
    140  CB        33.3870   -5.8830    7.4660 C.3   222  PRO222      0.0296
    141  CG        32.8740   -6.0380    8.8370 C.3   222  PRO222      0.0237
    142  CD        31.4300   -6.4030    8.7660 C.3   222  PRO222      0.0939
    143  N         31.2840  -10.6860    5.0410 N.3   224  TRP224     -0.1241
    144  CA        30.2530  -11.3840    4.2710 C.3   224  TRP224      0.1605
    145  C         30.0730  -10.7610    2.8840 C.2   224  TRP224      0.2264
    146  O         30.2240   -9.5500    2.7160 O.2   224  TRP224     -0.2867
    147  CB        28.9180  -11.3290    5.0050 C.3   224  TRP224      0.0550
    148  CG        28.8010  -12.2370    6.1990 C.ar  224  TRP224      0.0003
    149  CD1       29.7750  -13.0240    6.7420 C.ar  224  TRP224      0.0946
    150  CD2       27.6390  -12.4270    7.0070 C.ar  224  TRP224      0.0152
    151  NE1       29.2850  -13.7090    7.8280 N.ar  224  TRP224     -0.2442
    152  CE2       27.9780  -13.3540    8.0200 C.ar  224  TRP224      0.0810
    153  CE3       26.3410  -11.9000    6.9790 C.ar  224  TRP224      0.0012
    154  CZ2       27.0650  -13.7700    8.9950 C.ar  224  TRP224      0.0191
    155  CZ3       25.4280  -12.3210    7.9480 C.ar  224  TRP224      0.0001
    156  CH2       25.8020  -13.2430    8.9450 C.ar  224  TRP224      0.0015
    157  N         31.3760   -1.6710    6.6640 N.3   248  GLU248     -0.1245
    158  CA        30.4020   -2.7230    6.9180 C.3   248  GLU248      0.1567
    159  C         30.1930   -3.7060    5.7870 C.2   248  GLU248      0.2260
    160  O         29.7190   -4.8050    6.0460 O.2   248  GLU248     -0.2867
    161  CB        29.0400   -2.1200    7.2610 C.3   248  GLU248      0.0388
    162  CG        29.0560   -1.1080    8.3850 C.3   248  GLU248      0.1160
    163  CD        27.6610   -0.6760    8.8170 C.2   248  GLU248      0.3649
    164  OE1       26.7370   -0.6260    7.9880 O.co2 248  GLU248     -0.2457
    165  OE2       27.4870   -0.3740   10.0100 O.co2 248  GLU248     -0.2457
    166  N         23.4710   -0.5850    2.7970 N.3   284  LEU284     -0.1245
    167  CA        23.7060   -0.9750    4.1920 C.3   284  LEU284      0.1561
    168  C         22.5950   -0.4900    5.1230 C.2   284  LEU284      0.2260
    169  O         22.3500   -1.0910    6.1800 O.2   284  LEU284     -0.2867
    170  CB        25.0530   -0.4210    4.6620 C.3   284  LEU284      0.0270
    171  CG        26.2760   -1.1450    4.1040 C.3   284  LEU284      0.0019
    172  CD1       27.5260   -0.3820    4.4490 C.3   284  LEU284      0.0001
    173  CD2       26.3920   -2.5660    4.6310 C.3   284  LEU284      0.0001
@<TRIPOS>BOND
     1   112   113    1
     2   118   116    1
     3   116   113    1
     4   116   117    1
     5   113   114    1
     6   114   115    2
     7    96    95    2
     8   146   145    2
     9   166   167    1
    10   145   144    1
    11   104   105    1
    12    95    94    1
    13   106   105    1
    14   106   107    2
    15   171   172    1
    16   171   173    1
    17   171   170    1
    18   167   170    1
    19   167   168    1
    20    94    93    1
    21    94    97    1
    22   144   147    1
    23   144   143    1
    24   105   108    1
    25   147   148    1
    26   119   120    1
    27   168   169    2
    28   139   138    2
    29    97    98    1
    30   128   127    2
    31   108   109    1
    32   159   160    2
    33   159   158    1
    34   120   123    1
    35   120   121    1
    36    89    88    2
    37   138   137    1
    38    99    98    1
    39    99   100    1
    40   148   149   ar
    41   148   150   ar
    42   109   110    1
    43   102   101    1
    44   123   124    1
    45   137   136    1
    46   137   140    1
    47   125   121   am
    48   125   126    1
    49   157   158    1
    50   149   151   ar
    51   127   136   am
    52   127   126    1
    53   158   161    1
    54   121   122    2
    55   153   150   ar
    56   153   155   ar
    57   150   152   ar
    58    88    87    1
    59   161   162    1
    60   100   101    2
    61   110   111    1
    62   101   103    1
    63   136   142    1
    64   140   141    1
    65   126   129    1
    66   151   152   ar
    67   155   156   ar
    68   164   163   ar
    69   152   154   ar
    70   129   130    1
    71   162   163    1
    72    87    86    1
    73    87    90    1
    74    92    90    1
    75   142   141    1
    76   163   165   ar
    77   156   154   ar
    78    90    91    1
    79    10     9    1
    80   130   131    1
    81    85    84   ar
    82    85    83   ar
    83    84    82   ar
    84   131   132    1
    85   132   133    2
    86    11     9    1
    87     9     8    2
    88    83    81   ar
    89    82    81   ar
    90    50    49    1
    91   135   133    1
    92   133   134    1
    93    81    80    1
    94     8     7    1
    95     7     6    1
    96    75    73   ar
    97    75    74   ar
    98    73    71   ar
    99     1     2    1
   100    80    77    1
   101     5     6    1
   102     5     2    1
   103    49    48    1
   104    74    72   ar
   105    71    70   ar
   106    48    47    1
   107     2     3    1
   108    72    70   ar
   109    70    69    1
   110     4     3    2
   111    77    76    1
   112    77    78    1
   113    57    55    1
   114    69    66    1
   115    79    78    2
   116    56    55    1
   117    47    46    1
   118    18    16    1
   119    46    43    1
   120    55    52    1
   121    66    67    1
   122    66    65    1
   123    61    60    2
   124    27    29   ar
   125    27    25   ar
   126    29    28   ar
   127    16    17    1
   128    16    13    1
   129    25    24   ar
   130    43    42    1
   131    43    44    1
   132    67    68    2
   133    28    26   ar
   134    65    60   am
   135    60    59    1
   136    52    53    1
   137    52    51    1
   138    24    26   ar
   139    24    23    1
   140    39    40    1
   141    39    38    1
   142    12    13    1
   143    23    20    1
   144    45    44    2
   145    53    58   am
   146    53    54    2
   147    13    14    1
   148    58    59    1
   149    40    41    2
   150    38    32   am
   151    59    62    1
   152    14    15    2
   153    22    21    2
   154    20    21    1
   155    20    19    1
   156    32    33    2
   157    32    31    1
   158    21    30   am
   159    63    62    1
   160    62    64    1
   161    30    31    1
   162    31    34    1
   163    34    35    1
   164    36    35    1
   165    35    37    1
