@<TRIPOS>MOLECULE
tmp/4bvbA01.pdb
 193 185 0 0 0
SMALL
GASTEIGER

@<TRIPOS>ATOM
      1  N          9.5470  -16.1460   -5.8030 N.3    24  GLY24      -0.1210
      2  CA         9.4390  -15.1860   -4.6990 C.3    24  GLY24       0.1956
      3  C          7.9630  -15.0770   -4.2600 C.2    24  GLY24       0.2612
      4  O          7.1060  -15.9530   -4.5940 O.2    24  GLY24      -0.2717
      5  N          7.6320  -13.9530   -3.6330 N.am   25  ALA25      -0.1965
      6  CA         6.3300  -13.8010   -2.9280 C.3    25  ALA25       0.1728
      7  C          5.1270  -13.8020   -3.8480 C.2    25  ALA25       0.2616
      8  O          3.9600  -14.1380   -3.4310 O.2    25  ALA25      -0.2715
      9  CB         6.3260  -12.5580   -2.0400 C.3    25  ALA25       0.0334
     10  N          5.3960  -13.4770   -5.1220 N.am   26  GLY26      -0.1955
     11  CA         4.3070  -13.4610   -6.0900 C.3    26  GLY26       0.1869
     12  C          3.6540  -14.8090   -6.3510 C.2    26  GLY26       0.2309
     13  O          2.5050  -14.8310   -6.8260 O.2    26  GLY26      -0.2863
     14  N          0.8100  -14.9740   -3.4710 N.3    29  THR29      -0.1204
     15  CA        -0.3520  -14.0980   -3.5120 C.3    29  THR29       0.1979
     16  C         -1.6630  -14.8260   -3.9070 C.2    29  THR29       0.2459
     17  O         -2.7120  -14.5500   -3.3280 O.2    29  THR29      -0.2732
     18  CB        -0.1310  -12.8360   -4.3300 C.3    29  THR29       0.1783
     19  OG1        0.2160  -13.2300   -5.6490 O.3    29  THR29      -0.2211
     20  CG2        0.9980  -12.0470   -3.7510 C.3    29  THR29       0.0376
     21  N         -1.6060  -15.7700   -4.8810 N.am   30  PRO30      -0.2728
     22  CA        -2.8800  -16.5510   -5.0770 C.3    30  PRO30       0.1401
     23  C         -3.3450  -17.4170   -3.8950 C.2    30  PRO30       0.2269
     24  O         -4.5360  -17.7420   -3.8660 O.2    30  PRO30      -0.2865
     25  CB        -2.5520  -17.4580   -6.2730 C.3    30  PRO30       0.0296
     26  CG        -1.3660  -16.7530   -6.9660 C.3    30  PRO30       0.0237
     27  CD        -0.5440  -16.3030   -5.7560 C.3    30  PRO30       0.0939
     28  N          2.5380  -10.1130   -1.1280 N.3    35  ASP35      -0.1225
     29  CA         3.9560   -9.9310   -1.4860 C.3    35  ASP35       0.1805
     30  C          4.4460   -8.6610   -0.7880 C.2    35  ASP35       0.2598
     31  O          3.7670   -8.1370    0.1050 O.2    35  ASP35      -0.2718
     32  CB         4.1130   -9.8850   -3.0300 C.3    35  ASP35       0.1424
     33  CG         3.4880   -8.6550   -3.6810 C.2    35  ASP35       0.3668
     34  OD1        3.0010   -7.6560   -2.9990 O.co2  35  ASP35      -0.2456
     35  OD2        3.4470   -8.7090   -4.9130 O.co2  35  ASP35      -0.2456
     36  N          5.5820   -8.1310   -1.2050 N.am   36  PHE36      -0.1962
     37  CA         6.0730   -6.9700   -0.5200 C.3    36  PHE36       0.1771
     38  C          5.7470   -5.6760   -1.1960 C.2    36  PHE36       0.2619
     39  O          5.3900   -4.6850   -0.5060 O.2    36  PHE36      -0.2715
     40  CB         7.5890   -7.0760   -0.3090 C.3    36  PHE36       0.0574
     41  CG         7.9760   -8.1010    0.6890 C.ar   36  PHE36      -0.0200
     42  CD1        8.2400   -9.4040    0.2880 C.ar   36  PHE36      -0.0042
     43  CD2        8.2210   -7.7300    2.0110 C.ar   36  PHE36      -0.0042
     44  CE1        8.6400  -10.3670    1.2560 C.ar   36  PHE36      -0.0003
     45  CE2        8.6350   -8.6630    2.9650 C.ar   36  PHE36      -0.0003
     46  CZ         8.8220  -10.0020    2.5620 C.ar   36  PHE36      -0.0000
     47  N          5.8160   -5.6790   -2.5340 N.am   37  ARG37      -0.1963
     48  CA         6.0100   -4.4790   -3.2960 C.3    37  ARG37       0.1729
     49  C          4.8050   -4.1370   -4.2010 C.2    37  ARG37       0.2616
     50  O          4.8180   -3.0800   -4.7840 O.2    37  ARG37      -0.2715
     51  CB         7.3280   -4.5810   -4.1360 C.3    37  ARG37       0.0348
     52  CG         8.6070   -4.6170   -3.2760 C.3    37  ARG37       0.0492
     53  CD         9.9800   -4.7760   -4.0120 C.3    37  ARG37       0.2205
     54  NE        11.0590   -4.6690   -2.9650 N.pl3  37  ARG37      -0.0865
     55  CZ        11.5040   -5.6590   -2.1610 C.cat  37  ARG37       0.5346
     56  NH1       11.0590   -6.9270   -2.2540 N.pl3  37  ARG37       0.1354
     57  NH2       12.4500   -5.4140   -1.2500 N.pl3  37  ARG37       0.1354
     58  N          3.7760   -4.9990   -4.3060 N.am   38  SER38      -0.1950
     59  CA         2.6560   -4.6790   -5.1450 C.3    38  SER38       0.1924
     60  C          1.9890   -3.4310   -4.5810 C.2    38  SER38       0.2314
     61  O          1.7880   -3.3460   -3.3400 O.2    38  SER38      -0.2863
     62  CB         1.6680   -5.8250   -5.2260 C.3    38  SER38       0.2116
     63  OG         2.2540   -6.8910   -6.0080 O.3    38  SER38      -0.2180
     64  N         12.7050  -17.6050   -2.1650 N.3   107  GLN107     -0.1231
     65  CA        12.7890  -16.5440   -1.1790 C.3   107  GLN107      0.1698
     66  C         11.6850  -16.5420   -0.1850 C.2   107  GLN107      0.2592
     67  O         11.6800  -15.6710    0.6660 O.2   107  GLN107     -0.2718
     68  CB        12.7850  -15.2060   -1.9170 C.3   107  GLN107      0.0381
     69  CG        13.9940  -15.1400   -2.8450 C.3   107  GLN107      0.0905
     70  CD        13.8010  -14.0540   -3.9060 C.2   107  GLN107      0.2608
     71  OE1       14.3760  -12.9620   -3.7950 O.2   107  GLN107     -0.2717
     72  NE2       12.9440  -14.3300   -4.9060 N.am  107  GLN107     -0.0878
     73  N         10.7120  -17.4700   -0.3010 N.am  108  ASN108     -0.1974
     74  CA         9.5500  -17.4420    0.6030 C.3   108  ASN108      0.1688
     75  C          9.7840  -18.1950    1.8810 C.2   108  ASN108      0.2292
     76  O         10.5290  -19.1870    1.8810 O.2   108  ASN108     -0.2864
     77  CB         8.2690  -17.9850   -0.0690 C.3   108  ASN108      0.1181
     78  CG         7.8440  -17.1520   -1.2840 C.2   108  ASN108      0.2629
     79  OD1        8.3470  -16.0260   -1.4760 O.2   108  ASN108     -0.2716
     80  ND2        6.9600  -17.7460   -2.1490 N.am  108  ASN108     -0.0877
     81  N         15.6500  -17.8710    2.1920 N.3   127  HIS127     -0.1241
     82  CA        15.3650  -16.9420    3.3070 C.3   127  HIS127      0.1621
     83  C         14.9400  -17.6180    4.6070 C.2   127  HIS127      0.2264
     84  O         14.3490  -16.9670    5.4960 O.2   127  HIS127     -0.2867
     85  CB        14.3730  -15.8220    2.8900 C.3   127  HIS127      0.0745
     86  CG        14.9540  -14.8840    1.8810 C.ar  127  HIS127      0.0817
     87  ND1       14.2020  -13.9850    1.1750 N.ar  127  HIS127     -0.2268
     88  CD2       16.2140  -14.7530    1.4150 C.ar  127  HIS127      0.1154
     89  CE1       14.9710  -13.3070    0.3430 C.ar  127  HIS127      0.1986
     90  NE2       16.1980  -13.7560    0.4690 N.ar  127  HIS127     -0.2212
     91  N         15.4720  -15.4300    7.5640 N.3   171  VAL171     -0.1245
     92  CA        16.5760  -14.5360    7.2810 C.3   171  VAL171      0.1561
     93  C         16.0710  -13.1120    7.2250 C.2   171  VAL171      0.2260
     94  O         15.4300  -12.6870    6.2180 O.2   171  VAL171     -0.2867
     95  CB        17.2430  -14.8980    5.9360 C.3   171  VAL171      0.0252
     96  CG1       18.3440  -13.8780    5.5970 C.3   171  VAL171      0.0019
     97  CG2       17.7990  -16.3590    6.0140 C.3   171  VAL171      0.0019
     98  N         16.1600   -9.0800    6.8020 N.3   173  PHE173     -0.1241
     99  CA        16.7100   -8.3250    5.6710 C.3   173  PHE173      0.1605
    100  C         18.1660   -7.9760    5.9440 C.2   173  PHE173      0.2264
    101  O         18.4850   -7.4270    6.9890 O.2   173  PHE173     -0.2867
    102  CB        15.9190   -7.0350    5.4450 C.3   173  PHE173      0.0534
    103  CG        14.5470   -7.2410    4.8480 C.ar  173  PHE173     -0.0203
    104  CD1       13.9530   -8.5390    4.7570 C.ar  173  PHE173     -0.0042
    105  CD2       13.8080   -6.1190    4.4110 C.ar  173  PHE173     -0.0042
    106  CE1       12.6910   -8.7020    4.1960 C.ar  173  PHE173     -0.0003
    107  CE2       12.5420   -6.2810    3.8640 C.ar  173  PHE173     -0.0003
    108  CZ        12.0010   -7.5760    3.7450 C.ar  173  PHE173     -0.0000
    109  N          7.1770  -15.0180  -10.0590 N.3   198  GLY198     -0.1210
    110  CA         6.6220  -14.2520   -8.9060 C.3   198  GLY198      0.1956
    111  C          7.7070  -13.6440   -8.0300 C.2   198  GLY198      0.2613
    112  O          7.6400  -13.7610   -6.8260 O.2   198  GLY198     -0.2717
    113  N          8.6970  -12.9980   -8.6240 N.am  199  THR199     -0.1938
    114  CA         9.6980  -12.2800   -7.8650 C.3   199  THR199      0.2028
    115  C         10.0250  -10.9770   -8.6440 C.2   199  THR199      0.2643
    116  O         10.0140  -10.9590   -9.8680 O.2   199  THR199     -0.2714
    117  CB        10.9540  -13.0940   -7.5090 C.3   199  THR199      0.1808
    118  OG1       11.9440  -12.2200   -6.9000 O.3   199  THR199     -0.2208
    119  CG2       11.5980  -13.7480   -8.7750 C.3   199  THR199      0.0379
    120  N         10.2080   -9.8810   -7.9020 N.am  200  SER200     -0.1935
    121  CA        10.6650   -8.6130   -8.4850 C.3   200  SER200      0.2055
    122  C         12.1920   -8.6260   -8.8110 C.2   200  SER200      0.2642
    123  O         12.7120   -7.7140   -9.5160 O.2   200  SER200     -0.2714
    124  CB        10.4010   -7.5080   -7.4610 C.3   200  SER200      0.2130
    125  OG        11.2880   -7.6670   -6.3130 O.3   200  SER200     -0.2179
    126  N         12.9270   -9.6010   -8.2850 N.am  201  LEU201     -0.1977
    127  CA        14.3990   -9.6730   -8.5760 C.3   201  LEU201      0.1596
    128  C         15.1310   -8.3470   -8.2130 C.2   201  LEU201      0.2287
    129  O         16.0140   -7.8980   -8.9380 O.2   201  LEU201     -0.2864
    130  CB        14.6490  -10.0250  -10.0440 C.3   201  LEU201      0.0297
    131  CG        14.2210  -11.4100  -10.5550 C.3   201  LEU201      0.0022
    132  CD1       14.5760  -11.6490  -12.0340 C.3   201  LEU201      0.0001
    133  CD2       14.7880  -12.5430   -9.6880 C.3   201  LEU201      0.0001
    134  N         16.2670   -8.0220   -4.8360 N.3   203  VAL203     -0.1245
    135  CA        17.0660   -8.3050   -3.6800 C.3   203  VAL203      0.1561
    136  C         18.1890   -9.2650   -4.1210 C.2   203  VAL203      0.2260
    137  O         17.8970  -10.3000   -4.7380 O.2   203  VAL203     -0.2867
    138  CB        16.1160   -8.8220   -2.5640 C.3   203  VAL203      0.0252
    139  CG1       16.8610   -9.1810   -1.3010 C.3   203  VAL203      0.0019
    140  CG2       15.0740   -7.7290   -2.2320 C.3   203  VAL203      0.0019
    141  N          5.5630  -13.8080  -14.5500 N.3   223  ASN223     -0.1225
    142  CA         5.4640  -12.7680  -13.5260 C.3   223  ASN223      0.1785
    143  C          4.5470  -11.6670  -14.0710 C.2   223  ASN223      0.2597
    144  O          4.3680  -11.5910  -15.2920 O.2   223  ASN223     -0.2718
    145  CB         6.8540  -12.1710  -13.2430 C.3   223  ASN223      0.1169
    146  CG         6.9150  -11.4390  -11.8960 C.2   223  ASN223      0.2627
    147  OD1        6.4980  -12.0110  -10.8600 O.2   223  ASN223     -0.2716
    148  ND2        7.4350  -10.1890  -11.8820 N.am  223  ASN223     -0.0877
    149  N          3.9840  -10.8380  -13.1800 N.am  224  ARG224     -0.1966
    150  CA         3.2770   -9.6130  -13.5860 C.3   224  ARG224      0.1729
    151  C          4.0980   -8.7400  -14.5520 C.2   224  ARG224      0.2616
    152  O          3.5870   -8.2520  -15.5480 O.2   224  ARG224     -0.2715
    153  CB         2.9110   -8.7660  -12.3540 C.3   224  ARG224      0.0348
    154  CG         2.2750   -7.4130  -12.6930 C.3   224  ARG224      0.0492
    155  CD         1.0140   -7.6430  -13.4980 C.3   224  ARG224      0.2205
    156  NE         0.1640   -8.5990  -12.7920 N.pl3 224  ARG224     -0.0865
    157  CZ        -0.9250   -9.1780  -13.2880 C.cat 224  ARG224      0.5346
    158  NH1       -1.3400   -8.8940  -14.5160 N.pl3 224  ARG224      0.1354
    159  NH2       -1.6130  -10.0020  -12.5100 N.pl3 224  ARG224      0.1354
    160  N          5.3630   -8.4970  -14.2240 N.am  225  ASP225     -0.1971
    161  CA         6.2010   -7.5690  -15.0130 C.3   225  ASP225      0.1709
    162  C          7.5520   -8.1570  -15.3750 C.2   225  ASP225      0.2293
    163  O          8.0380   -9.0340  -14.6960 O.2   225  ASP225     -0.2864
    164  CB         6.5890   -6.3130  -14.2470 C.3   225  ASP225      0.1436
    165  CG         5.5270   -5.7860  -13.4020 C.2   225  ASP225      0.3671
    166  OD1        4.5030   -5.3170  -13.9700 O.co2 225  ASP225     -0.2456
    167  OD2        5.7450   -5.8360  -12.1590 O.co2 225  ASP225     -0.2456
    168  N         11.3700   -7.9820  -15.1610 N.3   227  VAL227     -0.1245
    169  CA        12.1010   -7.4730  -14.0160 C.3   227  VAL227      0.1561
    170  C         13.5570   -7.8750  -13.9110 C.2   227  VAL227      0.2260
    171  O         13.9650   -8.8960  -14.4580 O.2   227  VAL227     -0.2867
    172  CB        11.4350   -7.9010  -12.6650 C.3   227  VAL227      0.0252
    173  CG1       10.0430   -7.2420  -12.4900 C.3   227  VAL227      0.0019
    174  CG2       11.3170   -9.4410  -12.5430 C.3   227  VAL227      0.0019
    175  N          1.8200  -11.3570  -16.8580 N.3   243  GLY243     -0.1210
    176  CA         0.4090  -11.4810  -16.4480 C.3   243  GLY243      0.1956
    177  C          0.3250  -12.2690  -15.1350 C.2   243  GLY243      0.2612
    178  O          1.3460  -12.5280  -14.4820 O.2   243  GLY243     -0.2717
    179  N         -0.8950  -12.5780  -14.7140 N.am  244  ASP244     -0.1959
    180  CA        -1.1150  -13.3150  -13.4920 C.3   244  ASP244      0.1840
    181  C         -0.2880  -14.6170  -13.5540 C.2   244  ASP244      0.2621
    182  O         -0.2530  -15.3210  -14.6180 O.2   244  ASP244     -0.2715
    183  CB        -2.6170  -13.6520  -13.3350 C.3   244  ASP244      0.1450
    184  CG        -2.8760  -14.5290  -12.1500 C.2   244  ASP244      0.3671
    185  OD1       -2.8870  -14.0760  -10.9880 O.co2 244  ASP244     -0.2456
    186  OD2       -3.0040  -15.7300  -12.3490 O.co2 244  ASP244     -0.2456
    187  N          0.3170  -14.9780  -12.4320 N.am  245  VAL245     -0.1977
    188  CA         1.2140  -16.1620  -12.3990 C.3   245  VAL245      0.1596
    189  C          0.4730  -17.4950  -12.5600 C.2   245  VAL245      0.2287
    190  O          0.9960  -18.4420  -13.2020 O.2   245  VAL245     -0.2864
    191  CB         2.1290  -16.2050  -11.1550 C.3   245  VAL245      0.0276
    192  CG1        1.3160  -16.4560   -9.8570 C.3   245  VAL245      0.0022
    193  CG2        3.2510  -17.2320  -11.3650 C.3   245  VAL245      0.0022
@<TRIPOS>BOND
     1   175   176    1
     2   176   177    1
     3   152   151    2
     4   162   161    1
     5   162   163    2
     6   144   143    2
     7   168   169    1
     8   177   179   am
     9   177   178    2
    10   161   164    1
    11   161   160    1
    12   179   180    1
    13   182   181    2
    14   151   160   am
    15   151   150    1
    16   141   142    1
    17   158   157    1
    18   171   170    2
    19   164   165    1
    20   143   142    1
    21   143   149   am
    22   169   170    1
    23   169   172    1
    24   166   165   ar
    25   150   149    1
    26   150   153    1
    27   181   180    1
    28   181   187   am
    29   142   145    1
    30   155   156    1
    31   155   154    1
    32   180   183    1
    33   165   167   ar
    34   183   184    1
    35   157   156    2
    36   157   159    1
    37   145   146    1
    38   190   189    2
    39   154   153    1
    40   172   174    1
    41   172   173    1
    42   189   188    1
    43   187   188    1
    44   188   191    1
    45   186   184   ar
    46   184   185   ar
    47   132   131    1
    48   146   148   am
    49   146   147    2
    50   193   191    1
    51   191   192    1
    52   131   130    1
    53   131   133    1
    54   109   110    1
    55   130   127    1
    56   116   115    2
    57   123   122    2
    58   129   128    2
    59   110   111    1
    60   122   121    1
    61   122   126   am
    62   119   117    1
    63   115   120   am
    64   115   114    1
    65   113   111   am
    66   113   114    1
    67   127   126    1
    68   127   128    1
    69   121   120    1
    70   121   124    1
    71   111   112    2
    72   114   117    1
    73   117   118    1
    74   124   125    1
    75    26    25    1
    76    26    27    1
    77    13    12    2
    78    12    11    1
    79    25    22    1
    80    11    10    1
    81    63    62    1
    82     1     2    1
    83    27    21    1
    84    19    18    1
    85    62    59    1
    86    59    60    1
    87    59    58    1
    88    10     7   am
    89    22    21    1
    90    22    23    1
    91    35    33   ar
    92    72    70   am
    93    21    16   am
    94   134   135    1
    95    50    49    2
    96   137   136    2
    97     2     3    1
    98     4     3    2
    99    60    61    2
   100    18    20    1
   101    18    15    1
   102    58    49   am
   103     3     5   am
   104    49    48    1
   105    51    48    1
   106    51    52    1
   107   136   135    1
   108    53    52    1
   109    53    54    1
   110    16    15    1
   111    16    17    2
   112    70    71    2
   113    70    69    1
   114    23    24    2
   115     7     8    2
   116     7     6    1
   117    33    32    1
   118    33    34   ar
   119   135   138    1
   120     5     6    1
   121    15    14    1
   122    48    47    1
   123    32    29    1
   124    54    55    2
   125     6     9    1
   126    69    68    1
   127   138   140    1
   128   138   139    1
   129    47    38   am
   130    56    55    1
   131    64    65    1
   132    55    57    1
   133    80    78   am
   134    68    65    1
   135    29    28    1
   136    29    30    1
   137    79    78    2
   138    78    77    1
   139    36    30   am
   140    36    37    1
   141    38    37    1
   142    38    39    2
   143    65    66    1
   144    30    31    2
   145    37    40    1
   146    40    41    1
   147    73    66   am
   148    73    74    1
   149    66    67    2
   150    77    74    1
   151    42    41   ar
   152    42    44   ar
   153    89    90   ar
   154    89    87   ar
   155    90    88   ar
   156    74    75    1
   157    41    43   ar
   158    87    86   ar
   159    44    46   ar
   160    88    86   ar
   161    75    76    2
   162    86    85    1
   163    43    45   ar
   164    81    82    1
   165    46    45   ar
   166    85    82    1
   167    82    83    1
   168   108   107   ar
   169   108   106   ar
   170   107   105   ar
   171   106   104   ar
   172   105   103   ar
   173    83    84    2
   174   104   103   ar
   175   103   102    1
   176   102    99    1
   177    96    95    1
   178    99   100    1
   179    99    98    1
   180    95    97    1
   181    95    92    1
   182   100   101    2
   183    94    93    2
   184    93    92    1
   185    92    91    1
