@<TRIPOS>MOLECULE
tmp/4bvcA00.pdb
 108 108 0 0 0
SMALL
GASTEIGER

@<TRIPOS>ATOM
      1  N         -1.6060   -3.2370    0.4180 N.3    34  HIS34      -0.1226
      2  CA        -2.9490   -2.8690    0.8220 C.3    34  HIS34       0.1752
      3  C         -3.0130   -1.3710    1.0670 C.2    34  HIS34       0.2596
      4  O         -1.9930   -0.6860    1.0040 O.2    34  HIS34      -0.2718
      5  CB        -3.3190   -3.6210    2.1000 C.3    34  HIS34       0.0759
      6  CG        -2.5170   -3.1940    3.2880 C.ar   34  HIS34       0.0818
      7  ND1       -2.9440   -2.2120    4.1510 N.ar   34  HIS34      -0.2268
      8  CD2       -1.2980   -3.5760    3.7280 C.ar   34  HIS34       0.1154
      9  CE1       -2.0360   -2.0280    5.0910 C.ar   34  HIS34       0.1986
     10  NE2       -1.0250   -2.8410    4.8550 N.ar   34  HIS34      -0.2212
     11  N         -4.2010   -0.8880    1.3800 N.am   35  GLN35      -0.1965
     12  CA        -4.4470    0.5320    1.5430 C.3    35  GLN35       0.1733
     13  C         -4.8280    0.9030    2.9650 C.2    35  GLN35       0.2616
     14  O         -5.0470    2.0510    3.2660 O.2    35  GLN35      -0.2715
     15  CB        -5.5580    0.9840    0.5900 C.3    35  GLN35       0.0408
     16  CG        -5.1350    0.9160   -0.8670 C.3    35  GLN35       0.0908
     17  CD        -6.2920    1.1160   -1.8040 C.2    35  GLN35       0.2608
     18  OE1       -6.8180    2.2060   -1.9170 O.2    35  GLN35      -0.2717
     19  NE2       -6.6980    0.0470   -2.4660 N.am   35  GLN35      -0.0878
     20  N         -4.9590   -0.0970    3.8180 N.am   36  ARG36      -0.1977
     21  CA        -5.4450    0.1230    5.1670 C.3    36  ARG36       0.1597
     22  C         -4.2870    0.5060    6.0930 C.2    36  ARG36       0.2287
     23  O         -3.9530   -0.2050    7.0150 O.2    36  ARG36      -0.2864
     24  CB        -6.1600   -1.1320    5.6680 C.3    36  ARG36       0.0334
     25  CG        -6.8060   -0.9770    7.0150 C.3    36  ARG36       0.0492
     26  CD        -7.9160    0.0590    6.9840 C.3    36  ARG36       0.2205
     27  NE        -9.0450   -0.3490    6.1570 N.pl3  36  ARG36      -0.0865
     28  CZ       -10.1810    0.3290    6.0890 C.cat  36  ARG36       0.5346
     29  NH1      -10.3100    1.4370    6.7870 N.pl3  36  ARG36       0.1354
     30  NH2      -11.1720   -0.0910    5.3260 N.pl3  36  ARG36       0.1354
     31  N         -5.6880    6.0620    7.3720 N.3    41  TYR41      -0.1241
     32  CA        -6.7520    5.8800    8.3570 C.3    41  TYR41       0.1605
     33  C         -6.2710    6.2360    9.7740 C.2    41  TYR41       0.2264
     34  O         -6.0410    5.3490   10.5980 O.2    41  TYR41      -0.2867
     35  CB        -7.2590    4.4350    8.2700 C.3    41  TYR41       0.0534
     36  CG        -7.8990    4.1700    6.9250 C.ar   41  TYR41      -0.0201
     37  CD1       -9.1870    4.6160    6.6610 C.ar   41  TYR41      -0.0009
     38  CD2       -7.1970    3.5450    5.8960 C.ar   41  TYR41      -0.0009
     39  CE1       -9.7800    4.4160    5.4270 C.ar   41  TYR41       0.0417
     40  CE2       -7.7820    3.3380    4.6520 C.ar   41  TYR41       0.0417
     41  CZ        -9.0730    3.7760    4.4230 C.ar   41  TYR41       0.1957
     42  OH        -9.6660    3.5820    3.1910 O.3    41  TYR41      -0.2866
     43  N        -12.9820   -1.4420    9.5230 N.3    55  ASP55      -0.1239
     44  CA       -13.9370   -1.4270    8.4210 C.3    55  ASP55       0.1674
     45  C        -15.2780   -2.0560    8.7800 C.2    55  ASP55       0.2266
     46  O        -16.0120   -2.5220    7.9000 O.2    55  ASP55      -0.2867
     47  CB       -13.3300   -2.0930    7.1790 C.3    55  ASP55       0.1410
     48  CG       -13.0530   -3.5710    7.3690 C.2    55  ASP55       0.3668
     49  OD1      -13.0440   -4.0480    8.5250 O.co2  55  ASP55      -0.2456
     50  OD2      -12.8450   -4.2570    6.3460 O.co2  55  ASP55      -0.2456
     51  N        -16.1090   -4.8040   10.1820 N.3    57  ASP57      -0.1239
     52  CA       -16.2830   -6.2290   10.0690 C.3    57  ASP57       0.1674
     53  C        -16.8680   -6.6770   11.4030 C.2    57  ASP57       0.2266
     54  O        -17.3680   -5.8550   12.1540 O.2    57  ASP57      -0.2867
     55  CB       -14.9520   -6.9300    9.7250 C.3    57  ASP57       0.1410
     56  CG       -15.1470   -8.2380    8.9790 C.2    57  ASP57       0.3668
     57  OD1      -15.9070   -9.0650    9.4660 O.co2  57  ASP57      -0.2456
     58  OD2      -14.5270   -8.4370    7.9380 O.co2  57  ASP57      -0.2456
     59  N         -9.3060   -8.0520   13.0980 N.3    61  TRP61      -0.1241
     60  CA        -8.6480   -8.8750   12.0920 C.3    61  TRP61       0.1605
     61  C         -7.3070   -8.2250   11.7540 C.2    61  TRP61       0.2264
     62  O         -6.9670   -7.2040   12.2910 O.2    61  TRP61      -0.2867
     63  CB        -9.5120   -8.9840   10.8200 C.3    61  TRP61       0.0550
     64  CG        -9.8890   -7.6440   10.2110 C.ar   61  TRP61       0.0003
     65  CD1      -10.9670   -6.8780   10.5200 C.ar   61  TRP61       0.0946
     66  CD2       -9.1760   -6.9290    9.1970 C.ar   61  TRP61       0.0152
     67  NE1      -10.9740   -5.7340    9.7560 N.ar   61  TRP61      -0.2442
     68  CE2       -9.8760   -5.7420    8.9450 C.ar   61  TRP61       0.0810
     69  CE3       -8.0150   -7.1800    8.4850 C.ar   61  TRP61       0.0012
     70  CZ2       -9.4440   -4.8110    7.9990 C.ar   61  TRP61       0.0191
     71  CZ3       -7.5890   -6.2700    7.5700 C.ar   61  TRP61       0.0001
     72  CH2       -8.2950   -5.0990    7.3260 C.ar   61  TRP61       0.0015
     73  N         -4.1020   -8.2760    8.2730 N.3    63  PHE63      -0.1241
     74  CA        -3.3970   -8.9450    7.1860 C.3    63  PHE63       0.1605
     75  C         -2.3910   -9.8870    7.8180 C.2    63  PHE63       0.2264
     76  O         -1.8730   -9.5900    8.8930 O.2    63  PHE63      -0.2867
     77  CB        -2.6900   -7.9370    6.3010 C.3    63  PHE63       0.0534
     78  CG        -3.6170   -6.9560    5.6760 C.ar   63  PHE63      -0.0203
     79  CD1       -4.3710   -7.3140    4.5690 C.ar   63  PHE63      -0.0042
     80  CD2       -3.7610   -5.6830    6.2030 C.ar   63  PHE63      -0.0042
     81  CE1       -5.2480   -6.4130    3.9960 C.ar   63  PHE63      -0.0003
     82  CE2       -4.6270   -4.7770    5.6230 C.ar   63  PHE63      -0.0003
     83  CZ        -5.3740   -5.1440    4.5260 C.ar   63  PHE63      -0.0000
     84  N         -4.3090  -13.4980    2.7330 N.3    70  ARG70      -0.1231
     85  CA        -4.2870  -12.0370    2.8020 C.3    70  ARG70       0.1694
     86  C         -4.6780  -11.5040    4.1850 C.2    70  ARG70       0.2592
     87  O         -3.9810  -10.6590    4.7450 O.2    70  ARG70      -0.2718
     88  CB        -5.1880  -11.4300    1.7310 C.3    70  ARG70       0.0321
     89  CG        -5.1560   -9.9140    1.7040 C.3    70  ARG70       0.0489
     90  CD        -5.9200   -9.3700    0.5100 C.3    70  ARG70       0.2205
     91  NE        -5.8840   -7.9120    0.4780 N.pl3  70  ARG70      -0.0865
     92  CZ        -4.8640   -7.1750    0.0370 C.cat  70  ARG70       0.5346
     93  NH1       -3.7580   -7.7380   -0.4220 N.pl3  70  ARG70       0.1354
     94  NH2       -4.9560   -5.8560    0.0550 N.pl3  70  ARG70       0.1354
     95  N         -5.7890  -11.9830    4.7250 N.am   71  TRP71      -0.1976
     96  CA        -6.2400  -11.5180    6.0380 C.3    71  TRP71       0.1640
     97  C         -7.0470  -12.5870    6.7570 C.2    71  TRP71       0.2290
     98  O         -7.5850  -13.4990    6.1260 O.2    71  TRP71      -0.2864
     99  CB        -7.0630  -10.2270    5.9070 C.3    71  TRP71       0.0576
    100  CG        -8.4120  -10.4530    5.2980 C.ar   71  TRP71       0.0006
    101  CD1       -8.7240  -10.4840    3.9660 C.ar   71  TRP71       0.0946
    102  CD2       -9.6340  -10.7000    6.0010 C.ar   71  TRP71       0.0152
    103  NE1      -10.0620  -10.7400    3.8000 N.ar   71  TRP71      -0.2442
    104  CE2      -10.6460  -10.8700    5.0320 C.ar   71  TRP71       0.0810
    105  CE3       -9.9720  -10.7910    7.3570 C.ar   71  TRP71       0.0012
    106  CZ2      -11.9770  -11.1210    5.3770 C.ar   71  TRP71       0.0191
    107  CZ3      -11.2930  -11.0360    7.7000 C.ar   71  TRP71       0.0001
    108  CH2      -12.2800  -11.1980    6.7090 C.ar   71  TRP71       0.0015
@<TRIPOS>BOND
     1    19    17   am
     2    18    17    2
     3    17    16    1
     4    16    15    1
     5    93    92    1
     6    92    94    1
     7    92    91    2
     8     1     2    1
     9    91    90    1
    10    90    89    1
    11    15    12    1
    12     2     3    1
    13     2     5    1
    14     4     3    2
    15     3    11   am
    16    11    12    1
    17    12    13    1
    18    89    88    1
    19    88    85    1
    20     5     6    1
    21    84    85    1
    22    85    86    1
    23    13    14    2
    24    13    20   am
    25    42    41    1
    26     6     8   ar
    27     6     7   ar
    28     8    10   ar
    29   103   101   ar
    30   103   104   ar
    31    20    21    1
    32   101   100   ar
    33    81    83   ar
    34    81    79   ar
    35     7     9   ar
    36    86    95   am
    37    86    87    2
    38    41    40   ar
    39    41    39   ar
    40    83    82   ar
    41    79    78   ar
    42    40    38   ar
    43    95    96    1
    44    10     9   ar
    45   104   106   ar
    46   104   102   ar
    47    21    24    1
    48    21    22    1
    49   100    99    1
    50   100   102   ar
    51    30    28    1
    52   106   108   ar
    53    39    37   ar
    54    82    80   ar
    55    24    25    1
    56    78    80   ar
    57    78    77    1
    58    38    36   ar
    59    99    96    1
    60   102   105   ar
    61    96    97    1
    62    28    27    2
    63    28    29    1
    64    22    23    2
    65    98    97    2
    66    27    26    1
    67    77    74    1
    68    50    48   ar
    69    37    36   ar
    70   108   107   ar
    71    36    35    1
    72    26    25    1
    73    47    48    1
    74    47    44    1
    75    74    75    1
    76    74    73    1
    77    72    71   ar
    78    72    70   ar
    79   105   107   ar
    80    48    49   ar
    81    31    32    1
    82    71    69   ar
    83    75    76    2
    84    46    45    2
    85    58    56   ar
    86    70    68   ar
    87    35    32    1
    88    32    33    1
    89    44    45    1
    90    44    43    1
    91    69    66   ar
    92    68    66   ar
    93    68    67   ar
    94    56    57   ar
    95    56    55    1
    96    66    64   ar
    97    55    52    1
    98    67    65   ar
    99    33    34    2
   100    52    51    1
   101    52    53    1
   102    64    65   ar
   103    64    63    1
   104    63    60    1
   105    53    54    2
   106    61    60    1
   107    61    62    2
   108    60    59    1
