@<TRIPOS>MOLECULE
tmp/4bvdA00.pdb
 107 107 0 0 0
SMALL
GASTEIGER

@<TRIPOS>ATOM
      1  N         -0.0580    8.6790    0.6550 N.3    32  ARG32      -0.1231
      2  CA         0.0880    7.2800    0.3870 C.3    32  ARG32       0.1694
      3  C          1.5710    6.9480    0.5530 C.2    32  ARG32       0.2592
      4  O          2.4370    7.4690   -0.1330 O.2    32  ARG32      -0.2718
      5  CB        -0.4420    6.9480   -1.0170 C.3    32  ARG32       0.0321
      6  CG        -1.9040    7.2830   -1.2000 C.3    32  ARG32       0.0489
      7  CD        -2.3470    7.0050   -2.6280 C.3    32  ARG32       0.2205
      8  NE        -1.6210    7.8250   -3.5890 N.pl3  32  ARG32      -0.0865
      9  CZ        -1.8880    9.1000   -3.8440 C.cat  32  ARG32       0.5346
     10  NH1       -2.8660    9.7210   -3.2100 N.pl3  32  ARG32       0.1354
     11  NH2       -1.1730    9.7530   -4.7330 N.pl3  32  ARG32       0.1354
     12  N          1.8470    6.1070    1.5320 N.am   33  HIS33      -0.1962
     13  CA         3.1960    5.8240    1.8950 C.3    33  HIS33       0.1787
     14  C          3.3230    4.3540    2.2150 C.2    33  HIS33       0.2620
     15  O          2.3860    3.6130    2.1620 O.2    33  HIS33      -0.2715
     16  CB         3.5660    6.6180    3.1320 C.3    33  HIS33       0.0785
     17  CG         2.8010    6.1990    4.3330 C.ar   33  HIS33       0.0821
     18  ND1        3.2930    5.2830    5.2290 N.ar   33  HIS33      -0.2267
     19  CD2        1.5780    6.5550    4.7820 C.ar   33  HIS33       0.1154
     20  CE1        2.3950    5.0790    6.1730 C.ar   33  HIS33       0.1986
     21  NE2        1.3480    5.8480    5.9330 N.ar   33  HIS33      -0.2212
     22  N          4.5380    3.9680    2.5420 N.am   34  GLN34      -0.1963
     23  CA         4.8380    2.4320    2.8110 C.3    34  GLN34       0.1733
     24  C          5.5120    2.1120    4.2560 C.2    34  GLN34       0.2616
     25  O          5.8490    1.0260    4.5700 O.2    34  GLN34      -0.2715
     26  CB         5.7460    1.7680    1.7550 C.3    34  GLN34       0.0408
     27  CG         5.4800    2.1060    0.2880 C.3    34  GLN34       0.0908
     28  CD         4.1100    1.6850   -0.2330 C.2    34  GLN34       0.2608
     29  OE1        3.7130    0.5240   -0.1320 O.2    34  GLN34      -0.2717
     30  NE2        3.3970    2.6320   -0.8320 N.am   34  GLN34      -0.0878
     31  N          5.5140    3.1700    5.0570 N.am   35  ARG35      -0.1977
     32  CA         5.9870    3.0480    6.4280 C.3    35  ARG35       0.1597
     33  C          4.7830    2.7550    7.3070 C.2    35  ARG35       0.2287
     34  O          4.4250    3.5260    8.1490 O.2    35  ARG35      -0.2864
     35  CB         6.7280    4.3150    6.8660 C.3    35  ARG35       0.0334
     36  CG         7.5340    4.1720    8.1420 C.3    35  ARG35       0.0492
     37  CD         8.6060    3.0980    8.0380 C.3    35  ARG35       0.2205
     38  NE         9.5760    3.3840    6.9990 N.pl3  35  ARG35      -0.0865
     39  CZ        10.7800    2.8410    6.9260 C.cat  35  ARG35       0.5346
     40  NH1       11.1610    1.9880    7.8360 N.pl3  35  ARG35       0.1354
     41  NH2       11.5980    3.1720    5.9340 N.pl3  35  ARG35       0.1354
     42  N         12.9250    4.8180   10.6440 N.3    54  ASP54      -0.1239
     43  CA        13.8540    4.6940    9.5170 C.3    54  ASP54       0.1674
     44  C         15.2340    5.2940    9.7750 C.2    54  ASP54       0.2266
     45  O         15.9160    5.7280    8.8390 O.2    54  ASP54      -0.2867
     46  CB        13.2400    5.2800    8.2410 C.3    54  ASP54       0.1410
     47  CG        12.9850    6.7780    8.3370 C.2    54  ASP54       0.3668
     48  OD1       13.1030    7.3520    9.4460 O.co2  54  ASP54      -0.2456
     49  OD2       12.6540    7.3870    7.2920 O.co2  54  ASP54      -0.2456
     50  N         16.1670    8.0780   11.0380 N.3    56  ASP56      -0.1239
     51  CA        16.3290    9.5100   10.8980 C.3    56  ASP56       0.1674
     52  C         16.9730    9.9880   12.1960 C.2    56  ASP56       0.2266
     53  O         17.5560    9.2000   12.9080 O.2    56  ASP56      -0.2867
     54  CB        14.9940   10.2100   10.6550 C.3    56  ASP56       0.1410
     55  CG        15.1470   11.5220    9.8660 C.2    56  ASP56       0.3668
     56  OD1       15.8900   12.3940   10.3110 O.co2  56  ASP56      -0.2456
     57  OD2       14.5410   11.6500    8.7920 O.co2  56  ASP56      -0.2456
     58  N          9.4350   11.6220   13.8360 N.3    60  TRP60      -0.1241
     59  CA         8.7740   12.3560   12.7930 C.3    60  TRP60       0.1605
     60  C          7.4340   11.6920   12.4890 C.2    60  TRP60       0.2264
     61  O          7.0780   10.7260   13.0870 O.2    60  TRP60      -0.2867
     62  CB         9.6490   12.3780   11.5280 C.3    60  TRP60       0.0550
     63  CG        10.0180   11.0180   10.9850 C.ar   60  TRP60       0.0003
     64  CD1       11.1100   10.2850   11.3130 C.ar   60  TRP60       0.0946
     65  CD2        9.3040   10.2480    9.9990 C.ar   60  TRP60       0.0152
     66  NE1       11.1180    9.1040   10.6280 N.ar   60  TRP60      -0.2442
     67  CE2       10.0200    9.0570    9.8100 C.ar   60  TRP60       0.0810
     68  CE3        8.1300   10.4460    9.2780 C.ar   60  TRP60       0.0012
     69  CZ2        9.6040    8.0790    8.9250 C.ar   60  TRP60       0.0191
     70  CZ3        7.7250    9.4870    8.4130 C.ar   60  TRP60       0.0001
     71  CH2        8.4550    8.3070    8.2360 C.ar   60  TRP60       0.0015
     72  N          4.2850   11.4860    9.0070 N.3    62  PHE62      -0.1241
     73  CA         3.6160   12.0600    7.8580 C.3    62  PHE62       0.1605
     74  C          2.6260   13.0660    8.4160 C.2    62  PHE62       0.2264
     75  O          2.1330   12.8850    9.5300 O.2    62  PHE62      -0.2867
     76  CB         2.9330   10.9620    7.0460 C.3    62  PHE62       0.0534
     77  CG         3.8960    9.9450    6.5150 C.ar   62  PHE62      -0.0203
     78  CD1        4.7300   10.2580    5.4460 C.ar   62  PHE62      -0.0042
     79  CD2        4.0030    8.6860    7.1070 C.ar   62  PHE62      -0.0042
     80  CE1        5.6440    9.3340    4.9720 C.ar   62  PHE62      -0.0003
     81  CE2        4.9130    7.7560    6.6320 C.ar   62  PHE62      -0.0003
     82  CZ         5.7330    8.0800    5.5640 C.ar   62  PHE62      -0.0000
     83  N          4.5100   16.2290    3.1070 N.3    69  ARG69      -0.1231
     84  CA         4.5180   14.7860    3.2990 C.3    69  ARG69       0.1694
     85  C          4.8760   14.3990    4.7240 C.2    69  ARG69       0.2592
     86  O          4.1750   13.6090    5.3440 O.2    69  ARG69      -0.2718
     87  CB         5.4520   14.0890    2.3160 C.3    69  ARG69       0.0321
     88  CG         5.3210   12.5750    2.3720 C.3    69  ARG69       0.0489
     89  CD         6.0360   11.9420    1.2030 C.3    69  ARG69       0.2205
     90  NE         6.0650   10.4840    1.2670 N.pl3  69  ARG69      -0.0865
     91  CZ         5.1140    9.6820    0.7930 C.cat  69  ARG69       0.5346
     92  NH1        4.0140   10.1810    0.2400 N.pl3  69  ARG69       0.1354
     93  NH2        5.2730    8.3670    0.8740 N.pl3  69  ARG69       0.1354
     94  N          5.9620   14.9630    5.2380 N.am   70  TRP70      -0.1976
     95  CA         6.4140   14.6120    6.5740 C.3    70  TRP70       0.1640
     96  C          7.1310   15.7600    7.2630 C.2    70  TRP70       0.2290
     97  O          7.6840   16.6450    6.6110 O.2    70  TRP70      -0.2864
     98  CB         7.3330   13.3850    6.5210 C.3    70  TRP70       0.0576
     99  CG         8.7040   13.6750    5.9850 C.ar   70  TRP70       0.0006
    100  CD1        9.0840   13.7100    4.6720 C.ar   70  TRP70       0.0946
    101  CD2        9.8800   13.9680    6.7510 C.ar   70  TRP70       0.0152
    102  NE1       10.4270   14.0090    4.5740 N.ar   70  TRP70      -0.2442
    103  CE2       10.9380   14.1720    5.8340 C.ar   70  TRP70       0.0810
    104  CE3       10.1440   14.0770    8.1240 C.ar   70  TRP70       0.0012
    105  CZ2       12.2420   14.4780    6.2450 C.ar   70  TRP70       0.0191
    106  CZ3       11.4430   14.3840    8.5330 C.ar   70  TRP70       0.0001
    107  CH2       12.4760   14.5770    7.5940 C.ar   70  TRP70       0.0015
@<TRIPOS>BOND
     1    11     9    1
     2     9     8    2
     3     9    10    1
     4     8     7    1
     5     7     6    1
     6     6     5    1
     7     5     2    1
     8    30    28   am
     9    28    29    2
    10    28    27    1
    11     4     3    2
    12    92    91    1
    13    27    26    1
    14     2     3    1
    15     2     1    1
    16     3    12   am
    17    91    93    1
    18    91    90    2
    19    89    90    1
    20    89    88    1
    21    12    13    1
    22    26    23    1
    23    13    14    1
    24    13    16    1
    25    15    14    2
    26    14    22   am
    27    87    88    1
    28    87    84    1
    29    22    23    1
    30    23    24    1
    31    83    84    1
    32    16    17    1
    33    84    85    1
    34    24    25    2
    35    24    31   am
    36    17    19   ar
    37    17    18   ar
    38   102   100   ar
    39   102   103   ar
    40   100    99   ar
    41    85    94   am
    42    85    86    2
    43    19    21   ar
    44    80    78   ar
    45    80    82   ar
    46    31    32    1
    47    18    20   ar
    48    94    95    1
    49    78    77   ar
    50    82    81   ar
    51   103   105   ar
    52   103   101   ar
    53    21    20   ar
    54    41    39    1
    55    99    98    1
    56    99   101   ar
    57   105   107   ar
    58    32    35    1
    59    32    33    1
    60    77    76    1
    61    77    79   ar
    62    98    95    1
    63    95    96    1
    64    97    96    2
    65    81    79   ar
    66   101   104   ar
    67    35    36    1
    68    39    38    2
    69    39    40    1
    70    38    37    1
    71    76    73    1
    72    49    47   ar
    73    33    34    2
    74   107   106   ar
    75    73    74    1
    76    73    72    1
    77    37    36    1
    78   104   106   ar
    79    71    70   ar
    80    71    69   ar
    81    46    47    1
    82    46    43    1
    83    47    48   ar
    84    70    68   ar
    85    74    75    2
    86    57    55   ar
    87    45    44    2
    88    69    67   ar
    89    68    65   ar
    90    43    44    1
    91    43    42    1
    92    67    65   ar
    93    67    66   ar
    94    55    56   ar
    95    55    54    1
    96    65    63   ar
    97    66    64   ar
    98    54    51    1
    99    51    50    1
   100    51    52    1
   101    63    64   ar
   102    63    62    1
   103    62    59    1
   104    52    53    2
   105    60    59    1
   106    60    61    2
   107    59    58    1
