@<TRIPOS>MOLECULE
tmp/4bvhC00.pdb
 163 158 0 0 0
SMALL
GASTEIGER

@<TRIPOS>ATOM
      1  N         35.8550  -22.7620  -17.0160 N.3    26  ALA26      -0.1245
      2  CA        35.1490  -24.0230  -16.7640 C.3    26  ALA26       0.1562
      3  C         35.9410  -24.9830  -15.8920 C.2    26  ALA26       0.2260
      4  O         35.3720  -25.8970  -15.2510 O.2    26  ALA26      -0.2867
      5  CB        34.7350  -24.6290  -18.1110 C.3    26  ALA26       0.0290
      6  N         34.8410  -25.6590  -12.2610 N.3    29  SER29      -0.1217
      7  CA        33.6090  -26.3900  -12.0150 C.3    29  SER29       0.1889
      8  C         33.6770  -27.9060  -12.4060 C.2    29  SER29       0.2288
      9  O         32.7800  -28.6710  -12.0550 O.2    29  SER29      -0.2866
     10  CB        32.5080  -25.6460  -12.7770 C.3    29  SER29       0.2089
     11  OG        32.2770  -24.4380  -11.9750 O.3    29  SER29      -0.2183
     12  N         30.9170  -30.6270  -13.5940 N.3    34  ILE34      -0.1231
     13  CA        30.4920  -30.0060  -14.8440 C.3    34  ILE34       0.1678
     14  C         31.6630  -30.0390  -15.8430 C.2    34  ILE34       0.2434
     15  O         32.7920  -29.6850  -15.4860 O.2    34  ILE34      -0.2733
     16  CB        30.0600  -28.5110  -14.5970 C.3    34  ILE34       0.0265
     17  CG1       28.9790  -28.4230  -13.5260 C.3    34  ILE34       0.0019
     18  CG2       29.5270  -27.8940  -15.9080 C.3    34  ILE34       0.0020
     19  CD1       28.4070  -26.9880  -13.3480 C.3    34  ILE34       0.0001
     20  N         31.3970  -30.4090  -17.1330 N.am   35  PRO35      -0.2729
     21  CA        32.5400  -30.5990  -18.0540 C.3    35  PRO35       0.1401
     22  C         33.1030  -29.2730  -18.4980 C.2    35  PRO35       0.2269
     23  O         32.4120  -28.1910  -18.4450 O.2    35  PRO35      -0.2865
     24  CB        31.8950  -31.2700  -19.3060 C.3    35  PRO35       0.0296
     25  CG        30.4450  -30.7970  -19.2440 C.3    35  PRO35       0.0237
     26  CD        30.1350  -30.8850  -17.7570 C.3    35  PRO35       0.0939
     27  N         35.4400  -27.3960  -21.8140 N.3    37  PHE37      -0.1241
     28  CA        35.5200  -27.4250  -23.2430 C.3    37  PHE37       0.1605
     29  C         36.8280  -27.9790  -23.8250 C.2    37  PHE37       0.2264
     30  O         36.7780  -28.6020  -24.9110 O.2    37  PHE37      -0.2867
     31  CB        35.3520  -25.9970  -23.7820 C.3    37  PHE37       0.0534
     32  CG        33.9960  -25.4540  -23.4520 C.ar   37  PHE37      -0.0203
     33  CD1       32.8880  -25.7120  -24.2670 C.ar   37  PHE37      -0.0042
     34  CD2       33.8400  -24.7010  -22.2980 C.ar   37  PHE37      -0.0042
     35  CE1       31.5950  -25.2390  -23.9510 C.ar   37  PHE37      -0.0003
     36  CE2       32.5510  -24.2470  -21.9510 C.ar   37  PHE37      -0.0003
     37  CZ        31.4410  -24.4940  -22.7560 C.ar   37  PHE37      -0.0000
     38  N         34.5350  -30.9160  -23.8840 N.3    44  LEU44      -0.1245
     39  CA        33.3870  -30.9640  -24.7810 C.3    44  LEU44       0.1561
     40  C         33.7830  -30.7610  -26.2280 C.2    44  LEU44       0.2260
     41  O         33.2330  -31.4060  -27.1200 O.2    44  LEU44      -0.2867
     42  CB        32.4170  -29.8400  -24.4860 C.3    44  LEU44       0.0270
     43  CG        31.5720  -30.0910  -23.2510 C.3    44  LEU44       0.0019
     44  CD1       30.9650  -28.7970  -22.7150 C.3    44  LEU44       0.0001
     45  CD2       30.5630  -31.2150  -23.5510 C.3    44  LEU44       0.0001
     46  N         26.5310  -24.7020  -29.0690 N.3    57  PHE57      -0.1241
     47  CA        25.9710  -23.5830  -28.2540 C.3    57  PHE57       0.1605
     48  C         25.9350  -22.2900  -29.0450 C.2    57  PHE57       0.2264
     49  O         26.2320  -21.2390  -28.5040 O.2    57  PHE57      -0.2867
     50  CB        26.8970  -23.2520  -27.0670 C.3    57  PHE57       0.0534
     51  CG        26.8340  -24.2260  -25.9640 C.ar   57  PHE57      -0.0203
     52  CD1       25.6710  -24.4210  -25.2820 C.ar   57  PHE57      -0.0042
     53  CD2       27.9510  -24.9250  -25.5960 C.ar   57  PHE57      -0.0042
     54  CE1       25.6000  -25.3380  -24.2450 C.ar   57  PHE57      -0.0003
     55  CE2       27.9010  -25.8490  -24.5590 C.ar   57  PHE57      -0.0003
     56  CZ        26.7230  -26.0520  -23.8920 C.ar   57  PHE57      -0.0000
     57  N         18.9970  -27.6030  -25.5410 N.3    69  PHE69      -0.1241
     58  CA        19.3400  -26.5370  -24.6150 C.3    69  PHE69       0.1605
     59  C         18.4900  -26.5340  -23.3280 C.2    69  PHE69       0.2264
     60  O         19.0190  -26.4120  -22.2250 O.2    69  PHE69      -0.2867
     61  CB        19.3350  -25.1330  -25.2790 C.3    69  PHE69       0.0534
     62  CG        19.8590  -24.0890  -24.3200 C.ar   69  PHE69      -0.0203
     63  CD1       21.2120  -23.9940  -24.0660 C.ar   69  PHE69      -0.0042
     64  CD2       18.9520  -23.3380  -23.5500 C.ar   69  PHE69      -0.0042
     65  CE1       21.6880  -23.0750  -23.0950 C.ar   69  PHE69      -0.0003
     66  CE2       19.4270  -22.4300  -22.5880 C.ar   69  PHE69      -0.0003
     67  CZ        20.7990  -22.2870  -22.4090 C.ar   69  PHE69      -0.0000
     68  N         19.4100  -29.2880  -21.0100 N.3    72  LEU72      -0.1245
     69  CA        20.6440  -28.8610  -20.3700 C.3    72  LEU72       0.1561
     70  C         20.3290  -27.8470  -19.2590 C.2    72  LEU72       0.2260
     71  O         20.8390  -28.0060  -18.1540 O.2    72  LEU72      -0.2867
     72  CB        21.6250  -28.2780  -21.3910 C.3    72  LEU72       0.0270
     73  CG        22.8950  -27.6520  -20.7820 C.3    72  LEU72       0.0019
     74  CD1       23.7650  -28.7070  -20.0900 C.3    72  LEU72       0.0001
     75  CD2       23.6900  -26.8770  -21.8410 C.3    72  LEU72       0.0001
     76  N         21.3860  -27.6770  -15.3440 N.3    76  LEU76      -0.1245
     77  CA        22.2800  -26.6100  -14.8280 C.3    76  LEU76       0.1561
     78  C         21.5950  -25.5200  -13.9660 C.2    76  LEU76       0.2260
     79  O         22.2610  -24.7320  -13.2930 O.2    76  LEU76      -0.2867
     80  CB        23.0870  -25.9870  -15.9650 C.3    76  LEU76       0.0270
     81  CG        24.1810  -26.8150  -16.6620 C.3    76  LEU76       0.0019
     82  CD1       24.9040  -25.9030  -17.6390 C.3    76  LEU76       0.0001
     83  CD2       25.2210  -27.3310  -15.6930 C.3    76  LEU76       0.0001
     84  N         33.5600  -16.8560  -16.7700 N.3   105  GLN105     -0.1231
     85  CA        33.0580  -17.3470  -18.0720 C.3   105  GLN105      0.1698
     86  C         32.0130  -18.4520  -17.9390 C.2   105  GLN105      0.2592
     87  O         31.4020  -18.9020  -18.9290 O.2   105  GLN105     -0.2718
     88  CB        34.2500  -17.8520  -18.9230 C.3   105  GLN105      0.0381
     89  CG        35.3150  -16.7680  -19.1500 C.3   105  GLN105      0.0905
     90  CD        36.6260  -17.3440  -19.6870 C.2   105  GLN105      0.2608
     91  OE1       36.8790  -17.2770  -20.8760 O.2   105  GLN105     -0.2717
     92  NE2       37.4820  -17.8490  -18.7930 N.am  105  GLN105     -0.0878
     93  N         31.7090  -18.8310  -16.7130 N.am  106  ASN106     -0.1960
     94  CA        30.8310  -19.9910  -16.5220 C.3   106  ASN106      0.1819
     95  C         29.3690  -19.5020  -16.4590 C.2   106  ASN106      0.2621
     96  O         29.1000  -18.4020  -15.9900 O.2   106  ASN106     -0.2715
     97  CB        31.1750  -20.6590  -15.1780 C.3   106  ASN106      0.1195
     98  CG        32.5420  -21.3550  -15.2340 C.2   106  ASN106      0.2630
     99  OD1       33.1040  -21.4950  -16.3200 O.2   106  ASN106     -0.2716
    100  ND2       33.0730  -21.7510  -14.1040 N.am  106  ASN106     -0.0877
    101  N         28.4630  -20.3330  -16.9290 N.am  107  ILE107     -0.1963
    102  CA        26.9990  -20.0330  -16.7730 C.3   107  ILE107      0.1727
    103  C         26.4030  -20.8080  -15.6270 C.2   107  ILE107      0.2616
    104  O         25.1860  -20.7240  -15.3740 O.2   107  ILE107     -0.2715
    105  CB        26.2430  -20.3620  -18.0830 C.3   107  ILE107      0.0290
    106  CG1       26.3900  -21.8400  -18.4180 C.3   107  ILE107      0.0022
    107  CG2       26.6740  -19.4240  -19.1910 C.3   107  ILE107      0.0023
    108  CD1       25.4140  -22.3450  -19.5230 C.3   107  ILE107      0.0001
    109  N         27.2110  -21.6310  -14.9600 N.am  108  ASP108     -0.1971
    110  CA        26.6890  -22.5470  -13.9520 C.3   108  ASP108      0.1709
    111  C         26.2070  -21.8430  -12.6480 C.2   108  ASP108      0.2293
    112  O         25.5430  -22.4680  -11.8020 O.2   108  ASP108     -0.2864
    113  CB        27.7390  -23.6430  -13.6200 C.3   108  ASP108      0.1436
    114  CG        29.0600  -23.0850  -13.0520 C.2   108  ASP108      0.3671
    115  OD1       29.0570  -22.1270  -12.1970 O.co2 108  ASP108     -0.2456
    116  OD2       30.1320  -23.6520  -13.3590 O.co2 108  ASP108     -0.2456
    117  N         29.4900  -14.5120  -19.3790 N.3   125  HIS125     -0.1241
    118  CA        28.6700  -15.2290  -20.3480 C.3   125  HIS125      0.1621
    119  C         27.1980  -15.3260  -19.9470 C.2   125  HIS125      0.2264
    120  O         26.4440  -16.1970  -20.4220 O.2   125  HIS125     -0.2867
    121  CB        29.3010  -16.6200  -20.7150 C.3   125  HIS125      0.0745
    122  CG        30.6320  -16.5160  -21.4350 C.ar  125  HIS125      0.0817
    123  ND1       31.6710  -17.4090  -21.2520 N.ar  125  HIS125     -0.2268
    124  CD2       31.0670  -15.6450  -22.3880 C.ar  125  HIS125      0.1154
    125  CE1       32.6860  -17.0790  -22.0330 C.ar  125  HIS125      0.1986
    126  NE2       32.3450  -16.0250  -22.7460 N.ar  125  HIS125     -0.2212
    127  N         21.8450  -16.2430  -21.3440 N.3   168  ILE168     -0.1231
    128  CA        23.1840  -16.8170  -21.5650 C.3   168  ILE168      0.1692
    129  C         23.7270  -16.2420  -22.8750 C.2   168  ILE168      0.2592
    130  O         22.9650  -16.1080  -23.8700 O.2   168  ILE168     -0.2718
    131  CB        23.0220  -18.3460  -21.7130 C.3   168  ILE168      0.0266
    132  CG1       22.3630  -18.9610  -20.4670 C.3   168  ILE168      0.0019
    133  CG2       24.3200  -19.0790  -22.1220 C.3   168  ILE168      0.0020
    134  CD1       23.1840  -18.7970  -19.2170 C.3   168  ILE168      0.0001
    135  N         25.0140  -15.9390  -22.8930 N.am  169  VAL169     -0.1966
    136  CA        25.7240  -15.4950  -24.0760 C.3   169  VAL169      0.1727
    137  C         26.1830  -16.7240  -24.8410 C.2   169  VAL169      0.2616
    138  O         27.1060  -17.4160  -24.4270 O.2   169  VAL169     -0.2715
    139  CB        26.9600  -14.6360  -23.7010 C.3   169  VAL169      0.0290
    140  CG1       27.7270  -14.1470  -24.9540 C.3   169  VAL169      0.0023
    141  CG2       26.5290  -13.4840  -22.7960 C.3   169  VAL169      0.0023
    142  N         25.4710  -17.0230  -25.9170 N.am  170  PHE170     -0.1960
    143  CA        25.7920  -18.1460  -26.8050 C.3   170  PHE170      0.1771
    144  C         27.0580  -17.9030  -27.5960 C.2   170  PHE170      0.2619
    145  O         27.4570  -16.7520  -27.7240 O.2   170  PHE170     -0.2715
    146  CB        24.5870  -18.4250  -27.7170 C.3   170  PHE170      0.0574
    147  CG        23.5520  -19.2780  -27.0680 C.ar  170  PHE170     -0.0200
    148  CD1       22.5970  -18.7340  -26.2120 C.ar  170  PHE170     -0.0042
    149  CD2       23.5120  -20.6470  -27.3060 C.ar  170  PHE170     -0.0042
    150  CE1       21.6160  -19.5350  -25.6180 C.ar  170  PHE170     -0.0003
    151  CE2       22.5210  -21.4500  -26.7140 C.ar  170  PHE170     -0.0003
    152  CZ        21.5620  -20.8950  -25.8690 C.ar  170  PHE170     -0.0000
    153  N         27.7070  -18.9750  -28.1020 N.am  171  PHE171     -0.1974
    154  CA        29.0460  -18.8100  -28.7220 C.3   171  PHE171      0.1639
    155  C         28.9600  -17.7260  -29.8150 C.2   171  PHE171      0.2290
    156  O         28.0080  -17.7300  -30.5980 O.2   171  PHE171     -0.2864
    157  CB        29.6200  -20.1590  -29.2560 C.3   171  PHE171      0.0560
    158  CG        31.0330  -20.0510  -29.7900 C.ar  171  PHE171     -0.0200
    159  CD1       31.2730  -19.7070  -31.1340 C.ar  171  PHE171     -0.0042
    160  CD2       32.1390  -20.2740  -28.9450 C.ar  171  PHE171     -0.0042
    161  CE1       32.5710  -19.5880  -31.6230 C.ar  171  PHE171     -0.0003
    162  CE2       33.4360  -20.1450  -29.4330 C.ar  171  PHE171     -0.0003
    163  CZ        33.6500  -19.8020  -30.7740 C.ar  171  PHE171     -0.0000
@<TRIPOS>BOND
     1   161   159   ar
     2   161   163   ar
     3   159   158   ar
     4   163   162   ar
     5   156   155    2
     6   155   154    1
     7   158   157    1
     8   158   160   ar
     9   162   160   ar
    10   157   154    1
    11    46    47    1
    12    48    49    2
    13    48    47    1
    14   154   153    1
    15    47    50    1
    16   153   144   am
    17   145   144    2
    18   146   147    1
    19   146   143    1
    20   144   143    1
    21   149   147   ar
    22   149   151   ar
    23    41    40    2
    24   147   148   ar
    25    50    51    1
    26   143   142    1
    27   151   152   ar
    28    40    39    1
    29   148   150   ar
    30    51    53   ar
    31    51    52   ar
    32   142   137   am
    33   152   150   ar
    34    53    55   ar
    35    57    58    1
    36    52    54   ar
    37    61    58    1
    38    61    62    1
    39   140   139    1
    40    30    29    2
    41   137   138    2
    42   137   136    1
    43    39    42    1
    44    39    38    1
    45    58    59    1
    46    55    56   ar
    47    42    43    1
    48    62    63   ar
    49    62    64   ar
    50    33    35   ar
    51    33    32   ar
    52    54    56   ar
    53   136   139    1
    54   136   135    1
    55    63    65   ar
    56    35    37   ar
    57   130   129    2
    58    29    28    1
    59    31    32    1
    60    31    28    1
    61   139   141    1
    62    45    43    1
    63    64    66   ar
    64    32    34   ar
    65    59    60    2
    66    43    44    1
    67    28    27    1
    68    65    67   ar
    69   135   129   am
    70   129   128    1
    71    37    36   ar
    72   126   124   ar
    73   126   125   ar
    74    66    67   ar
    75   124   122   ar
    76    34    36   ar
    77   133   131    1
    78   125   123   ar
    79    75    73    1
    80   131   128    1
    81   131   132    1
    82   128   127    1
    83   122   123   ar
    84   122   121    1
    85    72    73    1
    86    72    69    1
    87    68    69    1
    88    91    90    2
    89    73    74    1
    90   121   118    1
    91   132   134    1
    92   120   119    2
    93    69    70    1
    94   118   119    1
    95   118   117    1
    96    90    89    1
    97    90    92   am
    98   108   106    1
    99    24    25    1
   100    24    21    1
   101    70    71    2
   102    25    26    1
   103   107   105    1
   104    89    88    1
   105    87    86    2
   106    88    85    1
   107    22    23    2
   108    22    21    1
   109   106   105    1
   110     5     2    1
   111   105   102    1
   112    85    86    1
   113    85    84    1
   114    21    20    1
   115    86    93   am
   116    26    20    1
   117    82    81    1
   118    20    14   am
   119     1     2    1
   120   101   102    1
   121   101    95   am
   122   102   103    1
   123     2     3    1
   124    93    94    1
   125    81    80    1
   126    81    83    1
   127    94    95    1
   128    94    97    1
   129    95    96    2
   130    99    98    2
   131    80    77    1
   132    18    16    1
   133     3     4    2
   134    14    15    2
   135    14    13    1
   136   103   104    2
   137   103   109   am
   138    76    77    1
   139    98    97    1
   140    98   100   am
   141   109   110    1
   142    13    16    1
   143    13    12    1
   144    77    78    1
   145    16    17    1
   146    78    79    2
   147   110   113    1
   148   110   111    1
   149   113   114    1
   150    17    19    1
   151   116   114   ar
   152   114   115   ar
   153    10     7    1
   154    10    11    1
   155   111   112    2
   156     8     9    2
   157     8     7    1
   158     6     7    1
