@<TRIPOS>MOLECULE
tmp/4bvnA05.pdb
 114 107 0 0 0
SMALL
GASTEIGER

@<TRIPOS>ATOM
      1  N        -26.1180  -16.5620    7.1780 N.3   102  ILE102     -0.1245
      2  CA       -25.7560  -17.2520    5.9160 C.3   102  ILE102      0.1561
      3  C        -25.0780  -18.5650    6.1750 C.2   102  ILE102      0.2260
      4  O        -25.3880  -19.5490    5.5490 O.2   102  ILE102     -0.2867
      5  CB       -24.9030  -16.3100    5.0400 C.3   102  ILE102      0.0252
      6  CG1      -25.7940  -15.1720    4.5390 C.3   102  ILE102      0.0019
      7  CG2      -24.1690  -17.0420    3.9220 C.3   102  ILE102      0.0019
      8  CD1      -24.9940  -13.9510    4.0770 C.3   102  ILE102      0.0001
      9  N        -27.6250  -21.0860    7.3040 N.3   105  TYR105     -0.1227
     10  CA       -28.4250  -21.4870    6.1250 C.3   105  TYR105      0.1736
     11  C        -27.7000  -22.5500    5.2530 C.2   105  TYR105      0.2595
     12  O        -28.3100  -23.5050    4.7970 O.2   105  TYR105     -0.2718
     13  CB       -28.7930  -20.2690    5.2720 C.3   105  TYR105      0.0548
     14  CG       -29.6220  -20.6570    4.0970 C.ar  105  TYR105     -0.0200
     15  CD1      -30.9810  -20.9240    4.2380 C.ar  105  TYR105     -0.0009
     16  CD2      -29.0390  -20.8670    2.8500 C.ar  105  TYR105     -0.0009
     17  CE1      -31.7520  -21.3200    3.1420 C.ar  105  TYR105      0.0417
     18  CE2      -29.7970  -21.2750    1.7580 C.ar  105  TYR105      0.0417
     19  CZ       -31.1500  -21.5070    1.9160 C.ar  105  TYR105      0.1957
     20  OH       -31.8880  -21.9090    0.8430 O.3   105  TYR105     -0.2866
     21  N        -26.4060  -22.3690    5.0370 N.am  106  LEU106     -0.1980
     22  CA       -25.5970  -23.3240    4.2740 C.3   106  LEU106      0.1596
     23  C        -25.3170  -24.6110    5.0660 C.2   106  LEU106      0.2287
     24  O        -25.2220  -25.6920    4.4980 O.2   106  LEU106     -0.2864
     25  CB       -24.2800  -22.6690    3.8680 C.3   106  LEU106      0.0297
     26  CG       -24.4290  -21.5170    2.8690 C.3   106  LEU106      0.0022
     27  CD1      -23.0570  -20.9750    2.5450 C.3   106  LEU106      0.0001
     28  CD2      -25.1400  -21.9410    1.5710 C.3   106  LEU106      0.0001
     29  N        -21.4150  -31.1000    2.5940 N.3   113  ARG113     -0.1245
     30  CA       -20.4680  -30.1800    1.9780 C.3   113  ARG113      0.1563
     31  C        -19.8870  -29.2450    3.0480 C.2   113  ARG113      0.2260
     32  O        -18.6630  -29.0750    3.1590 O.2   113  ARG113     -0.2867
     33  CB       -21.1240  -29.3960    0.8510 C.3   113  ARG113      0.0307
     34  CG       -20.1350  -28.7740   -0.1180 C.3   113  ARG113      0.0489
     35  CD       -20.7870  -27.6860   -0.9540 C.3   113  ARG113      0.2205
     36  NE       -21.3120  -26.6020   -0.1140 N.pl3 113  ARG113     -0.0865
     37  CZ       -20.7140  -25.4300    0.1140 C.cat 113  ARG113      0.5346
     38  NH1      -19.5420  -25.1340   -0.4430 N.pl3 113  ARG113      0.1354
     39  NH2      -21.3090  -24.5370    0.9020 N.pl3 113  ARG113      0.1354
     40  N        -15.7980  -28.7280    4.3460 N.3   117  LEU117     -0.1231
     41  CA       -15.1240  -27.5620    3.7610 C.3   117  LEU117      0.1693
     42  C        -14.8320  -26.4130    4.7550 C.2   117  LEU117      0.2591
     43  O        -13.8730  -25.6830    4.5650 O.2   117  LEU117     -0.2718
     44  CB       -15.9430  -27.0570    2.5540 C.3   117  LEU117      0.0284
     45  CG       -15.3500  -25.9750    1.6330 C.3   117  LEU117      0.0019
     46  CD1      -13.8860  -26.2390    1.3000 C.3   117  LEU117      0.0001
     47  CD2      -16.1680  -25.8470    0.3480 C.3   117  LEU117      0.0001
     48  N        -15.6330  -26.2570    5.8130 N.am  118  MET118     -0.1979
     49  CA       -15.4240  -25.1920    6.7920 C.3   118  MET118      0.1605
     50  C        -14.4780  -25.6080    7.9200 C.2   118  MET118      0.2287
     51  O        -14.5790  -26.7250    8.4400 O.2   118  MET118     -0.2864
     52  CB       -16.7620  -24.7560    7.3950 C.3   118  MET118      0.0413
     53  CG       -17.4760  -23.6760    6.5990 C.3   118  MET118      0.0598
     54  SD       -16.5420  -22.1390    6.5170 S.3   118  MET118     -0.1393
     55  CE       -16.3470  -21.7380    8.2510 C.3   118  MET118      0.0692
     56  N        -10.7960  -21.0980    8.8210 N.3   122  ARG122     -0.1245
     57  CA       -11.5300  -20.3850    7.7580 C.3   122  ARG122      0.1563
     58  C        -12.6300  -19.4420    8.2970 C.2   122  ARG122      0.2260
     59  O        -13.0320  -18.4700    7.6400 O.2   122  ARG122     -0.2867
     60  CB       -12.1520  -21.3710    6.8040 C.3   122  ARG122      0.0307
     61  CG       -12.9770  -20.7060    5.7120 C.3   122  ARG122      0.0489
     62  CD       -13.1760  -21.6330    4.5380 C.3   122  ARG122      0.2205
     63  NE       -14.2260  -21.1610    3.6420 N.pl3 122  ARG122     -0.0865
     64  CZ       -14.5620  -21.7610    2.5010 C.cat 122  ARG122      0.5346
     65  NH1      -13.9330  -22.8670    2.0990 N.pl3 122  ARG122      0.1354
     66  NH2      -15.5320  -21.2530    1.7530 N.pl3 122  ARG122      0.1354
     67  N        -12.8800  -15.2820    7.7730 N.3   126  ILE126     -0.1245
     68  CA       -14.1310  -14.5530    7.5460 C.3   126  ILE126      0.1561
     69  C        -14.2930  -13.3680    8.5470 C.2   126  ILE126      0.2260
     70  O        -14.6350  -12.2760    8.1460 O.2   126  ILE126     -0.2867
     71  CB       -15.3130  -15.5340    7.5850 C.3   126  ILE126      0.0252
     72  CG1      -15.2460  -16.4240    6.3270 C.3   126  ILE126      0.0019
     73  CG2      -16.6530  -14.8040    7.5840 C.3   126  ILE126      0.0019
     74  CD1      -16.1600  -17.6170    6.3760 C.3   126  ILE126      0.0001
     75  N        -33.8510  -11.6080    6.1250 N.3   190  PHE190     -0.1227
     76  CA       -34.3650  -12.4520    5.0280 C.3   190  PHE190      0.1736
     77  C        -33.8770  -13.9030    5.1230 C.2   190  PHE190      0.2595
     78  O        -34.6650  -14.8580    4.9880 O.2   190  PHE190     -0.2718
     79  CB       -33.9790  -11.8570    3.6660 C.3   190  PHE190      0.0547
     80  CG       -34.4760  -12.6550    2.4870 C.ar  190  PHE190     -0.0202
     81  CD1      -35.7670  -12.4760    2.0020 C.ar  190  PHE190     -0.0042
     82  CD2      -33.6630  -13.5990    1.8690 C.ar  190  PHE190     -0.0042
     83  CE1      -36.2420  -13.2310    0.9140 C.ar  190  PHE190     -0.0003
     84  CE2      -34.1250  -14.3510    0.7890 C.ar  190  PHE190     -0.0003
     85  CZ       -35.4070  -14.1610    0.3000 C.ar  190  PHE190     -0.0000
     86  N        -32.5730  -14.0470    5.2840 N.am  191  VAL191     -0.1980
     87  CA       -31.8930  -15.3100    5.4160 C.3   191  VAL191      0.1595
     88  C        -32.2460  -16.0410    6.7020 C.2   191  VAL191      0.2287
     89  O        -32.5010  -17.2180    6.6540 O.2   191  VAL191     -0.2864
     90  CB       -30.3600  -15.1420    5.2850 C.3   191  VAL191      0.0276
     91  CG1      -29.6580  -16.4590    5.4900 C.3   191  VAL191      0.0022
     92  CG2      -29.9970  -14.6400    3.8730 C.3   191  VAL191      0.0022
     93  N        -35.6070  -17.7240    6.3620 N.3   194  ARG194     -0.1245
     94  CA       -35.4660  -18.9460    5.5910 C.3   194  ARG194      0.1563
     95  C        -34.8420  -20.0920    6.4060 C.2   194  ARG194      0.2260
     96  O        -35.2280  -21.2380    6.2350 O.2   194  ARG194     -0.2867
     97  CB       -34.6600  -18.6850    4.3250 C.3   194  ARG194      0.0307
     98  CG       -35.2770  -17.6720    3.3620 C.3   194  ARG194      0.0489
     99  CD       -36.7910  -17.7770    3.2100 C.3   194  ARG194      0.2205
    100  NE       -37.4780  -16.5590    3.6660 N.pl3 194  ARG194     -0.0865
    101  CZ       -38.6420  -16.5020    4.3260 C.cat 194  ARG194      0.5346
    102  NH1      -39.3060  -17.6010    4.6900 N.pl3 194  ARG194      0.1354
    103  NH2      -39.1400  -15.3100    4.6520 N.pl3 194  ARG194      0.1354
    104  N        -37.6860  -21.2890    8.4910 N.3   197  ARG197     -0.1245
    105  CA       -38.5080  -22.1730    7.6390 C.3   197  ARG197      0.1563
    106  C        -37.9270  -23.5990    7.4550 C.2   197  ARG197      0.2260
    107  O        -38.6050  -24.6150    7.7260 O.2   197  ARG197     -0.2867
    108  CB       -38.6990  -21.5240    6.2690 C.3   197  ARG197      0.0307
    109  CG       -39.7250  -22.1930    5.3770 C.3   197  ARG197      0.0489
    110  CD       -40.1410  -21.2510    4.2530 C.3   197  ARG197      0.2205
    111  NE       -39.0960  -21.1130    3.2330 N.pl3 197  ARG197     -0.0865
    112  CZ       -39.0070  -20.1250    2.3420 C.cat 197  ARG197      0.5346
    113  NH1      -39.8890  -19.1330    2.3230 N.pl3 197  ARG197      0.1354
    114  NH2      -38.0100  -20.1260    1.4600 N.pl3 197  ARG197      0.1354
@<TRIPOS>BOND
     1    35    34    1
     2    35    36    1
     3    38    37    1
     4    34    33    1
     5    36    37    2
     6    37    39    1
     7    85    84   ar
     8    85    83   ar
     9    47    45    1
    10    84    82   ar
    11    20    19    1
    12    33    30    1
    13    83    81   ar
    14    46    45    1
    15   114   112    1
    16    28    26    1
    17    45    44    1
    18    66    64    1
    19    18    19   ar
    20    18    16   ar
    21    82    80   ar
    22    19    17   ar
    23    30    29    1
    24    30    31    1
    25    81    80   ar
    26    65    64    1
    27   113   112    1
    28   112   111    2
    29    80    79    1
    30    64    63    2
    31    27    26    1
    32    44    41    1
    33    16    14   ar
    34    26    25    1
    35    31    32    2
    36    17    15   ar
    37    99    98    1
    38    99   100    1
    39   111   110    1
    40    98    97    1
    41    63    62    1
    42   100   101    2
    43    79    76    1
    44    41    40    1
    45    41    42    1
    46    25    22    1
    47    92    90    1
    48     7     5    1
    49     8     6    1
    50    14    15   ar
    51    14    13    1
    52   110   109    1
    53    22    21    1
    54    22    23    1
    55    97    94    1
    56   101   103    1
    57   101   102    1
    58    24    23    2
    59    62    61    1
    60     6     5    1
    61    43    42    2
    62    42    48   am
    63    12    11    2
    64    78    77    2
    65    76    77    1
    66    76    75    1
    67    21    11   am
    68     5     2    1
    69    77    86   am
    70    11    10    1
    71    13    10    1
    72    86    87    1
    73    90    87    1
    74    90    91    1
    75   109   108    1
    76    87    88    1
    77     4     3    2
    78    94    93    1
    79    94    95    1
    80    61    60    1
    81    48    49    1
    82     2     3    1
    83     2     1    1
    84    10     9    1
    85    96    95    2
    86   108   105    1
    87    72    74    1
    88    72    71    1
    89    54    53    1
    90    54    55    1
    91    53    52    1
    92    89    88    2
    93    49    52    1
    94    49    50    1
    95    60    57    1
    96   106   105    1
    97   106   107    2
    98    68    71    1
    99    68    67    1
   100    68    69    1
   101    73    71    1
   102   105   104    1
   103    59    58    2
   104    57    58    1
   105    57    56    1
   106    50    51    2
   107    70    69    2
