@<TRIPOS>MOLECULE
tmp/4bvnA06.pdb
 102 96 0 0 0
SMALL
GASTEIGER

@<TRIPOS>ATOM
      1  N        -17.9970  -17.1770   15.6650 N.3    44  PHE44      -0.1241
      2  CA       -18.6580  -15.9470   15.1810 C.3    44  PHE44       0.1605
      3  C        -19.2850  -15.1480   16.3450 C.2    44  PHE44       0.2264
      4  O        -19.2360  -13.9330   16.3710 O.2    44  PHE44      -0.2867
      5  CB       -19.7010  -16.2650   14.1070 C.3    44  PHE44       0.0534
      6  CG       -19.1230  -16.8780   12.8570 C.ar   44  PHE44      -0.0203
      7  CD1      -18.0450  -16.2980   12.2110 C.ar   44  PHE44      -0.0042
      8  CD2      -19.6820  -18.0130   12.3060 C.ar   44  PHE44      -0.0042
      9  CE1      -17.5030  -16.8630   11.0710 C.ar   44  PHE44      -0.0003
     10  CE2      -19.1750  -18.5680   11.1520 C.ar   44  PHE44      -0.0003
     11  CZ       -18.0800  -18.0000   10.5280 C.ar   44  PHE44      -0.0000
     12  N        -25.1690  -11.0730   10.0510 N.3    98  CYS98      -0.1221
     13  CA       -25.5210  -11.4710    8.6910 C.3    98  CYS98       0.1808
     14  C        -24.6720  -12.6860    8.1870 C.2    98  CYS98       0.2601
     15  O        -25.1720  -13.5980    7.5170 O.2    98  CYS98      -0.2717
     16  CB       -25.4180  -10.2090    7.8290 C.3    98  CYS98       0.0970
     17  SG       -25.5890  -10.4590    6.0900 S.3    98  CYS98      -0.0800
     18  N        -23.4030  -12.7520    8.5510 N.am   99  VAL99      -0.1979
     19  CA       -22.5660  -13.9290    8.3070 C.3    99  VAL99       0.1595
     20  C        -23.0370  -15.1880    9.0580 C.2    99  VAL99       0.2287
     21  O        -23.0730  -16.3210    8.4880 O.2    99  VAL99      -0.2864
     22  CB       -21.1110  -13.5850    8.7070 C.3    99  VAL99       0.0276
     23  CG1      -20.2260  -14.8110    8.8180 C.3    99  VAL99       0.0022
     24  CG2      -20.5250  -12.5920    7.7060 C.3    99  VAL99       0.0022
     25  N        -26.1180  -16.5620    7.1780 N.3   102  ILE102     -0.1231
     26  CA       -25.7560  -17.2520    5.9160 C.3   102  ILE102      0.1692
     27  C        -25.0780  -18.5650    6.1750 C.2   102  ILE102      0.2592
     28  O        -25.3880  -19.5490    5.5490 O.2   102  ILE102     -0.2718
     29  CB       -24.9030  -16.3100    5.0400 C.3   102  ILE102      0.0266
     30  CG1      -25.7940  -15.1720    4.5390 C.3   102  ILE102      0.0019
     31  CG2      -24.1690  -17.0420    3.9220 C.3   102  ILE102      0.0020
     32  CD1      -24.9940  -13.9510    4.0770 C.3   102  ILE102      0.0001
     33  N        -24.1730  -18.5830    7.1350 N.am  103  ASP103     -0.1974
     34  CA       -23.4240  -19.7490    7.5160 C.3   103  ASP103      0.1709
     35  C        -24.3360  -20.9150    7.9250 C.2   103  ASP103      0.2293
     36  O        -24.1320  -22.0700    7.5080 O.2   103  ASP103     -0.2864
     37  CB       -22.5410  -19.3460    8.7050 C.3   103  ASP103      0.1436
     38  CG       -21.7390  -20.5090    9.2740 C.2   103  ASP103      0.3671
     39  OD1      -20.7680  -20.9020    8.5920 O.co2 103  ASP103     -0.2456
     40  OD2      -22.0530  -21.0220   10.3880 O.co2 103  ASP103     -0.2456
     41  N        -26.4060  -22.3690    5.0370 N.3   106  LEU106     -0.1245
     42  CA       -25.5970  -23.3240    4.2740 C.3   106  LEU106      0.1561
     43  C        -25.3170  -24.6110    5.0660 C.2   106  LEU106      0.2260
     44  O        -25.2220  -25.6920    4.4980 O.2   106  LEU106     -0.2867
     45  CB       -24.2800  -22.6690    3.8680 C.3   106  LEU106      0.0270
     46  CG       -24.4290  -21.5170    2.8690 C.3   106  LEU106      0.0019
     47  CD1      -23.0570  -20.9750    2.5450 C.3   106  LEU106      0.0001
     48  CD2      -25.1400  -21.9410    1.5710 C.3   106  LEU106      0.0001
     49  N        -20.7640  -28.6800    3.8760 N.3   114  TYR114     -0.1241
     50  CA       -20.3630  -27.6630    4.8350 C.3   114  TYR114      0.1605
     51  C        -19.3140  -28.1890    5.8140 C.2   114  TYR114      0.2264
     52  O        -18.3290  -27.5210    6.1280 O.2   114  TYR114     -0.2867
     53  CB       -21.6020  -27.1670    5.6060 C.3   114  TYR114      0.0534
     54  CG       -21.2770  -26.1240    6.6480 C.ar  114  TYR114     -0.0201
     55  CD1      -20.7870  -26.4930    7.8880 C.ar  114  TYR114     -0.0009
     56  CD2      -21.4330  -24.7590    6.3850 C.ar  114  TYR114     -0.0009
     57  CE1      -20.4640  -25.5490    8.8390 C.ar  114  TYR114      0.0417
     58  CE2      -21.1230  -23.8030    7.3500 C.ar  114  TYR114      0.0417
     59  CZ       -20.6450  -24.2000    8.5700 C.ar  114  TYR114      0.1957
     60  OH       -20.3040  -23.2750    9.5550 O.3   114  TYR114     -0.2866
     61  N        -15.6330  -26.2570    5.8130 N.3   118  MET118     -0.1245
     62  CA       -15.4240  -25.1920    6.7920 C.3   118  MET118      0.1570
     63  C        -14.4780  -25.6080    7.9200 C.2   118  MET118      0.2261
     64  O        -14.5790  -26.7250    8.4400 O.2   118  MET118     -0.2867
     65  CB       -16.7620  -24.7560    7.3950 C.3   118  MET118      0.0387
     66  CG       -17.4760  -23.6760    6.5990 C.3   118  MET118      0.0595
     67  SD       -16.5420  -22.1390    6.5170 S.3   118  MET118     -0.1393
     68  CE       -16.3470  -21.7380    8.2510 C.3   118  MET118      0.0692
     69  N        -12.8800  -15.2820    7.7730 N.3   126  ILE126     -0.1245
     70  CA       -14.1310  -14.5530    7.5460 C.3   126  ILE126      0.1561
     71  C        -14.2930  -13.3680    8.5470 C.2   126  ILE126      0.2260
     72  O        -14.6350  -12.2760    8.1460 O.2   126  ILE126     -0.2867
     73  CB       -15.3130  -15.5340    7.5850 C.3   126  ILE126      0.0252
     74  CG1      -15.2460  -16.4240    6.3270 C.3   126  ILE126      0.0019
     75  CG2      -16.6530  -14.8040    7.5840 C.3   126  ILE126      0.0019
     76  CD1      -16.1600  -17.6170    6.3760 C.3   126  ILE126      0.0001
     77  N        -30.5980   -8.3280    4.7810 N.3   187  ILE187     -0.1245
     78  CA       -30.0720   -9.6400    4.4490 C.3   187  ILE187      0.1561
     79  C        -30.1310  -10.6240    5.6160 C.2   187  ILE187      0.2260
     80  O        -30.5300  -11.7640    5.4260 O.2   187  ILE187     -0.2867
     81  CB       -28.6220   -9.5780    3.9200 C.3   187  ILE187      0.0252
     82  CG1      -28.5530   -8.8650    2.5470 C.3   187  ILE187      0.0019
     83  CG2      -28.0730  -10.9890    3.7380 C.3   187  ILE187      0.0019
     84  CD1      -27.1110   -8.5770    2.0620 C.3   187  ILE187      0.0001
     85  N        -33.8510  -11.6080    6.1250 N.3   190  PHE190     -0.1227
     86  CA       -34.3650  -12.4520    5.0280 C.3   190  PHE190      0.1736
     87  C        -33.8770  -13.9030    5.1230 C.2   190  PHE190      0.2595
     88  O        -34.6650  -14.8580    4.9880 O.2   190  PHE190     -0.2718
     89  CB       -33.9790  -11.8570    3.6660 C.3   190  PHE190      0.0547
     90  CG       -34.4760  -12.6550    2.4870 C.ar  190  PHE190     -0.0202
     91  CD1      -35.7670  -12.4760    2.0020 C.ar  190  PHE190     -0.0042
     92  CD2      -33.6630  -13.5990    1.8690 C.ar  190  PHE190     -0.0042
     93  CE1      -36.2420  -13.2310    0.9140 C.ar  190  PHE190     -0.0003
     94  CE2      -34.1250  -14.3510    0.7890 C.ar  190  PHE190     -0.0003
     95  CZ       -35.4070  -14.1610    0.3000 C.ar  190  PHE190     -0.0000
     96  N        -32.5730  -14.0470    5.2840 N.am  191  VAL191     -0.1980
     97  CA       -31.8930  -15.3100    5.4160 C.3   191  VAL191      0.1595
     98  C        -32.2460  -16.0410    6.7020 C.2   191  VAL191      0.2287
     99  O        -32.5010  -17.2180    6.6540 O.2   191  VAL191     -0.2864
    100  CB       -30.3600  -15.1420    5.2850 C.3   191  VAL191      0.0276
    101  CG1      -29.6580  -16.4590    5.4900 C.3   191  VAL191      0.0022
    102  CG2      -29.9970  -14.6400    3.8730 C.3   191  VAL191      0.0022
@<TRIPOS>BOND
     1    95    94   ar
     2    95    93   ar
     3    94    92   ar
     4    93    91   ar
     5    48    46    1
     6    92    90   ar
     7    91    90   ar
     8    84    82    1
     9    90    89    1
    10    47    46    1
    11    82    81    1
    12    46    45    1
    13    89    86    1
    14    83    81    1
    15    45    42    1
    16   102   100    1
    17    49    50    1
    18    81    78    1
    19    31    29    1
    20    32    30    1
    21    42    41    1
    22    42    43    1
    23    78    77    1
    24    78    79    1
    25    44    43    2
    26    30    29    1
    27    50    53    1
    28    50    51    1
    29    88    87    2
    30    86    87    1
    31    86    85    1
    32    29    26    1
    33    87    96   am
    34    96    97    1
    35   100    97    1
    36   100   101    1
    37    97    98    1
    38    80    79    2
    39    28    27    2
    40    53    54    1
    41    61    62    1
    42    51    52    2
    43    26    27    1
    44    26    25    1
    45    17    16    1
    46    27    33   am
    47    74    76    1
    48    74    73    1
    49    56    54   ar
    50    56    58   ar
    51    67    66    1
    52    67    68    1
    53    66    65    1
    54    54    55   ar
    55    99    98    2
    56    62    65    1
    57    62    63    1
    58    33    34    1
    59    58    59   ar
    60    36    35    2
    61    34    35    1
    62    34    37    1
    63    15    14    2
    64    70    73    1
    65    70    69    1
    66    70    71    1
    67    75    73    1
    68    24    22    1
    69    16    13    1
    70    55    57   ar
    71    63    64    2
    72    72    71    2
    73    14    18   am
    74    14    13    1
    75    19    18    1
    76    19    22    1
    77    19    20    1
    78    21    20    2
    79    59    57   ar
    80    59    60    1
    81    39    38   ar
    82    13    12    1
    83    37    38    1
    84    22    23    1
    85    38    40   ar
    86    11     9   ar
    87    11    10   ar
    88     9     7   ar
    89    10     8   ar
    90     7     6   ar
    91     8     6   ar
    92     6     5    1
    93     5     2    1
    94     2     1    1
    95     2     3    1
    96     3     4    2
