@<TRIPOS>MOLECULE
tmp/4bvnA01.pdb
 127 124 0 0 0
SMALL
GASTEIGER

@<TRIPOS>ATOM
      1  N        -12.8420   -0.1550    7.0460 N.3   136  LEU136     -0.1231
      2  CA       -12.9100    0.6100    5.7820 C.3   136  LEU136      0.1693
      3  C        -14.1410    1.5030    5.6600 C.2   136  LEU136      0.2591
      4  O        -14.0100    2.7480    5.5020 O.2   136  LEU136     -0.2718
      5  CB       -12.8300   -0.3310    4.5760 C.3   136  LEU136      0.0284
      6  CG       -13.0090    0.3080    3.1960 C.3   136  LEU136      0.0019
      7  CD1      -11.7390    1.0730    2.8360 C.3   136  LEU136      0.0001
      8  CD2      -13.3970   -0.7110    2.1200 C.3   136  LEU136      0.0001
      9  N        -15.3440    0.9130    5.7310 N.am  137  VAL137     -0.1980
     10  CA       -16.5720    1.7570    5.6040 C.3   137  VAL137      0.1595
     11  C        -16.7930    2.7630    6.7640 C.2   137  VAL137      0.2287
     12  O        -17.5300    3.7630    6.6190 O.2   137  VAL137     -0.2864
     13  CB       -17.8150    0.9230    5.3460 C.3   137  VAL137      0.0276
     14  CG1      -17.5350   -0.0660    4.2160 C.3   137  VAL137      0.0022
     15  CG2      -18.2750    0.1790    6.6010 C.3   137  VAL137      0.0022
     16  N        -12.7020    5.3810    7.1110 N.3   140  LEU140     -0.1231
     17  CA       -12.2880    6.1630    5.9470 C.3   140  LEU140      0.1678
     18  C        -13.1550    7.4080    5.7670 C.2   140  LEU140      0.2434
     19  O        -12.6020    8.5190    5.6250 O.2   140  LEU140     -0.2733
     20  CB       -12.2660    5.2960    4.6510 C.3   140  LEU140      0.0284
     21  CG       -12.0410    6.0750    3.3610 C.3   140  LEU140      0.0019
     22  CD1      -10.6780    6.7520    3.4640 C.3   140  LEU140      0.0001
     23  CD2      -12.1120    5.2120    2.0960 C.3   140  LEU140      0.0001
     24  N        -14.5080    7.2470    5.7830 N.am  141  PRO141     -0.2729
     25  CA       -15.3290    8.4600    5.5740 C.3   141  PRO141      0.1401
     26  C        -15.1710    9.5190    6.6840 C.2   141  PRO141      0.2269
     27  O        -15.1920   10.7490    6.4110 O.2   141  PRO141     -0.2865
     28  CB       -16.7600    7.9110    5.4660 C.3   141  PRO141      0.0296
     29  CG       -16.5590    6.5330    4.9320 C.3   141  PRO141      0.0237
     30  CD       -15.3000    6.0200    5.5610 C.3   141  PRO141      0.0939
     31  N        -15.8920   13.3310    4.9560 N.3   146  TRP146     -0.1241
     32  CA       -17.0160   13.2840    4.0190 C.3   146  TRP146      0.1605
     33  C        -18.3750   13.5020    4.7020 C.2   146  TRP146      0.2264
     34  O        -19.4050   13.6680    4.0390 O.2   146  TRP146     -0.2867
     35  CB       -17.0390   11.9530    3.2770 C.3   146  TRP146      0.0550
     36  CG       -15.8880   11.7230    2.3600 C.ar  146  TRP146      0.0003
     37  CD1      -15.0080   12.6690    1.8700 C.ar  146  TRP146      0.0946
     38  CD2      -15.4890   10.4780    1.7940 C.ar  146  TRP146      0.0152
     39  NE1      -14.0850   12.0710    1.0540 N.ar  146  TRP146     -0.2442
     40  CE2      -14.3580   10.7280    0.9820 C.ar  146  TRP146      0.0810
     41  CE3      -15.9680    9.1700    1.8990 C.ar  146  TRP146      0.0012
     42  CZ2      -13.7070    9.7110    0.2580 C.ar  146  TRP146      0.0191
     43  CZ3      -15.3290    8.1660    1.1820 C.ar  146  TRP146      0.0001
     44  CH2      -14.2090    8.4450    0.3770 C.ar  146  TRP146      0.0015
     45  N        -18.9240   15.9700    7.0210 N.3   148  ARG148     -0.1231
     46  CA       -19.1810   17.3400    7.5110 C.3   148  ARG148      0.1694
     47  C        -20.3330   18.0750    6.7880 C.2   148  ARG148      0.2592
     48  O        -20.4900   17.9130    5.5970 O.2   148  ARG148     -0.2718
     49  CB       -17.8760   18.1360    7.4910 C.3   148  ARG148      0.0321
     50  CG       -16.8440   17.4790    8.4080 C.3   148  ARG148      0.0489
     51  CD       -15.8120   18.4110    9.0130 C.3   148  ARG148      0.2205
     52  NE       -15.1380   17.7210   10.1240 N.pl3 148  ARG148     -0.0865
     53  CZ       -14.3840   18.3000   11.0650 C.cat 148  ARG148      0.5346
     54  NH1      -14.1760   19.6110   11.0680 N.pl3 148  ARG148      0.1354
     55  NH2      -13.8330   17.5500   12.0180 N.pl3 148  ARG148      0.1354
     56  N        -21.1320   18.8230    7.5640 N.am  149  ASP149     -0.1960
     57  CA       -22.2370   19.6380    7.1350 C.3   149  ASP149      0.1840
     58  C        -21.8060   21.1210    7.1290 C.2   149  ASP149      0.2621
     59  O        -20.9130   21.5070    7.8510 O.2   149  ASP149     -0.2715
     60  CB       -23.3940   19.4800    8.1120 C.3   149  ASP149      0.1450
     61  CG       -24.7190   20.0980    7.6010 C.2   149  ASP149      0.3671
     62  OD1      -25.1260   19.7160    6.4770 O.co2 149  ASP149     -0.2456
     63  OD2      -25.3490   20.9500    8.3320 O.co2 149  ASP149     -0.2456
     64  N        -22.4820   21.9470    6.3540 N.am  150  GLU150     -0.1977
     65  CA       -22.0540   23.3260    6.1320 C.3   150  GLU150      0.1602
     66  C        -22.9220   24.3660    6.8670 C.2   150  GLU150      0.2287
     67  O        -22.6050   25.5360    6.8650 O.2   150  GLU150     -0.2864
     68  CB       -21.9740   23.5690    4.6020 C.3   150  GLU150      0.0415
     69  CG       -21.5960   24.9660    4.0930 C.3   150  GLU150      0.1163
     70  CD       -20.4620   25.6540    4.8510 C.2   150  GLU150      0.3649
     71  OE1      -19.4780   24.9830    5.2460 O.co2 150  GLU150     -0.2457
     72  OE2      -20.5590   26.8850    5.0500 O.co2 150  GLU150     -0.2457
     73  N        -23.9920   15.7870    7.0280 N.3   169  ASN169     -0.1225
     74  CA       -24.7950   16.1660    5.8520 C.3   169  ASN169      0.1785
     75  C        -25.6720   14.9570    5.4840 C.2   169  ASN169      0.2597
     76  O        -25.4300   13.8220    5.9440 O.2   169  ASN169     -0.2718
     77  CB       -23.8560   16.5990    4.7310 C.3   169  ASN169      0.1169
     78  CG       -23.0270   15.4440    4.1960 C.2   169  ASN169      0.2627
     79  OD1      -23.5810   14.4980    3.6610 O.2   169  ASN169     -0.2716
     80  ND2      -21.7140   15.5140    4.3320 N.am  169  ASN169     -0.0877
     81  N        -26.6740   15.1910    4.6570 N.am  170  ARG170     -0.1966
     82  CA       -27.6700   14.2120    4.3270 C.3   170  ARG170      0.1729
     83  C        -27.1180   13.0720    3.5400 C.2   170  ARG170      0.2616
     84  O        -27.4070   11.8970    3.8180 O.2   170  ARG170     -0.2715
     85  CB       -28.8330   14.8350    3.5770 C.3   170  ARG170      0.0348
     86  CG       -29.4680   15.9290    4.3750 C.3   170  ARG170      0.0492
     87  CD       -30.6200   16.4870    3.5740 C.3   170  ARG170      0.2205
     88  NE       -31.4230   17.4620    4.3220 N.pl3 170  ARG170     -0.0865
     89  CZ       -32.5690   17.9840    3.8800 C.cat 170  ARG170      0.5346
     90  NH1      -33.0690   17.6340    2.6850 N.pl3 170  ARG170      0.1354
     91  NH2      -33.2300   18.8620    4.6320 N.pl3 170  ARG170      0.1354
     92  N        -26.2390   13.3980    2.6150 N.am  171  ALA171     -0.1963
     93  CA       -25.6660   12.3970    1.7610 C.3   171  ALA171      0.1728
     94  C        -24.9590   11.3160    2.5570 C.2   171  ALA171      0.2616
     95  O        -25.1230   10.1250    2.2940 O.2   171  ALA171     -0.2715
     96  CB       -24.6880   13.0340    0.7600 C.3   171  ALA171      0.0334
     97  N        -24.0580   11.7550    3.4140 N.am  172  TYR172     -0.1974
     98  CA       -23.3160   10.8630    4.3090 C.3   172  TYR172      0.1639
     99  C        -24.2730   10.0820    5.2140 C.2   172  TYR172      0.2290
    100  O        -24.1580    8.8210    5.3140 O.2   172  TYR172     -0.2864
    101  CB       -22.2370   11.6210    5.1050 C.3   172  TYR172      0.0560
    102  CG       -21.6320   10.7280    6.1470 C.ar  172  TYR172     -0.0198
    103  CD1      -22.2440   10.6170    7.4080 C.ar  172  TYR172     -0.0009
    104  CD2      -20.5280    9.9500    5.8780 C.ar  172  TYR172     -0.0009
    105  CE1      -21.7640    9.7600    8.3710 C.ar  172  TYR172      0.0417
    106  CE2      -20.0360    9.0590    6.8540 C.ar  172  TYR172      0.0417
    107  CZ       -20.6750    8.9570    8.0960 C.ar  172  TYR172      0.1957
    108  OH       -20.2500    8.1130    9.1290 O.3   172  TYR172     -0.2866
    109  N        -26.1050    7.3330    3.0770 N.3   175  ALA175     -0.1231
    110  CA       -25.2210    6.3520    2.4680 C.3   175  ALA175      0.1694
    111  C        -24.5170    5.5070    3.5490 C.2   175  ALA175      0.2592
    112  O        -24.4790    4.2610    3.4740 O.2   175  ALA175     -0.2718
    113  CB       -24.1980    7.0580    1.5880 C.3   175  ALA175      0.0304
    114  N        -24.0050    6.1560    4.5890 N.am  176  SER176     -0.1952
    115  CA       -23.3700    5.3910    5.6340 C.3   176  SER176      0.1924
    116  C        -24.3690    4.4510    6.3260 C.2   176  SER176      0.2314
    117  O        -24.0470    3.2810    6.6050 O.2   176  SER176     -0.2863
    118  CB       -22.6830    6.2740    6.6440 C.3   176  SER176      0.2116
    119  OG       -23.5960    7.0210    7.4240 O.3   176  SER176     -0.2180
    120  N        -25.1360    1.3530    4.0710 N.3   179  ILE179     -0.1245
    121  CA       -24.0020    0.4610    3.8840 C.3   179  ILE179      0.1561
    122  C        -23.5670   -0.1870    5.1660 C.2   179  ILE179      0.2260
    123  O        -23.1010   -1.3410    5.1500 O.2   179  ILE179     -0.2867
    124  CB       -22.7920    1.2320    3.2900 C.3   179  ILE179      0.0252
    125  CG1      -22.9890    1.5520    1.8090 C.3   179  ILE179      0.0019
    126  CG2      -21.5120    0.4410    3.3930 C.3   179  ILE179      0.0019
    127  CD1      -21.9240    2.4820    1.2550 C.3   179  ILE179      0.0001
@<TRIPOS>BOND
     1    42    44   ar
     2    42    40   ar
     3    44    43   ar
     4    96    93    1
     5    40    39   ar
     6    40    38   ar
     7    39    37   ar
     8    43    41   ar
     9   127   125    1
    10   113   110    1
    11    93    94    1
    12    93    92    1
    13    38    41   ar
    14    38    36   ar
    15   125   124    1
    16    37    36   ar
    17    23    21    1
    18     8     6    1
    19    95    94    2
    20    36    35    1
    21   110   109    1
    22   110   111    1
    23    94    97   am
    24    92    83   am
    25    90    89    1
    26     7     6    1
    27     6     5    1
    28    35    32    1
    29   124   126    1
    30   124   121    1
    31    21    22    1
    32    21    20    1
    33    97    98    1
    34   112   111    2
    35    83    84    2
    36    83    82    1
    37   111   114   am
    38    87    88    1
    39    87    86    1
    40    85    82    1
    41    85    86    1
    42    79    78    2
    43    89    88    2
    44    89    91    1
    45   121   120    1
    46   121   122    1
    47    32    33    1
    48    32    31    1
    49    34    33    2
    50    69    68    1
    51    69    70    1
    52    78    80   am
    53    78    77    1
    54    14    13    1
    55    98   101    1
    56    98    99    1
    57    82    81    1
    58     5     2    1
    59   114   115    1
    60    68    65    1
    61    20    17    1
    62    81    75   am
    63    77    74    1
    64    70    72   ar
    65    70    71   ar
    66    29    28    1
    67    29    30    1
    68   101   102    1
    69   123   122    2
    70    99   100    2
    71    13    10    1
    72    13    15    1
    73    28    25    1
    74    75    74    1
    75    75    76    2
    76     4     3    2
    77    30    24    1
    78    25    24    1
    79    25    26    1
    80    48    47    2
    81    10     9    1
    82    10    11    1
    83    19    18    2
    84   115   116    1
    85   115   118    1
    86     3     9   am
    87     3     2    1
    88    18    24   am
    89    18    17    1
    90     2     1    1
    91    74    73    1
    92   104   102   ar
    93   104   106   ar
    94    17    16    1
    95    65    64    1
    96    65    66    1
    97   102   103   ar
    98   116   117    2
    99    64    58   am
   100    27    26    2
   101    62    61   ar
   102    12    11    2
   103   118   119    1
   104    47    46    1
   105    47    56   am
   106   106   107   ar
   107    67    66    2
   108    45    46    1
   109    58    57    1
   110    58    59    2
   111    57    56    1
   112    57    60    1
   113   103   105   ar
   114    49    46    1
   115    49    50    1
   116    61    60    1
   117    61    63   ar
   118   107   105   ar
   119   107   108    1
   120    50    51    1
   121    51    52    1
   122    52    53    2
   123    53    54    1
   124    53    55    1
