@<TRIPOS>MOLECULE
tmp/4bvnA04.pdb
 98 96 0 0 0
SMALL
GASTEIGER

@<TRIPOS>ATOM
      1  N        -27.6170   14.4690   40.3530 N.3     5  TRP5       -0.1241
      2  CA       -27.8180   13.8930   39.0310 C.3     5  TRP5        0.1605
      3  C        -26.4790   13.4440   38.4250 C.2     5  TRP5        0.2264
      4  O        -26.4080   12.3810   37.8190 O.2     5  TRP5       -0.2867
      5  CB       -28.4930   14.8910   38.1010 C.3     5  TRP5        0.0550
      6  CG       -28.9400   14.2740   36.8230 C.ar    5  TRP5        0.0003
      7  CD1      -30.0700   13.5330   36.6250 C.ar    5  TRP5        0.0946
      8  CD2      -28.2690   14.3320   35.5580 C.ar    5  TRP5        0.0152
      9  NE1      -30.1490   13.1310   35.3100 N.ar    5  TRP5       -0.2442
     10  CE2      -29.0570   13.6060   34.6340 C.ar    5  TRP5        0.0810
     11  CE3      -27.0800   14.9290   35.1140 C.ar    5  TRP5        0.0012
     12  CZ2      -28.6920   13.4550   33.2920 C.ar    5  TRP5        0.0191
     13  CZ3      -26.7260   14.7870   33.7860 C.ar    5  TRP5        0.0001
     14  CH2      -27.5290   14.0560   32.8880 C.ar    5  TRP5        0.0015
     15  N        -26.1760    9.5340   37.9450 N.3     9  MET9       -0.1245
     16  CA       -25.7900    8.9860   36.6430 C.3     9  MET9        0.1570
     17  C        -24.4080    8.3240   36.6150 C.2     9  MET9        0.2261
     18  O        -24.2260    7.3240   35.9160 O.2     9  MET9       -0.2867
     19  CB       -25.8590   10.0750   35.5670 C.3     9  MET9        0.0387
     20  CG       -27.2740   10.4180   35.1240 C.3     9  MET9        0.0595
     21  SD       -28.0110    9.1800   34.0250 S.3     9  MET9       -0.1393
     22  CE       -29.2850   10.1490   33.2170 C.3     9  MET9        0.0692
     23  N        -24.8410    4.7260   37.9930 N.3    12  LEU12      -0.1231
     24  CA       -25.5670    3.9450   36.9990 C.3    12  LEU12       0.1693
     25  C        -24.6440    3.5780   35.7790 C.2    12  LEU12       0.2591
     26  O        -24.6180    2.4170   35.3600 O.2    12  LEU12      -0.2718
     27  CB       -26.8300    4.7030   36.5600 C.3    12  LEU12       0.0284
     28  CG       -27.4310    4.3670   35.2020 C.3    12  LEU12       0.0019
     29  CD1      -27.9770    2.9490   35.1370 C.3    12  LEU12       0.0001
     30  CD2      -28.5060    5.3720   34.8410 C.3    12  LEU12       0.0001
     31  N        -23.8800    4.5460   35.2570 N.am   13  MET13      -0.1979
     32  CA       -22.9620    4.3090   34.1060 C.3    13  MET13       0.1605
     33  C        -21.8720    3.2940   34.4230 C.2    13  MET13       0.2287
     34  O        -21.5170    2.4980   33.5610 O.2    13  MET13      -0.2864
     35  CB       -22.2630    5.5830   33.6620 C.3    13  MET13       0.0413
     36  CG       -23.1730    6.5990   33.0100 C.3    13  MET13       0.0598
     37  SD       -24.0200    5.9460   31.5740 S.3    13  MET13      -0.1393
     38  CE       -24.6700    7.5000   30.9170 C.3    13  MET13       0.0692
     39  N        -22.6420   12.6230   28.6440 N.3    67  VAL67      -0.1245
     40  CA       -24.0160   12.5850   29.1600 C.3    67  VAL67       0.1561
     41  C        -24.1230   13.3730   30.4790 C.2    67  VAL67       0.2260
     42  O        -25.0150   14.2160   30.6030 O.2    67  VAL67      -0.2867
     43  CB       -24.5360   11.1070   29.2950 C.3    67  VAL67       0.0252
     44  CG1      -25.6050   10.9570   30.3780 C.3    67  VAL67       0.0019
     45  CG2      -25.0900   10.6180   27.9520 C.3    67  VAL67       0.0019
     46  N        -22.4560   17.0580   30.1240 N.3    70  GLY70      -0.1225
     47  CA       -23.0890   17.8560   29.0710 C.3    70  GLY70       0.1811
     48  C        -22.1310   18.6380   28.1660 C.2    70  GLY70       0.2280
     49  O        -22.5490   19.5840   27.5270 O.2    70  GLY70      -0.2866
     50  N        -32.6180   16.5520   20.8550 N.3   253  LYS253     -0.1231
     51  CA       -31.3260   15.9660   21.1930 C.3   253  LYS253      0.1693
     52  C        -31.4180   14.8820   22.2690 C.2   253  LYS253      0.2592
     53  O        -30.8330   13.7950   22.1170 O.2   253  LYS253     -0.2718
     54  CB       -30.3560   17.0760   21.6110 C.3   253  LYS253      0.0285
     55  CG       -28.9540   16.6310   21.9700 C.3   253  LYS253      0.0035
     56  CD       -28.2480   17.7270   22.7570 C.3   253  LYS253      0.0206
     57  CE       -26.8800   17.2900   23.2460 C.3   253  LYS253      0.1093
     58  NZ       -25.9200   17.3780   22.1170 N.3   253  LYS253     -0.1314
     59  N        -32.1080   15.1640   23.3630 N.am  254  TRP254     -0.1976
     60  CA       -32.1670   14.1850   24.4650 C.3   254  TRP254      0.1640
     61  C        -32.8740   12.8710   24.0410 C.2   254  TRP254      0.2290
     62  O        -32.5700   11.7880   24.5230 O.2   254  TRP254     -0.2864
     63  CB       -32.8240   14.8020   25.6950 C.3   254  TRP254      0.0576
     64  CG       -34.3250   15.0000   25.5410 C.ar  254  TRP254      0.0006
     65  CD1      -34.9710   16.1080   25.0510 C.ar  254  TRP254      0.0946
     66  CD2      -35.3540   14.0500   25.8610 C.ar  254  TRP254      0.0152
     67  NE1      -36.3340   15.9110   25.0660 N.ar  254  TRP254     -0.2442
     68  CE2      -36.5990   14.6610   25.5610 C.ar  254  TRP254      0.0810
     69  CE3      -35.3490   12.7430   26.3720 C.ar  254  TRP254      0.0012
     70  CZ2      -37.8230   14.0130   25.7640 C.ar  254  TRP254      0.0191
     71  CZ3      -36.5860   12.1030   26.5810 C.ar  254  TRP254      0.0001
     72  CH2      -37.7860   12.7330   26.2660 C.ar  254  TRP254      0.0015
     73  N        -30.3990   10.9730   21.8490 N.3   257  VAL257     -0.1231
     74  CA       -29.4970   10.3440   22.7960 C.3   257  VAL257      0.1692
     75  C        -30.1200    9.1110   23.4240 C.2   257  VAL257      0.2591
     76  O        -29.4650    8.0970   23.5550 O.2   257  VAL257     -0.2718
     77  CB       -29.0230   11.3380   23.8760 C.3   257  VAL257      0.0266
     78  CG1      -28.3000   10.6280   25.0300 C.3   257  VAL257      0.0020
     79  CG2      -28.1070   12.3840   23.2730 C.3   257  VAL257      0.0020
     80  N        -31.3950    9.1760   23.7950 N.am  258  ALA258     -0.1980
     81  CA       -32.0250    8.0350   24.4250 C.3   258  ALA258      0.1597
     82  C        -32.0560    6.8620   23.4610 C.2   258  ALA258      0.2287
     83  O        -31.8080    5.7250   23.8550 O.2   258  ALA258     -0.2864
     84  CB       -33.4450    8.3880   24.8900 C.3   258  ALA258      0.0319
     85  N        -28.7410    5.1790   23.2400 N.3   261  TRP261     -0.1241
     86  CA       -28.4660    4.3570   24.4300 C.3   261  TRP261      0.1605
     87  C        -29.2170    3.0510   24.4360 C.2   261  TRP261      0.2264
     88  O        -28.6990    2.0550   24.9170 O.2   261  TRP261     -0.2867
     89  CB       -28.6230    5.1650   25.7450 C.3   261  TRP261      0.0550
     90  CG       -27.3660    6.0340   25.9820 C.ar  261  TRP261      0.0003
     91  CD1      -27.1070    7.2680   25.4300 C.ar  261  TRP261      0.0946
     92  CD2      -26.1910    5.7030   26.7690 C.ar  261  TRP261      0.0152
     93  NE1      -25.8880    7.7330   25.8490 N.ar  261  TRP261     -0.2442
     94  CE2      -25.2920    6.7880   26.6430 C.ar  261  TRP261      0.0810
     95  CE3      -25.8210    4.5950   27.5690 C.ar  261  TRP261      0.0012
     96  CZ2      -24.0430    6.8100   27.2770 C.ar  261  TRP261      0.0191
     97  CZ3      -24.5900    4.6030   28.1720 C.ar  261  TRP261      0.0001
     98  CH2      -23.7100    5.7080   28.0350 C.ar  261  TRP261      0.0015
@<TRIPOS>BOND
     1    50    51    1
     2    51    54    1
     3    51    52    1
     4    54    55    1
     5    73    74    1
     6    55    56    1
     7    58    57    1
     8    53    52    2
     9    52    59   am
    10    56    57    1
    11    74    75    1
    12    74    77    1
    13    85    86    1
    14    79    77    1
    15    59    60    1
    16    75    76    2
    17    75    80   am
    18    82    83    2
    19    82    81    1
    20    80    81    1
    21    77    78    1
    22    61    60    1
    23    61    62    2
    24    81    84    1
    25    86    87    1
    26    86    89    1
    27    87    88    2
    28    60    63    1
    29    65    67   ar
    30    65    64   ar
    31    67    68   ar
    32    91    93   ar
    33    91    90   ar
    34    64    63    1
    35    64    66   ar
    36    68    70   ar
    37    68    66   ar
    38    89    90    1
    39    70    72   ar
    40    93    94   ar
    41    66    69   ar
    42    90    92   ar
    43    72    71   ar
    44    69    71   ar
    45    94    92   ar
    46    94    96   ar
    47    92    95   ar
    48    96    98   ar
    49    49    48    2
    50    95    97   ar
    51    45    43    1
    52    98    97   ar
    53    48    47    1
    54    39    40    1
    55    47    46    1
    56    40    43    1
    57    40    41    1
    58    43    44    1
    59    41    42    2
    60    38    37    1
    61    37    36    1
    62    14    12   ar
    63    14    13   ar
    64    36    35    1
    65    22    21    1
    66    12    10   ar
    67    34    33    2
    68    35    32    1
    69    13    11   ar
    70    21    20    1
    71    32    33    1
    72    32    31    1
    73    10     9   ar
    74    10     8   ar
    75    30    28    1
    76    11     8   ar
    77    20    19    1
    78    29    28    1
    79    28    27    1
    80    31    25   am
    81     9     7   ar
    82    26    25    2
    83     8     6   ar
    84    19    16    1
    85    25    24    1
    86    18    17    2
    87    27    24    1
    88    17    16    1
    89     7     6   ar
    90    16    15    1
    91     6     5    1
    92    24    23    1
    93     4     3    2
    94     5     2    1
    95     3     2    1
    96     2     1    1
