@<TRIPOS>MOLECULE
tmp/4bvnA02.pdb
 106 99 0 0 0
SMALL
GASTEIGER

@<TRIPOS>ATOM
      1  N        -29.6900  -10.1990    6.8060 N.3   188  MET188     -0.1230
      2  CA       -29.7300  -11.0460    7.9990 C.3   188  MET188      0.1702
      3  C        -31.1400  -11.5330    8.2700 C.2   188  MET188      0.2592
      4  O        -31.3590  -12.7340    8.4470 O.2   188  MET188     -0.2718
      5  CB       -29.1890  -10.2700    9.2360 C.3   188  MET188      0.0401
      6  CG       -29.4020  -10.9810   10.5720 C.3   188  MET188      0.0596
      7  SD       -29.3660   -9.8260   11.9350 S.3   188  MET188     -0.1393
      8  CE       -30.9830   -9.0660   11.8590 C.3   188  MET188      0.0692
      9  N        -32.0980  -10.6180    8.1900 N.am  189  ILE189     -0.1980
     10  CA       -33.4940  -10.9370    8.4610 C.3   189  ILE189      0.1595
     11  C        -34.0820  -11.9020    7.4070 C.2   189  ILE189      0.2287
     12  O        -34.7320  -12.8930    7.7640 O.2   189  ILE189     -0.2864
     13  CB       -34.3910   -9.6730    8.5300 C.3   189  ILE189      0.0276
     14  CG1      -34.0390   -8.8010    9.7440 C.3   189  ILE189      0.0022
     15  CG2      -35.8750  -10.0620    8.5500 C.3   189  ILE189      0.0022
     16  CD1      -34.7430   -7.4330    9.7500 C.3   189  ILE189      0.0001
     17  N        -32.3140  -15.3360    7.8340 N.3   192  ALA192     -0.1231
     18  CA       -32.7520  -15.9340    9.1110 C.3   192  ALA192      0.1694
     19  C        -34.1800  -16.5360    9.0450 C.2   192  ALA192      0.2591
     20  O        -34.4600  -17.5880    9.6050 O.2   192  ALA192     -0.2718
     21  CB       -32.6510  -14.9150   10.2500 C.3   192  ALA192      0.0304
     22  N        -35.0750  -15.8680    8.3360 N.am  193  LEU193     -0.1980
     23  CA       -36.4150  -16.3400    8.2100 C.3   193  LEU193      0.1596
     24  C        -36.4690  -17.6330    7.3630 C.2   193  LEU193      0.2287
     25  O        -37.2460  -18.5390    7.6510 O.2   193  LEU193     -0.2864
     26  CB       -37.2890  -15.2530    7.5940 C.3   193  LEU193      0.0297
     27  CG       -37.6780  -14.0880    8.4990 C.3   193  LEU193      0.0022
     28  CD1      -38.3810  -13.0270    7.6450 C.3   193  LEU193      0.0001
     29  CD2      -38.5740  -14.5450    9.6490 C.3   193  LEU193      0.0001
     30  N        -35.1620  -20.4170    9.6440 N.3   196  TYR196     -0.1241
     31  CA       -36.3030  -20.7790   10.4580 C.3   196  TYR196      0.1605
     32  C        -37.2900  -21.6840    9.7070 C.2   196  TYR196      0.2264
     33  O        -37.6700  -22.7450   10.2290 O.2   196  TYR196     -0.2867
     34  CB       -36.9920  -19.5170   10.9270 C.3   196  TYR196      0.0534
     35  CG       -38.1000  -19.6570   11.9200 C.ar  196  TYR196     -0.0201
     36  CD1      -38.2410  -20.7730   12.7280 C.ar  196  TYR196     -0.0009
     37  CD2      -38.9840  -18.6030   12.1100 C.ar  196  TYR196     -0.0009
     38  CE1      -39.2670  -20.8560   13.6600 C.ar  196  TYR196      0.0417
     39  CE2      -40.0040  -18.6760   13.0430 C.ar  196  TYR196      0.0417
     40  CZ       -40.1340  -19.8020   13.8130 C.ar  196  TYR196      0.1957
     41  OH       -41.1530  -19.8610   14.7280 O.3   196  TYR196     -0.2866
     42  N        -32.5460  -25.8790   19.1890 N.3   218  LYS218     -0.1245
     43  CA       -32.3620  -25.0530   20.3590 C.3   218  LYS218      0.1561
     44  C        -31.2000  -24.0510   20.1880 C.2   218  LYS218      0.2260
     45  O        -31.3270  -22.8890   20.6000 O.2   218  LYS218     -0.2867
     46  CB       -32.0780  -25.9140   21.5810 C.3   218  LYS218      0.0271
     47  CG       -33.2440  -26.7770   21.9950 C.3   218  LYS218      0.0035
     48  CD       -34.5100  -25.9650   22.1780 C.3   218  LYS218      0.0206
     49  CE       -35.4750  -26.6390   23.1520 C.3   218  LYS218      0.1093
     50  NZ       -36.7270  -25.8490   23.2820 N.3   218  LYS218     -0.1314
     51  N        -29.9830  -22.9790   17.3000 N.3   220  LEU220     -0.1231
     52  CA       -30.4460  -21.9950   16.2640 C.3   220  LEU220      0.1693
     53  C        -31.3680  -20.9290   16.8650 C.2   220  LEU220      0.2591
     54  O        -31.3040  -19.7360   16.4760 O.2   220  LEU220     -0.2718
     55  CB       -31.1730  -22.6630   15.1240 C.3   220  LEU220      0.0284
     56  CG       -30.3390  -23.4660   14.1060 C.3   220  LEU220      0.0019
     57  CD1      -31.3120  -24.0300   13.0600 C.3   220  LEU220      0.0001
     58  CD2      -29.2390  -22.6280   13.4440 C.3   220  LEU220      0.0001
     59  N        -32.2100  -21.3710   17.8110 N.am  221  LYS221     -0.1980
     60  CA       -33.1160  -20.4450   18.5220 C.3   221  LYS221      0.1596
     61  C        -32.3640  -19.3280   19.2560 C.2   221  LYS221      0.2287
     62  O        -32.7350  -18.1490   19.1580 O.2   221  LYS221     -0.2864
     63  CB       -33.9880  -21.1990   19.5100 C.3   221  LYS221      0.0298
     64  CG       -34.9980  -20.3180   20.1840 C.3   221  LYS221      0.0038
     65  CD       -36.0880  -21.1260   20.8240 C.3   221  LYS221      0.0206
     66  CE       -37.0040  -20.2080   21.5900 C.3   221  LYS221      0.1093
     67  NZ       -38.0070  -21.0070   22.3580 N.3   221  LYS221     -0.1314
     68  N        -31.3110  -16.7480   16.7500 N.3   224  GLY224     -0.1210
     69  CA       -32.4690  -15.9720   16.3260 C.3   224  GLY224      0.1956
     70  C        -32.8930  -14.8890   17.3360 C.2   224  GLY224      0.2611
     71  O        -33.1890  -13.7440   16.9550 O.2   224  GLY224     -0.2717
     72  N        -32.9180  -15.2530   18.6170 N.am  225  ILE225     -0.1979
     73  CA       -33.1670  -14.2940   19.6990 C.3   225  ILE225      0.1595
     74  C        -32.1960  -13.0850   19.6960 C.2   225  ILE225      0.2287
     75  O        -32.6380  -11.9280   19.7810 O.2   225  ILE225     -0.2864
     76  CB       -33.1420  -15.0000   21.0760 C.3   225  ILE225      0.0276
     77  CG1      -34.2490  -16.0540   21.1120 C.3   225  ILE225      0.0022
     78  CG2      -33.2950  -14.0020   22.2350 C.3   225  ILE225      0.0022
     79  CD1      -34.2560  -16.9370   22.3740 C.3   225  ILE225      0.0001
     80  N        -30.4450  -12.0250   17.1630 N.3   227  MET227     -0.1230
     81  CA       -30.8040  -11.2540   16.0110 C.3   227  MET227      0.1702
     82  C        -32.0490  -10.3630   16.1920 C.2   227  MET227      0.2592
     83  O        -32.0350   -9.1820   15.8210 O.2   227  MET227     -0.2718
     84  CB       -30.9590  -12.1720   14.8010 C.3   227  MET227      0.0401
     85  CG       -29.6530  -12.6600   14.1930 C.3   227  MET227      0.0596
     86  SD       -30.0100  -14.0360   13.0600 S.3   227  MET227     -0.1393
     87  CE       -28.3610  -14.7160   12.8370 C.3   227  MET227      0.0692
     88  N        -33.1270  -10.9000   16.7660 N.am  228  GLY228     -0.1957
     89  CA       -34.3130  -10.0820   16.9680 C.3   228  GLY228      0.1869
     90  C        -34.0750   -8.9490   17.9490 C.2   228  GLY228      0.2309
     91  O        -34.5780   -7.8410   17.7560 O.2   228  GLY228     -0.2863
     92  N        -32.0390   -6.1670   16.3210 N.3   231  THR231     -0.1203
     93  CA       -32.9860   -5.3760   15.5300 C.3   231  THR231      0.1994
     94  C        -33.8300   -4.3450   16.3090 C.2   231  THR231      0.2617
     95  O        -33.8760   -3.1290   15.9570 O.2   231  THR231     -0.2717
     96  CB       -33.9050   -6.3050   14.7030 C.3   231  THR231      0.1784
     97  OG1      -33.0980   -7.1510   13.8530 O.3   231  THR231     -0.2211
     98  CG2      -34.8020   -5.4700   13.8320 C.3   231  THR231      0.0376
     99  N        -34.4560   -4.8100   17.3980 N.am  232  LEU232     -0.1979
    100  CA       -35.2270   -3.9720   18.3030 C.3   232  LEU232      0.1596
    101  C        -34.3660   -2.8520   18.9280 C.2   232  LEU232      0.2287
    102  O        -34.8290   -1.7230   19.1690 O.2   232  LEU232     -0.2864
    103  CB       -35.8200   -4.7940   19.4540 C.3   232  LEU232      0.0297
    104  CG       -37.0790   -5.6500   19.3590 C.3   232  LEU232      0.0022
    105  CD1      -37.6190   -5.9070   20.7720 C.3   232  LEU232      0.0001
    106  CD2      -38.1690   -4.9920   18.5340 C.3   232  LEU232      0.0001
@<TRIPOS>BOND
     1     1     2    1
     2    24    25    2
     3    24    23    1
     4    11    12    2
     5    11    10    1
     6    26    23    1
     7    26    27    1
     8    28    27    1
     9    17    18    1
    10     2     3    1
    11     2     5    1
    12     9     3   am
    13     9    10    1
    14    23    22    1
    15     3     4    2
    16    22    19   am
    17    10    13    1
    18    27    29    1
    19    13    15    1
    20    13    14    1
    21    19    18    1
    22    19    20    2
    23    18    21    1
    24     5     6    1
    25    30    31    1
    26    32    33    2
    27    32    31    1
    28    14    16    1
    29    31    34    1
    30     6     7    1
    31    34    35    1
    32     8     7    1
    33    35    37   ar
    34    35    36   ar
    35    37    39   ar
    36    36    38   ar
    37    87    86    1
    38    39    40   ar
    39    57    56    1
    40    86    85    1
    41    58    56    1
    42    38    40   ar
    43    40    41    1
    44    98    96    1
    45    97    96    1
    46    56    55    1
    47    85    84    1
    48    96    93    1
    49    84    81    1
    50    55    52    1
    51    93    94    1
    52    93    92    1
    53    83    82    2
    54    95    94    2
    55    81    82    1
    56    81    80    1
    57    82    88   am
    58    52    53    1
    59    52    51    1
    60    94    99   am
    61    69    68    1
    62    69    70    1
    63    54    53    2
    64    88    89    1
    65    53    59   am
    66    71    70    2
    67    89    90    1
    68    70    72   am
    69    99   100    1
    70    91    90    2
    71    59    60    1
    72   100   101    1
    73   100   103    1
    74    60    61    1
    75    60    63    1
    76   106   104    1
    77    72    73    1
    78   101   102    2
    79    62    61    2
    80    42    43    1
    81   104   103    1
    82   104   105    1
    83    63    64    1
    84    74    73    1
    85    74    75    2
    86    73    76    1
    87    64    65    1
    88    44    43    1
    89    44    45    2
    90    43    46    1
    91    65    66    1
    92    76    77    1
    93    76    78    1
    94    77    79    1
    95    46    47    1
    96    66    67    1
    97    47    48    1
    98    48    49    1
    99    49    50    1
