@<TRIPOS>MOLECULE
tmp/4bvnA00.pdb
 192 186 0 0 0
SMALL
GASTEIGER

@<TRIPOS>ATOM
      1  N        -19.8630   12.6380   28.4780 N.3    66  LEU66      -0.1245
      2  CA       -20.6470   13.5870   27.6850 C.3    66  LEU66       0.1561
      3  C        -22.0150   13.7650   28.3200 C.2    66  LEU66       0.2260
      4  O        -22.4870   14.9050   28.5250 O.2    66  LEU66      -0.2867
      5  CB       -20.7900   13.0630   26.2670 C.3    66  LEU66       0.0270
      6  CG       -21.3710   13.9570   25.1530 C.3    66  LEU66       0.0019
      7  CD1      -20.7400   15.3400   25.1190 C.3    66  LEU66       0.0001
      8  CD2      -21.1340   13.2600   23.8300 C.3    66  LEU66       0.0001
      9  N        -13.3190    8.3560   18.9090 N.3    82  TRP82      -0.1227
     10  CA       -14.4990    7.8000   19.6000 C.3    82  TRP82       0.1737
     11  C        -15.6550    7.5020   18.6450 C.2    82  TRP82       0.2596
     12  O        -16.2250    6.3920   18.6770 O.2    82  TRP82      -0.2718
     13  CB       -14.9670    8.7730   20.6810 C.3    82  TRP82       0.0564
     14  CG       -16.2520    8.4600   21.3910 C.ar   82  TRP82       0.0003
     15  CD1      -16.4690    7.4040   22.2740 C.ar   82  TRP82       0.0946
     16  CD2      -17.4860    9.1940   21.3640 C.ar   82  TRP82       0.0152
     17  NE1      -17.7310    7.4420   22.7610 N.ar   82  TRP82      -0.2442
     18  CE2      -18.3900    8.5200   22.2190 C.ar   82  TRP82       0.0810
     19  CE3      -17.9150   10.3550   20.7260 C.ar   82  TRP82       0.0012
     20  CZ2      -19.6780    8.9740   22.4460 C.ar   82  TRP82       0.0191
     21  CZ3      -19.1990   10.8000   20.9720 C.ar   82  TRP82       0.0001
     22  CH2      -20.0610   10.1070   21.8050 C.ar   82  TRP82       0.0015
     23  N        -16.0200    8.5020   17.8270 N.am   83  THR83      -0.1953
     24  CA       -17.0400    8.3620   16.8280 C.3    83  THR83       0.1897
     25  C        -16.7980    7.2150   15.8590 C.2    83  THR83       0.2313
     26  O        -17.7120    6.4600   15.5550 O.2    83  THR83      -0.2863
     27  CB       -17.2040    9.6810   16.0590 C.3    83  THR83       0.1794
     28  OG1      -17.4680   10.7060   17.0090 O.3    83  THR83      -0.2208
     29  CG2      -18.3600    9.6260   15.0940 C.3    83  THR83       0.0378
     30  N        -17.1800    3.8500   17.6110 N.3    86  ASP86      -0.1225
     31  CA       -18.6260    3.6640   17.8290 C.3    86  ASP86       0.1805
     32  C        -19.2670    3.1180   16.5200 C.2    86  ASP86       0.2597
     33  O        -19.9200    2.0580   16.4900 O.2    86  ASP86      -0.2718
     34  CB       -19.2530    5.0070   18.2470 C.3    86  ASP86       0.1424
     35  CG       -20.6860    4.9010   18.6190 C.2    86  ASP86       0.3668
     36  OD1      -21.3650    3.9310   18.2290 O.co2  86  ASP86      -0.2456
     37  OD2      -21.1880    5.8560   19.2300 O.co2  86  ASP86      -0.2456
     38  N        -19.0740    3.8640   15.4440 N.am   87  VAL87      -0.1980
     39  CA       -19.5340    3.4430   14.1300 C.3    87  VAL87       0.1595
     40  C        -19.0130    2.0380   13.7090 C.2    87  VAL87       0.2287
     41  O        -19.7850    1.2180   13.1870 O.2    87  VAL87      -0.2864
     42  CB       -19.1500    4.4750   13.0720 C.3    87  VAL87       0.0276
     43  CG1      -19.4410    3.9180   11.6870 C.3    87  VAL87       0.0022
     44  CG2      -19.8890    5.7850   13.3120 C.3    87  VAL87       0.0022
     45  N        -20.7780   -0.9850   15.6870 N.3    90  VAL90      -0.1231
     46  CA       -22.1430   -1.2810   15.2110 C.3    90  VAL90       0.1692
     47  C        -22.0970   -2.0370   13.8670 C.2    90  VAL90       0.2592
     48  O        -22.8520   -3.0270   13.6430 O.2    90  VAL90      -0.2718
     49  CB       -23.0220   -0.0170   15.1720 C.3    90  VAL90       0.0266
     50  CG1      -24.4440   -0.3860   14.7870 C.3    90  VAL90       0.0020
     51  CG2      -23.0480    0.6530   16.5590 C.3    90  VAL90       0.0020
     52  N        -21.2320   -1.5530   12.9660 N.am   91  THR91      -0.1953
     53  CA       -21.0070   -2.1400   11.6590 C.3    91  THR91       0.1897
     54  C        -20.5320   -3.6240   11.7210 C.2    91  THR91       0.2313
     55  O        -21.1290   -4.5090   11.0450 O.2    91  THR91      -0.2863
     56  CB       -20.0040   -1.2740   10.8010 C.3    91  THR91       0.1794
     57  OG1      -20.4650    0.0790   10.6910 O.3    91  THR91      -0.2208
     58  CG2      -19.9300   -1.8110    9.3570 C.3    91  THR91       0.0378
     59  N        -19.0120   17.4570   20.6480 N.3   164  CYS164     -0.1235
     60  CA       -18.8080   16.2130   19.8800 C.3   164  CYS164      0.1677
     61  C        -20.1770   15.6260   19.4300 C.2   164  CYS164      0.2270
     62  O        -20.3870   14.4570   19.5650 O.2   164  CYS164     -0.2867
     63  CB       -18.0070   15.1590   20.6790 C.3   164  CYS164      0.0956
     64  SG       -17.3360   13.7570   19.7230 S.3   164  CYS164     -0.0801
     65  N        -22.4260   14.3220   16.4810 N.3   166  PHE166     -0.1241
     66  CA       -22.1350   13.8140   15.1370 C.3   166  PHE166      0.1605
     67  C        -23.1330   14.4700   14.1440 C.2   166  PHE166      0.2264
     68  O        -24.0580   13.8350   13.6550 O.2   166  PHE166     -0.2867
     69  CB       -22.2440   12.2670   15.0940 C.3   166  PHE166      0.0534
     70  CG       -21.5070   11.6060   13.9080 C.ar  166  PHE166     -0.0203
     71  CD1      -20.3810   12.1700   13.3320 C.ar  166  PHE166     -0.0042
     72  CD2      -21.9510   10.3820   13.3990 C.ar  166  PHE166     -0.0042
     73  CE1      -19.7140   11.5450   12.2660 C.ar  166  PHE166     -0.0003
     74  CE2      -21.2890    9.7520   12.3470 C.ar  166  PHE166     -0.0003
     75  CZ       -20.1610   10.3380   11.7790 C.ar  166  PHE166     -0.0000
     76  N        -24.0840   15.6040   10.7340 N.3   168  THR168     -0.1218
     77  CA       -23.6160   15.1970    9.3880 C.3   168  THR168      0.1862
     78  C        -24.5030   15.7670    8.2620 C.2   168  THR168      0.2287
     79  O        -25.6030   16.1600    8.5230 O.2   168  THR168     -0.2866
     80  CB       -23.5990   13.6690    9.2040 C.3   168  THR168      0.1770
     81  OG1      -24.9290   13.2220    9.1370 O.3   168  THR168     -0.2211
     82  CG2      -22.8900   12.9050   10.3820 C.3   168  THR168      0.0375
     83  N        -24.0580   11.7550    3.4140 N.3   172  TYR172     -0.1227
     84  CA       -23.3160   10.8630    4.3090 C.3   172  TYR172      0.1736
     85  C        -24.2730   10.0820    5.2140 C.2   172  TYR172      0.2595
     86  O        -24.1580    8.8210    5.3140 O.2   172  TYR172     -0.2718
     87  CB       -22.2370   11.6210    5.1050 C.3   172  TYR172      0.0548
     88  CG       -21.6320   10.7280    6.1470 C.ar  172  TYR172     -0.0200
     89  CD1      -22.2440   10.6170    7.4080 C.ar  172  TYR172     -0.0009
     90  CD2      -20.5280    9.9500    5.8780 C.ar  172  TYR172     -0.0009
     91  CE1      -21.7640    9.7600    8.3710 C.ar  172  TYR172      0.0417
     92  CE2      -20.0360    9.0590    6.8540 C.ar  172  TYR172      0.0417
     93  CZ       -20.6750    8.9570    8.0960 C.ar  172  TYR172      0.1957
     94  OH       -20.2500    8.1130    9.1290 O.3   172  TYR172     -0.2866
     95  N        -25.2920   10.7520    5.7810 N.am  173  ALA173     -0.1980
     96  CA       -26.1830   10.0510    6.7050 C.3   173  ALA173      0.1597
     97  C        -26.8970    8.8950    6.0640 C.2   173  ALA173      0.2287
     98  O        -26.9200    7.7790    6.6040 O.2   173  ALA173     -0.2864
     99  CB       -27.1550   10.9890    7.4050 C.3   173  ALA173      0.0319
    100  N        -24.0050    6.1560    4.5890 N.3   176  SER176     -0.1202
    101  CA       -23.3700    5.3910    5.6340 C.3   176  SER176      0.2020
    102  C        -24.3690    4.4510    6.3260 C.2   176  SER176      0.2619
    103  O        -24.0470    3.2810    6.6050 O.2   176  SER176     -0.2717
    104  CB       -22.6830    6.2740    6.6440 C.3   176  SER176      0.2103
    105  OG       -23.5960    7.0210    7.4240 O.3   176  SER176     -0.2182
    106  N        -25.5860    4.9370    6.5790 N.am  177  SER177     -0.1951
    107  CA       -26.6420    4.1030    7.1620 C.3   177  SER177      0.1924
    108  C        -27.0250    2.8760    6.2710 C.2   177  SER177      0.2314
    109  O        -27.2120    1.7600    6.7770 O.2   177  SER177     -0.2863
    110  CB       -27.8760    4.9210    7.5020 C.3   177  SER177      0.2116
    111  OG       -27.6160    5.8570    8.5720 O.3   177  SER177     -0.2180
    112  N        -23.6040    0.5620    6.2640 N.3   180  SER180     -0.1217
    113  CA       -23.1790    0.0080    7.5820 C.3   180  SER180      0.1889
    114  C        -24.2560   -0.8940    8.2120 C.2   180  SER180      0.2288
    115  O        -23.9150   -1.9140    8.8290 O.2   180  SER180     -0.2866
    116  CB       -22.8230    1.1260    8.5750 C.3   180  SER180      0.2089
    117  OG       -21.5170    1.6780    8.3990 O.3   180  SER180     -0.2183
    118  N        -31.4880   -1.5000   17.7380 N.3   234  TRP234     -0.1241
    119  CA       -30.8170   -0.5250   16.8210 C.3   234  TRP234      0.1605
    120  C        -31.6720    0.1820   15.7950 C.2   234  TRP234      0.2264
    121  O        -31.3450    1.3100   15.4020 O.2   234  TRP234     -0.2867
    122  CB       -29.6030   -1.1890   16.1290 C.3   234  TRP234      0.0550
    123  CG       -28.4160   -1.2190   17.0040 C.ar  234  TRP234      0.0003
    124  CD1      -27.8220   -2.3270   17.5730 C.ar  234  TRP234      0.0946
    125  CD2      -27.6320   -0.0810   17.4250 C.ar  234  TRP234      0.0152
    126  NE1      -26.7280   -1.9350   18.3370 N.ar  234  TRP234     -0.2442
    127  CE2      -26.5840   -0.5700   18.2500 C.ar  234  TRP234      0.0810
    128  CE3      -27.7260    1.3030   17.1920 C.ar  234  TRP234      0.0012
    129  CZ2      -25.6280    0.2740   18.8340 C.ar  234  TRP234      0.0191
    130  CZ3      -26.7540    2.1730   17.7890 C.ar  234  TRP234      0.0001
    131  CH2      -25.7060    1.6460   18.5720 C.ar  234  TRP234      0.0015
    132  N        -32.9210    3.8880   16.5070 N.3   237  PHE237     -0.1227
    133  CA       -31.8440    4.8560   16.2570 C.3   237  PHE237      0.1736
    134  C        -31.6670    5.1360   14.7570 C.2   237  PHE237      0.2595
    135  O        -31.5910    6.3220   14.3170 O.2   237  PHE237     -0.2718
    136  CB       -30.4980    4.4130   16.8820 C.3   237  PHE237      0.0547
    137  CG       -29.3910    5.3060   16.5320 C.ar  237  PHE237     -0.0202
    138  CD1      -29.2340    6.5130   17.2040 C.ar  237  PHE237     -0.0042
    139  CD2      -28.4980    4.9740   15.5120 C.ar  237  PHE237     -0.0042
    140  CE1      -28.2310    7.3730   16.8760 C.ar  237  PHE237     -0.0003
    141  CE2      -27.4710    5.8540   15.1740 C.ar  237  PHE237     -0.0003
    142  CZ       -27.3190    7.0440   15.8870 C.ar  237  PHE237     -0.0000
    143  N        -31.5690    4.0710   13.9840 N.am  238  PHE238     -0.1976
    144  CA       -31.3170    4.2660   12.5230 C.3   238  PHE238      0.1639
    145  C        -32.4800    4.9230   11.7830 C.2   238  PHE238      0.2290
    146  O        -32.2450    5.7530   10.8950 O.2   238  PHE238     -0.2864
    147  CB       -30.8140    3.0020   11.8320 C.3   238  PHE238      0.0560
    148  CG       -29.3750    2.7090   12.1410 C.ar  238  PHE238     -0.0200
    149  CD1      -28.3320    3.4000   11.4380 C.ar  238  PHE238     -0.0042
    150  CD2      -29.0250    1.8070   13.1620 C.ar  238  PHE238     -0.0042
    151  CE1      -26.9840    3.1800   11.7640 C.ar  238  PHE238     -0.0003
    152  CE2      -27.6850    1.5590   13.4400 C.ar  238  PHE238     -0.0003
    153  CZ       -26.6570    2.2370   12.7250 C.ar  238  PHE238     -0.0000
    154  N        -32.1710    8.5860   12.9550 N.3   241  ASN241     -0.1240
    155  CA       -31.0370    9.2120   12.3350 C.3   241  ASN241      0.1653
    156  C        -31.4170    9.8580   11.0240 C.2   241  ASN241      0.2266
    157  O        -31.0200   10.9990   10.7560 O.2   241  ASN241     -0.2867
    158  CB       -29.9340    8.1800   12.1150 C.3   241  ASN241      0.1155
    159  CG       -28.6210    8.8040   11.7600 C.2   241  ASN241      0.2627
    160  OD1      -27.9610    8.3830   10.7990 O.2   241  ASN241     -0.2716
    161  ND2      -28.2300    9.8280   12.5190 N.am  241  ASN241     -0.0877
    162  N        -32.8630   11.6960   20.8020 N.3   256  PHE256     -0.1241
    163  CA       -31.8350   11.1210   19.9200 C.3   256  PHE256      0.1605
    164  C        -30.8340   10.3320   20.7800 C.2   256  PHE256      0.2264
    165  O        -30.4800    9.1520   20.4930 O.2   256  PHE256     -0.2867
    166  CB       -31.1600   12.2500   19.1080 C.3   256  PHE256      0.0534
    167  CG       -30.0520   11.7910   18.1750 C.ar  256  PHE256     -0.0203
    168  CD1      -28.7180   11.6520   18.6240 C.ar  256  PHE256     -0.0042
    169  CD2      -30.3140   11.5420   16.8470 C.ar  256  PHE256     -0.0042
    170  CE1      -27.6940   11.2280   17.7560 C.ar  256  PHE256     -0.0003
    171  CE2      -29.2960   11.1190   15.9770 C.ar  256  PHE256     -0.0003
    172  CZ       -27.9900   10.9690   16.4310 C.ar  256  PHE256     -0.0000
    173  N        -30.0010    6.2570   20.9640 N.3   260  ASN260     -0.1240
    174  CA       -28.5980    5.7860   20.8380 C.3   260  ASN260      0.1653
    175  C        -28.2270    4.8640   22.0500 C.2   260  ASN260      0.2266
    176  O        -27.5590    3.8380   21.8670 O.2   260  ASN260     -0.2867
    177  CB       -27.6330    6.9430   20.7370 C.3   260  ASN260      0.1155
    178  CG       -26.3430    6.6110   19.9930 C.2   260  ASN260      0.2627
    179  OD1      -25.7280    7.5050   19.4510 O.2   260  ASN260     -0.2716
    180  ND2      -25.9560    5.3520   19.9400 N.am  260  ASN260     -0.0877
    181  N        -26.6620    1.0110   22.5560 N.3   264  TYR264     -0.1241
    182  CA       -25.5710    0.6160   23.4610 C.3   264  TYR264      0.1605
    183  C        -25.9980   -0.5050   24.4540 C.2   264  TYR264      0.2264
    184  O        -25.2280   -1.4600   24.6780 O.2   264  TYR264     -0.2867
    185  CB       -25.0520    1.8050   24.2230 C.3   264  TYR264      0.0534
    186  CG       -24.3420    2.9160   23.4340 C.ar  264  TYR264     -0.0201
    187  CD1      -23.7200    2.7020   22.2220 C.ar  264  TYR264     -0.0009
    188  CD2      -24.3400    4.2140   23.9560 C.ar  264  TYR264     -0.0009
    189  CE1      -23.1180    3.7640   21.5230 C.ar  264  TYR264      0.0417
    190  CE2      -23.7260    5.2540   23.3110 C.ar  264  TYR264      0.0417
    191  CZ       -23.1260    5.0410   22.0870 C.ar  264  TYR264      0.1957
    192  OH       -22.4910    6.1170   21.5320 O.3   264  TYR264     -0.2866
@<TRIPOS>BOND
     1    83    84    1
     2    84    87    1
     3    84    85    1
     4   100   101    1
     5    87    88    1
     6    85    86    2
     7    85    95   am
     8   101   102    1
     9   101   104    1
    10    95    96    1
    11    90    88   ar
    12    90    92   ar
    13    97    98    2
    14    97    96    1
    15    88    89   ar
    16   112   113    1
    17   108   109    2
    18   108   107    1
    19   102   106   am
    20   102   103    2
    21   106   107    1
    22   104   105    1
    23    96    99    1
    24    92    93   ar
    25   107   110    1
    26    89    91   ar
    27   110   111    1
    28   113   114    1
    29   113   116    1
    30    93    91   ar
    31    93    94    1
    32   114   115    2
    33    78    79    2
    34    78    77    1
    35   117   116    1
    36    81    80    1
    37    80    77    1
    38    80    82    1
    39    58    56    1
    40    77    76    1
    41    57    56    1
    42   157   156    2
    43   160   159    2
    44    56    53    1
    45   146   145    2
    46   156   155    1
    47    55    54    2
    48   149   151   ar
    49   149   148   ar
    50    53    54    1
    51    53    52    1
    52    43    42    1
    53   159   158    1
    54   159   161   am
    55   151   153   ar
    56    75    73   ar
    57    75    74   ar
    58   145   144    1
    59   147   148    1
    60   147   144    1
    61   158   155    1
    62   148   150   ar
    63    73    71   ar
    64   155   154    1
    65    74    72   ar
    66   144   143    1
    67   153   152   ar
    68    52    47   am
    69    42    44    1
    70    42    39    1
    71   150   152   ar
    72    41    40    2
    73    71    70   ar
    74    72    70   ar
    75    48    47    2
    76    68    67    2
    77    40    39    1
    78    47    46    1
    79    70    69    1
    80   143   134   am
    81    39    38    1
    82    67    66    1
    83   135   134    2
    84   134   133    1
    85    50    49    1
    86    29    27    1
    87    69    66    1
    88    66    65    1
    89    49    46    1
    90    49    51    1
    91   141   139   ar
    92   141   142   ar
    93    46    45    1
    94   121   120    2
    95    38    32   am
    96   139   137   ar
    97    26    25    2
    98   120   119    1
    99    25    24    1
   100   142   140   ar
   101   171   172   ar
   102   171   169   ar
   103    27    24    1
   104    27    28    1
   105   122   119    1
   106   122   123    1
   107   133   132    1
   108   133   136    1
   109   172   170   ar
   110    33    32    2
   111    32    31    1
   112   137   136    1
   113   137   138   ar
   114   119   118    1
   115    24    23    1
   116   169   167   ar
   117   140   138   ar
   118   123   125   ar
   119   123   124   ar
   120   128   125   ar
   121   128   130   ar
   122   125   127   ar
   123   124   126   ar
   124    30    31    1
   125   170   168   ar
   126   130   131   ar
   127    23    11   am
   128    31    34    1
   129   167   168   ar
   130   167   166    1
   131    36    35   ar
   132    34    35    1
   133   127   126   ar
   134   127   129   ar
   135   131   129   ar
   136    35    37   ar
   137    11    12    2
   138    11    10    1
   139     9    10    1
   140   166   163    1
   141    61    62    2
   142    61    60    1
   143   179   178    2
   144    10    13    1
   145    64    63    1
   146    60    59    1
   147    60    63    1
   148   163   164    1
   149   163   162    1
   150   180   178   am
   151   178   177    1
   152   165   164    2
   153    13    14    1
   154    19    21   ar
   155    19    16   ar
   156   177   174    1
   157   174   173    1
   158   174   175    1
   159    21    22   ar
   160    16    14   ar
   161    16    18   ar
   162    14    15   ar
   163   189   191   ar
   164   189   187   ar
   165   192   191    1
   166    22    20   ar
   167   176   175    2
   168   191   190   ar
   169    18    20   ar
   170    18    17   ar
   171   187   186   ar
   172    15    17   ar
   173   181   182    1
   174   190   188   ar
   175   186   188   ar
   176   186   185    1
   177   182   185    1
   178   182   183    1
   179     8     6    1
   180   183   184    2
   181     7     6    1
   182     6     5    1
   183     5     2    1
   184     2     3    1
   185     2     1    1
   186     3     4    2
