@<TRIPOS>MOLECULE
tmp/4bvnA03.pdb
 134 125 0 0 0
SMALL
GASTEIGER

@<TRIPOS>ATOM
      1  N        -23.4530  -15.0120   10.3240 N.3   100  ILE100     -0.1231
      2  CA       -24.0020  -16.1350   11.0950 C.3   100  ILE100      0.1692
      3  C        -25.2500  -16.6860   10.4250 C.2   100  ILE100      0.2591
      4  O        -25.3980  -17.9160   10.2860 O.2   100  ILE100     -0.2718
      5  CB       -24.3290  -15.7500   12.5570 C.3   100  ILE100      0.0266
      6  CG1      -23.0460  -15.5240   13.3530 C.3   100  ILE100      0.0019
      7  CG2      -25.1440  -16.8400   13.2290 C.3   100  ILE100      0.0020
      8  CD1      -23.2430  -14.6550   14.5690 C.3   100  ILE100      0.0001
      9  N        -26.1410  -15.8040    9.9730 N.am  101  ALA101     -0.1980
     10  CA       -27.3550  -16.2410    9.2730 C.3   101  ALA101      0.1597
     11  C        -27.0480  -17.0600    7.9870 C.2   101  ALA101      0.2287
     12  O        -27.6090  -18.1440    7.7690 O.2   101  ALA101     -0.2864
     13  CB       -28.2250  -15.0750    8.9080 C.3   101  ALA101      0.0319
     14  N        -25.2930  -20.6040    8.8020 N.3   104  ARG104     -0.1245
     15  CA       -26.2980  -21.5430    9.2710 C.3   104  ARG104      0.1563
     16  C        -27.2080  -22.0010    8.1680 C.2   104  ARG104      0.2260
     17  O        -27.6020  -23.1560    8.1420 O.2   104  ARG104     -0.2867
     18  CB       -27.1610  -20.9360   10.4090 C.3   104  ARG104      0.0307
     19  CG       -26.4470  -20.7890   11.7550 C.3   104  ARG104      0.0489
     20  CD       -25.9160  -22.1440   12.2400 C.3   104  ARG104      0.2205
     21  NE       -24.5900  -22.4160   11.6600 N.pl3 104  ARG104     -0.0865
     22  CZ       -23.8910  -23.5380   11.7570 C.cat 104  ARG104      0.5346
     23  NH1      -24.3820  -24.5710   12.3910 N.pl3 104  ARG104      0.1354
     24  NH2      -22.6810  -23.6180   11.1800 N.pl3 104  ARG104      0.1354
     25  N        -32.3140  -15.3360    7.8340 N.3   192  ALA192     -0.1245
     26  CA       -32.7520  -15.9340    9.1110 C.3   192  ALA192      0.1562
     27  C        -34.1800  -16.5360    9.0450 C.2   192  ALA192      0.2260
     28  O        -34.4600  -17.5880    9.6050 O.2   192  ALA192     -0.2867
     29  CB       -32.6510  -14.9150   10.2500 C.3   192  ALA192      0.0290
     30  N        -33.8970  -19.7730    7.2920 N.3   195  VAL195     -0.1231
     31  CA       -33.3080  -20.7860    8.1930 C.3   195  VAL195      0.1692
     32  C        -34.3840  -21.3280    9.1050 C.2   195  VAL195      0.2592
     33  O        -34.5040  -22.5450    9.2900 O.2   195  VAL195     -0.2718
     34  CB       -32.1380  -20.2490    9.0200 C.3   195  VAL195      0.0266
     35  CG1      -31.7570  -21.2470   10.1080 C.3   195  VAL195      0.0020
     36  CG2      -30.9560  -19.9110    8.0990 C.3   195  VAL195      0.0020
     37  N        -35.1620  -20.4170    9.6440 N.am  196  TYR196     -0.1976
     38  CA       -36.3030  -20.7790   10.4580 C.3   196  TYR196      0.1639
     39  C        -37.2900  -21.6840    9.7070 C.2   196  TYR196      0.2290
     40  O        -37.6700  -22.7450   10.2290 O.2   196  TYR196     -0.2864
     41  CB       -36.9920  -19.5170   10.9270 C.3   196  TYR196      0.0560
     42  CG       -38.1000  -19.6570   11.9200 C.ar  196  TYR196     -0.0198
     43  CD1      -38.2410  -20.7730   12.7280 C.ar  196  TYR196     -0.0009
     44  CD2      -38.9840  -18.6030   12.1100 C.ar  196  TYR196     -0.0009
     45  CE1      -39.2670  -20.8560   13.6600 C.ar  196  TYR196      0.0417
     46  CE2      -40.0040  -18.6760   13.0430 C.ar  196  TYR196      0.0417
     47  CZ       -40.1340  -19.8020   13.8130 C.ar  196  TYR196      0.1957
     48  OH       -41.1530  -19.8610   14.7280 O.3   196  TYR196     -0.2866
     49  N        -35.5630  -25.2800    9.1270 N.3   199  ALA199     -0.1231
     50  CA       -35.4150  -26.0390   10.3790 C.3   199  ALA199      0.1694
     51  C        -36.7500  -26.7160   10.7200 C.2   199  ALA199      0.2591
     52  O        -36.8190  -27.9090   11.0020 O.2   199  ALA199     -0.2718
     53  CB       -35.0070  -25.1150   11.5150 C.3   199  ALA199      0.0304
     54  N        -37.7960  -25.8990   10.6850 N.am  200  LYS200     -0.1980
     55  CA       -39.1720  -26.2990   10.8660 C.3   200  LYS200      0.1596
     56  C        -39.5550  -27.4690    9.9360 C.2   200  LYS200      0.2287
     57  O        -40.0770  -28.4810   10.4080 O.2   200  LYS200     -0.2864
     58  CB       -40.0630  -25.0730   10.6300 C.3   200  LYS200      0.0298
     59  CG       -41.4700  -25.1670   11.1740 C.3   200  LYS200      0.0038
     60  CD       -42.2910  -23.9490   10.7330 C.3   200  LYS200      0.0206
     61  CE       -43.3070  -23.5450   11.7940 C.3   200  LYS200      0.1093
     62  NZ       -43.7490  -22.1290   11.6600 N.3   200  LYS200     -0.1314
     63  N        -37.5310  -30.8690   11.2160 N.3   203  ILE203     -0.1245
     64  CA       -38.0580  -31.6090   12.3760 C.3   203  ILE203      0.1561
     65  C        -39.3860  -32.2740   12.0800 C.2   203  ILE203      0.2260
     66  O        -39.6860  -33.2910   12.6900 O.2   203  ILE203     -0.2867
     67  CB       -38.3000  -30.7950   13.6720 C.3   203  ILE203      0.0252
     68  CG1      -38.8810  -29.4150   13.3680 C.3   203  ILE203      0.0019
     69  CG2      -37.0600  -30.8350   14.5480 C.3   203  ILE203      0.0019
     70  CD1      -39.7680  -28.8900   14.4700 C.3   203  ILE203      0.0001
     71  N        -33.8560  -31.5930   17.3140 N.3   214  MET214     -0.1245
     72  CA       -34.4060  -30.7030   18.3010 C.3   214  MET214      0.1570
     73  C        -33.2750  -29.9910   19.0720 C.2   214  MET214      0.2261
     74  O        -33.3830  -28.8020   19.3810 O.2   214  MET214     -0.2867
     75  CB       -35.3620  -31.4550   19.2410 C.3   214  MET214      0.0387
     76  CG       -36.6760  -31.8610   18.5650 C.3   214  MET214      0.0595
     77  SD       -37.5690  -33.1970   19.4120 S.3   214  MET214     -0.1393
     78  CE       -39.1950  -33.0470   18.6670 C.3   214  MET214      0.0692
     79  N        -31.8870  -27.3950   16.9380 N.3   217  HIS217     -0.1226
     80  CA       -32.8430  -26.3080   16.8050 C.3   217  HIS217      0.1752
     81  C        -32.8550  -25.3630   18.0180 C.2   217  HIS217      0.2595
     82  O        -33.0850  -24.1780   17.8620 O.2   217  HIS217     -0.2718
     83  CB       -34.2300  -26.8280   16.4740 C.3   217  HIS217      0.0759
     84  CG       -34.3410  -27.3760   15.0740 C.ar  217  HIS217      0.0818
     85  ND1      -35.5220  -27.8540   14.5500 N.ar  217  HIS217     -0.2268
     86  CD2      -33.4060  -27.5280   14.1010 C.ar  217  HIS217      0.1154
     87  CE1      -35.3050  -28.2920   13.3170 C.ar  217  HIS217      0.1986
     88  NE2      -34.0290  -28.0950   13.0160 N.ar  217  HIS217     -0.2212
     89  N        -32.5460  -25.8790   19.1890 N.am  218  LYS218     -0.1980
     90  CA       -32.3620  -25.0530   20.3590 C.3   218  LYS218      0.1596
     91  C        -31.2000  -24.0510   20.1880 C.2   218  LYS218      0.2287
     92  O        -31.3270  -22.8890   20.6000 O.2   218  LYS218     -0.2864
     93  CB       -32.0780  -25.9140   21.5810 C.3   218  LYS218      0.0298
     94  CG       -33.2440  -26.7770   21.9950 C.3   218  LYS218      0.0038
     95  CD       -34.5100  -25.9650   22.1780 C.3   218  LYS218      0.0206
     96  CE       -35.4750  -26.6390   23.1520 C.3   218  LYS218      0.1093
     97  NZ       -36.7270  -25.8490   23.2820 N.3   218  LYS218     -0.1314
     98  N        -29.9830  -22.9790   17.3000 N.3   220  LEU220     -0.1231
     99  CA       -30.4460  -21.9950   16.2640 C.3   220  LEU220      0.1693
    100  C        -31.3680  -20.9290   16.8650 C.2   220  LEU220      0.2591
    101  O        -31.3040  -19.7360   16.4760 O.2   220  LEU220     -0.2718
    102  CB       -31.1730  -22.6630   15.1240 C.3   220  LEU220      0.0284
    103  CG       -30.3390  -23.4660   14.1060 C.3   220  LEU220      0.0019
    104  CD1      -31.3120  -24.0300   13.0600 C.3   220  LEU220      0.0001
    105  CD2      -29.2390  -22.6280   13.4440 C.3   220  LEU220      0.0001
    106  N        -32.2100  -21.3710   17.8110 N.am  221  LYS221     -0.1980
    107  CA       -33.1160  -20.4450   18.5220 C.3   221  LYS221      0.1596
    108  C        -32.3640  -19.3280   19.2560 C.2   221  LYS221      0.2287
    109  O        -32.7350  -18.1490   19.1580 O.2   221  LYS221     -0.2864
    110  CB       -33.9880  -21.1990   19.5100 C.3   221  LYS221      0.0298
    111  CG       -34.9980  -20.3180   20.1840 C.3   221  LYS221      0.0038
    112  CD       -36.0880  -21.1260   20.8240 C.3   221  LYS221      0.0206
    113  CE       -37.0040  -20.2080   21.5900 C.3   221  LYS221      0.1093
    114  NZ       -38.0070  -21.0070   22.3580 N.3   221  LYS221     -0.1314
    115  N        -29.5550  -17.9940   18.4730 N.3   223  LEU223     -0.1231
    116  CA       -29.0290  -17.0450   17.4980 C.3   223  LEU223      0.1693
    117  C        -30.1330  -16.1710   16.9870 C.2   223  LEU223      0.2592
    118  O        -29.9180  -14.9910   16.7660 O.2   223  LEU223     -0.2718
    119  CB       -28.3670  -17.7930   16.3160 C.3   223  LEU223      0.0284
    120  CG       -27.2060  -18.7140   16.6740 C.3   223  LEU223      0.0019
    121  CD1      -26.6990  -19.5450   15.4720 C.3   223  LEU223      0.0001
    122  CD2      -26.1010  -17.8570   17.2570 C.3   223  LEU223      0.0001
    123  N        -31.3110  -16.7480   16.7500 N.am  224  GLY224     -0.1957
    124  CA       -32.4690  -15.9720   16.3260 C.3   224  GLY224      0.1869
    125  C        -32.8930  -14.8890   17.3360 C.2   224  GLY224      0.2309
    126  O        -33.1890  -13.7440   16.9550 O.2   224  GLY224     -0.2863
    127  N        -30.4450  -12.0250   17.1630 N.3   227  MET227     -0.1245
    128  CA       -30.8040  -11.2540   16.0110 C.3   227  MET227      0.1570
    129  C        -32.0490  -10.3630   16.1920 C.2   227  MET227      0.2261
    130  O        -32.0350   -9.1820   15.8210 O.2   227  MET227     -0.2867
    131  CB       -30.9590  -12.1720   14.8010 C.3   227  MET227      0.0387
    132  CG       -29.6530  -12.6600   14.1930 C.3   227  MET227      0.0595
    133  SD       -30.0100  -14.0360   13.0600 S.3   227  MET227     -0.1393
    134  CE       -28.3610  -14.7160   12.8370 C.3   227  MET227      0.0692
@<TRIPOS>BOND
     1    30    31    1
     2    12    11    2
     3    25    26    1
     4    11    10    1
     5    36    34    1
     6    17    16    2
     7    16    15    1
     8    31    34    1
     9    31    32    1
    10    14    15    1
    11    13    10    1
    12    34    35    1
    13    27    26    1
    14    27    28    2
    15    32    33    2
    16    32    37   am
    17    26    29    1
    18    49    50    1
    19    15    18    1
    20    10     9    1
    21    37    38    1
    22    39    40    2
    23    39    38    1
    24    56    57    2
    25    56    55    1
    26     9     3   am
    27     4     3    2
    28     1     2    1
    29    50    51    1
    30    50    53    1
    31    18    19    1
    32     3     2    1
    33    38    41    1
    34    58    55    1
    35    58    59    1
    36    54    51   am
    37    54    55    1
    38    51    52    2
    39    60    59    1
    40    60    61    1
    41    41    42    1
    42     2     5    1
    43    24    22    1
    44    63    64    1
    45    62    61    1
    46    21    22    2
    47    21    20    1
    48    19    20    1
    49    22    23    1
    50    42    44   ar
    51    42    43   ar
    52    65    64    1
    53    65    66    2
    54    44    46   ar
    55    64    67    1
    56     5     7    1
    57     5     6    1
    58    43    45   ar
    59   134   133    1
    60    88    87   ar
    61    88    86   ar
    62    46    47   ar
    63   133   132    1
    64   104   103    1
    65    87    85   ar
    66     6     8    1
    67    68    67    1
    68    68    70    1
    69   105   103    1
    70    45    47   ar
    71    67    69    1
    72    47    48    1
    73    86    84   ar
    74   103   102    1
    75   132   131    1
    76    85    84   ar
    77   131   128    1
    78    84    83    1
    79   102    99    1
    80   121   120    1
    81   130   129    2
    82   128   129    1
    83   128   127    1
    84    99   100    1
    85    99    98    1
    86   119   120    1
    87   119   116    1
    88   124   123    1
    89   124   125    1
    90    83    80    1
    91   101   100    2
    92   120   122    1
    93   123   117   am
    94   118   117    2
    95    80    79    1
    96    80    81    1
    97   100   106   am
    98   126   125    2
    99   117   116    1
   100    71    72    1
   101   116   115    1
   102   106   107    1
   103    82    81    2
   104    81    89   am
   105    72    73    1
   106    72    75    1
   107   107   108    1
   108   107   110    1
   109    76    75    1
   110    76    77    1
   111    78    77    1
   112    73    74    2
   113   109   108    2
   114    89    90    1
   115   110   111    1
   116   111   112    1
   117    91    90    1
   118    91    92    2
   119    90    93    1
   120   112   113    1
   121    93    94    1
   122   113   114    1
   123    94    95    1
   124    95    96    1
   125    96    97    1
