@<TRIPOS>MOLECULE
tmp/4bvnA07.pdb
 135 127 0 0 0
SMALL
GASTEIGER

@<TRIPOS>ATOM
      1  N        -16.8480  -25.2320   21.4520 N.3    38  GLN38      -0.1231
      2  CA       -15.8700  -25.0710   20.3970 C.3    38  GLN38       0.1698
      3  C        -16.5120  -25.4240   19.0550 C.2    38  GLN38       0.2593
      4  O        -16.0880  -26.3440   18.3650 O.2    38  GLN38      -0.2718
      5  CB       -14.6370  -25.9340   20.6810 C.3    38  GLN38       0.0381
      6  CG       -13.7420  -25.4050   21.7940 C.3    38  GLN38       0.0905
      7  CD       -13.0770  -24.1110   21.3840 C.2    38  GLN38       0.2608
      8  OE1      -12.4940  -24.0180   20.3080 O.2    38  GLN38      -0.2717
      9  NE2      -13.1840  -23.0970   22.2210 N.am   38  GLN38      -0.0878
     10  N        -17.5440  -24.6680   18.6940 N.am   39  THR39      -0.1939
     11  CA       -18.2660  -24.8270   17.4390 C.3    39  THR39       0.2028
     12  C        -17.9400  -23.6090   16.5790 C.2    39  THR39       0.2642
     13  O        -17.4920  -22.5850   17.0840 O.2    39  THR39      -0.2714
     14  CB       -19.7800  -24.8540   17.6880 C.3    39  THR39       0.1808
     15  OG1      -20.1600  -23.6400   18.3370 O.3    39  THR39      -0.2208
     16  CG2      -20.2010  -26.0560   18.5920 C.3    39  THR39       0.0379
     17  N        -18.1820  -23.7000   15.2890 N.am   40  LEU40      -0.1963
     18  CA       -17.8610  -22.6030   14.3820 C.3    40  LEU40       0.1728
     19  C        -18.6870  -21.3490   14.6990 C.2    40  LEU40       0.2616
     20  O        -18.1430  -20.2590   14.8330 O.2    40  LEU40      -0.2715
     21  CB       -18.1040  -23.0370   12.9490 C.3    40  LEU40       0.0311
     22  CG       -17.1340  -24.0980   12.4360 C.3    40  LEU40       0.0022
     23  CD1      -17.8050  -25.0020   11.4120 C.3    40  LEU40       0.0001
     24  CD2      -15.9450  -23.4130   11.8040 C.3    40  LEU40       0.0001
     25  N        -19.9950  -21.5340   14.8440 N.am   41  THR41      -0.1951
     26  CA       -20.9190  -20.4730   15.2020 C.3    41  THR41       0.1897
     27  C        -20.4140  -19.6570   16.3930 C.2    41  THR41       0.2313
     28  O        -20.5100  -18.4320   16.4020 O.2    41  THR41      -0.2863
     29  CB       -22.2970  -21.0570   15.5850 C.3    41  THR41       0.1794
     30  OG1      -22.8930  -21.6390   14.4230 O.3    41  THR41      -0.2208
     31  CG2      -23.2000  -20.0000   16.1230 C.3    41  THR41       0.0378
     32  N        -25.2930  -20.6040    8.8020 N.3   104  ARG104     -0.1245
     33  CA       -26.2980  -21.5430    9.2710 C.3   104  ARG104      0.1563
     34  C        -27.2080  -22.0010    8.1680 C.2   104  ARG104      0.2260
     35  O        -27.6020  -23.1560    8.1420 O.2   104  ARG104     -0.2867
     36  CB       -27.1610  -20.9360   10.4090 C.3   104  ARG104      0.0307
     37  CG       -26.4470  -20.7890   11.7550 C.3   104  ARG104      0.0489
     38  CD       -25.9160  -22.1440   12.2400 C.3   104  ARG104      0.2205
     39  NE       -24.5900  -22.4160   11.6600 N.pl3 104  ARG104     -0.0865
     40  CZ       -23.8910  -23.5380   11.7570 C.cat 104  ARG104      0.5346
     41  NH1      -24.3820  -24.5710   12.3910 N.pl3 104  ARG104      0.1354
     42  NH2      -22.6810  -23.6180   11.1800 N.pl3 104  ARG104      0.1354
     43  N        -25.1390  -24.4800    6.3710 N.3   107  ALA107     -0.1231
     44  CA       -24.9790  -25.6410    7.2390 C.3   107  ALA107      0.1694
     45  C        -26.2230  -26.5850    7.2480 C.2   107  ALA107      0.2591
     46  O        -26.0710  -27.8180    7.1790 O.2   107  ALA107     -0.2718
     47  CB       -24.6210  -25.1900    8.6400 C.3   107  ALA107      0.0304
     48  N        -27.4300  -26.0320    7.3370 N.am  108  ILE108     -0.1980
     49  CA       -28.6410  -26.8630    7.3540 C.3   108  ILE108      0.1595
     50  C        -29.0970  -27.4130    5.9920 C.2   108  ILE108      0.2287
     51  O        -29.7720  -28.4490    5.9670 O.2   108  ILE108     -0.2864
     52  CB       -29.8910  -26.1670    7.9730 C.3   108  ILE108      0.0276
     53  CG1      -30.2770  -24.9190    7.2010 C.3   108  ILE108      0.0022
     54  CG2      -29.6660  -25.8790    9.4370 C.3   108  ILE108      0.0022
     55  CD1      -31.5700  -24.3250    7.6780 C.3   108  ILE108      0.0001
     56  N        -25.3410  -30.0570    4.8540 N.3   111  PRO111     -0.2116
     57  CA       -24.5170  -30.4430    6.0300 C.3   111  PRO111      0.1372
     58  C        -23.2130  -31.1620    5.6790 C.2   111  PRO111      0.2244
     59  O        -22.1960  -30.9560    6.3330 O.2   111  PRO111     -0.2868
     60  CB       -25.4430  -31.3630    6.8260 C.3   111  PRO111      0.0268
     61  CG       -26.8160  -31.0070    6.3740 C.3   111  PRO111      0.0207
     62  CD       -26.7200  -30.5700    4.9480 C.3   111  PRO111      0.0892
     63  N        -20.7640  -28.6800    3.8760 N.3   114  TYR114     -0.1227
     64  CA       -20.3630  -27.6630    4.8350 C.3   114  TYR114      0.1736
     65  C        -19.3140  -28.1890    5.8140 C.2   114  TYR114      0.2595
     66  O        -18.3290  -27.5210    6.1280 O.2   114  TYR114     -0.2718
     67  CB       -21.6020  -27.1670    5.6060 C.3   114  TYR114      0.0548
     68  CG       -21.2770  -26.1240    6.6480 C.ar  114  TYR114     -0.0200
     69  CD1      -20.7870  -26.4930    7.8880 C.ar  114  TYR114     -0.0009
     70  CD2      -21.4330  -24.7590    6.3850 C.ar  114  TYR114     -0.0009
     71  CE1      -20.4640  -25.5490    8.8390 C.ar  114  TYR114      0.0417
     72  CE2      -21.1230  -23.8030    7.3500 C.ar  114  TYR114      0.0417
     73  CZ       -20.6450  -24.2000    8.5700 C.ar  114  TYR114      0.1957
     74  OH       -20.3040  -23.2750    9.5550 O.3   114  TYR114     -0.2866
     75  N        -19.5350  -29.3920    6.3150 N.am  115  GLN115     -0.1979
     76  CA       -18.6860  -29.9280    7.3540 C.3   115  GLN115      0.1601
     77  C        -17.3740  -30.4490    6.7660 C.2   115  GLN115      0.2287
     78  O        -16.3860  -30.6010    7.4920 O.2   115  GLN115     -0.2864
     79  CB       -19.4320  -31.0200    8.1350 C.3   115  GLN115      0.0394
     80  CG       -19.1810  -30.9860    9.6340 C.3   115  GLN115      0.0908
     81  CD       -20.0790  -31.9370   10.4040 C.2   115  GLN115      0.2608
     82  OE1      -21.0060  -32.5320    9.8470 O.2   115  GLN115     -0.2717
     83  NE2      -19.8070  -32.0850   11.6980 N.am  115  GLN115     -0.0878
     84  N        -12.2020  -24.1000   11.6500 N.3   120  ARG120     -0.1245
     85  CA       -11.9510  -23.1180   12.6880 C.3   120  ARG120      0.1563
     86  C        -11.1090  -21.9410   12.1740 C.2   120  ARG120      0.2260
     87  O        -11.3790  -20.7790   12.5020 O.2   120  ARG120     -0.2867
     88  CB       -11.2520  -23.8050   13.8610 C.3   120  ARG120      0.0307
     89  CG       -11.6730  -23.3010   15.2170 C.3   120  ARG120      0.0489
     90  CD       -11.4410  -24.3370   16.3140 C.3   120  ARG120      0.2205
     91  NE       -12.3460  -25.4710   16.1590 N.pl3 120  ARG120     -0.0865
     92  CZ       -13.6610  -25.4320   16.3660 C.cat 120  ARG120      0.5346
     93  NH1      -14.2590  -24.3070   16.7580 N.pl3 120  ARG120      0.1354
     94  NH2      -14.3920  -26.5310   16.1830 N.pl3 120  ARG120      0.1354
     95  N        -33.1210  -35.3480    6.6250 N.3   206  ARG206     -0.1245
     96  CA       -31.9370  -35.7760    7.3560 C.3   206  ARG206      0.1563
     97  C        -32.0740  -37.2070    7.8900 C.2   206  ARG206      0.2260
     98  O        -33.1320  -37.6060    8.3920 O.2   206  ARG206     -0.2867
     99  CB       -31.6840  -34.8400    8.5230 C.3   206  ARG206      0.0307
    100  CG       -31.4810  -33.3730    8.1520 C.3   206  ARG206      0.0489
    101  CD       -30.0180  -33.0260    7.9240 C.3   206  ARG206      0.2205
    102  NE       -29.1730  -33.2770    9.0890 N.pl3 206  ARG206     -0.0865
    103  CZ       -28.9960  -32.4520   10.1230 C.cat 206  ARG206      0.5346
    104  NH1      -29.6150  -31.2880   10.2040 N.pl3 206  ARG206      0.1354
    105  NH2      -28.1840  -32.8090   11.0880 N.pl3 206  ARG206      0.1354
    106  N        -30.1680  -29.3920   17.8080 N.3   216  GLU216     -0.1245
    107  CA       -29.6880  -28.4230   16.8180 C.3   216  GLU216      0.1567
    108  C        -30.5830  -27.1790   16.8030 C.2   216  GLU216      0.2260
    109  O        -30.1040  -26.0380   16.6500 O.2   216  GLU216     -0.2867
    110  CB       -29.6450  -29.0440   15.4100 C.3   216  GLU216      0.0388
    111  CG       -28.4970  -30.0220   15.1420 C.3   216  GLU216      0.1160
    112  CD       -28.5000  -30.5750   13.7140 C.2   216  GLU216      0.3649
    113  OE1      -29.3180  -30.1050   12.8910 O.co2 216  GLU216     -0.2457
    114  OE2      -27.6880  -31.4950   13.4020 O.co2 216  GLU216     -0.2457
    115  N        -30.0830  -24.5090   19.6210 N.3   219  ALA219     -0.1231
    116  CA       -28.9350  -23.6240   19.4260 C.3   219  ALA219      0.1694
    117  C        -29.2500  -22.5850   18.3340 C.2   219  ALA219      0.2591
    118  O        -28.8950  -21.4100   18.4870 O.2   219  ALA219     -0.2718
    119  CB       -27.6850  -24.4050   19.1120 C.3   219  ALA219      0.0304
    120  N        -29.9830  -22.9790   17.3000 N.am  220  LEU220     -0.1980
    121  CA       -30.4460  -21.9950   16.2640 C.3   220  LEU220      0.1596
    122  C        -31.3680  -20.9290   16.8650 C.2   220  LEU220      0.2287
    123  O        -31.3040  -19.7360   16.4760 O.2   220  LEU220     -0.2864
    124  CB       -31.1730  -22.6630   15.1240 C.3   220  LEU220      0.0297
    125  CG       -30.3390  -23.4660   14.1060 C.3   220  LEU220      0.0022
    126  CD1      -31.3120  -24.0300   13.0600 C.3   220  LEU220      0.0001
    127  CD2      -29.2390  -22.6280   13.4440 C.3   220  LEU220      0.0001
    128  N        -29.5550  -17.9940   18.4730 N.3   223  LEU223     -0.1245
    129  CA       -29.0290  -17.0450   17.4980 C.3   223  LEU223      0.1561
    130  C        -30.1330  -16.1710   16.9870 C.2   223  LEU223      0.2260
    131  O        -29.9180  -14.9910   16.7660 O.2   223  LEU223     -0.2867
    132  CB       -28.3670  -17.7930   16.3160 C.3   223  LEU223      0.0270
    133  CG       -27.2060  -18.7140   16.6740 C.3   223  LEU223      0.0019
    134  CD1      -26.6990  -19.5450   15.4720 C.3   223  LEU223      0.0001
    135  CD2      -26.1010  -17.8570   17.2570 C.3   223  LEU223      0.0001
@<TRIPOS>BOND
     1    63    64    1
     2    64    67    1
     3    64    65    1
     4    56    62    1
     5    56    57    1
     6    62    61    1
     7    67    68    1
     8    58    57    1
     9    58    59    2
    10    65    66    2
    11    65    75   am
    12    51    50    2
    13    50    49    1
    14    57    60    1
    15    75    76    1
    16    43    44    1
    17    61    60    1
    18    70    68   ar
    19    70    72   ar
    20    95    96    1
    21    68    69   ar
    22    77    76    1
    23    77    78    2
    24    46    45    2
    25    53    55    1
    26    53    52    1
    27    44    45    1
    28    44    47    1
    29    45    48   am
    30    48    49    1
    31    72    73   ar
    32    49    52    1
    33    76    79    1
    34    96    97    1
    35    96    99    1
    36    69    71   ar
    37    97    98    2
    38   101   100    1
    39   101   102    1
    40    52    54    1
    41    79    80    1
    42    35    34    2
    43   100    99    1
    44    34    33    1
    45    73    71   ar
    46    73    74    1
    47    32    33    1
    48   102   103    2
    49    33    36    1
    50    80    81    1
    51    82    81    2
    52   103   104    1
    53   103   105    1
    54    81    83   am
    55    36    37    1
    56    42    40    1
    57    23    22    1
    58    84    85    1
    59    39    40    2
    60    39    38    1
    61    37    38    1
    62    40    41    1
    63    24    22    1
    64    86    87    2
    65    86    85    1
    66    22    21    1
    67    85    88    1
    68   113   112   ar
    69    21    18    1
    70   126   125    1
    71   114   112   ar
    72   127   125    1
    73   112   111    1
    74    88    89    1
    75   125   124    1
    76    18    19    1
    77    18    17    1
    78    30    29    1
    79    19    20    2
    80    19    25   am
    81    25    26    1
    82   124   121    1
    83   111   110    1
    84    26    29    1
    85    26    27    1
    86    89    90    1
    87    17    12   am
    88   110   107    1
    89   134   133    1
    90    29    31    1
    91    91    90    1
    92    91    92    2
    93    94    92    1
    94   121   122    1
    95   121   120    1
    96   132   133    1
    97   132   129    1
    98    92    93    1
    99    27    28    2
   100   123   122    2
   101    12    13    2
   102    12    11    1
   103   109   108    2
   104   133   135    1
   105   131   130    2
   106   108   107    1
   107   107   106    1
   108   130   129    1
   109   120   117   am
   110    11    14    1
   111    11    10    1
   112   129   128    1
   113    14    15    1
   114    14    16    1
   115   117   118    2
   116   117   116    1
   117     4     3    2
   118    10     3   am
   119     3     2    1
   120   119   116    1
   121   116   115    1
   122     8     7    2
   123     2     5    1
   124     2     1    1
   125     5     6    1
   126     7     6    1
   127     7     9   am
