@<TRIPOS>MOLECULE
tmp/4bvoA00.pdb
 96 90 0 0 0
SMALL
GASTEIGER

@<TRIPOS>ATOM
      1  N        -14.4320  -33.7160  -18.1680 N.3    12  ASP12      -0.1239
      2  CA       -15.0590  -34.7280  -17.3360 C.3    12  ASP12       0.1674
      3  C        -15.1840  -34.1540  -15.9380 C.2    12  ASP12       0.2266
      4  O        -14.2080  -34.1280  -15.1800 O.2    12  ASP12      -0.2867
      5  CB       -14.1900  -35.9850  -17.3460 C.3    12  ASP12       0.1410
      6  CG       -14.5950  -37.0190  -16.2790 C.2    12  ASP12       0.3668
      7  OD1      -15.6910  -36.9100  -15.6650 O.co2  12  ASP12      -0.2456
      8  OD2      -13.7900  -37.9590  -16.0600 O.co2  12  ASP12      -0.2456
      9  N        -16.0650  -34.9490  -12.8010 N.3    14  GLY14      -0.1210
     10  CA       -16.2940  -36.1820  -12.0860 C.3    14  GLY14       0.1956
     11  C        -16.4140  -36.0010  -10.5780 C.2    14  GLY14       0.2613
     12  O        -16.4750  -34.8810  -10.0730 O.2    14  GLY14      -0.2717
     13  N        -16.4230  -37.1130   -9.8600 N.am   15  SER15      -0.1938
     14  CA       -16.7220  -37.0900   -8.4310 C.3    15  SER15       0.2055
     15  C        -15.6430  -36.4640   -7.5700 C.2    15  SER15       0.2643
     16  O        -15.9540  -35.7020   -6.6560 O.2    15  SER15      -0.2714
     17  CB       -17.0490  -38.4940   -7.9320 C.3    15  SER15       0.2130
     18  OG       -18.2870  -38.9060   -8.4840 O.3    15  SER15      -0.2179
     19  N        -14.3800  -36.7750   -7.8470 N.am   16  THR16      -0.1950
     20  CA       -13.3080  -36.2710   -6.9860 C.3    16  THR16       0.1897
     21  C        -12.5700  -35.0890   -7.6090 C.2    16  THR16       0.2313
     22  O        -11.7290  -34.4550   -6.9520 O.2    16  THR16      -0.2863
     23  CB       -12.3100  -37.3800   -6.5720 C.3    16  THR16       0.1794
     24  OG1      -11.7020  -37.9340   -7.7410 O.3    16  THR16      -0.2208
     25  CG2      -13.0210  -38.5010   -5.7870 C.3    16  THR16       0.0378
     26  N        -20.9870  -36.1160  -14.1940 N.3    81  THR81      -0.1203
     27  CA       -21.4520  -37.5030  -14.0850 C.3    81  THR81       0.1994
     28  C        -22.1850  -37.7400  -12.7500 C.2    81  THR81       0.2617
     29  O        -22.9290  -36.8490  -12.2990 O.2    81  THR81      -0.2717
     30  CB       -20.2980  -38.5040  -14.3880 C.3    81  THR81       0.1784
     31  OG1      -19.1940  -38.2590  -13.4970 O.3    81  THR81      -0.2211
     32  CG2      -19.8020  -38.3090  -15.8430 C.3    81  THR81       0.0376
     33  N        -22.0170  -38.9190  -12.1340 N.am   82  ALA82      -0.1979
     34  CA       -22.8950  -39.3320  -11.0030 C.3    82  ALA82       0.1597
     35  C        -22.8670  -38.3990   -9.7820 C.2    82  ALA82       0.2287
     36  O        -23.8680  -38.2730   -9.0890 O.2    82  ALA82      -0.2864
     37  CB       -22.6140  -40.7700  -10.5880 C.3    82  ALA82       0.0319
     38  N        -23.1410  -42.0610  -20.3860 N.3   122  GLU122     -0.1245
     39  CA       -21.8120  -42.3730  -19.8840 C.3   122  GLU122      0.1567
     40  C        -21.3970  -43.7830  -20.3300 C.2   122  GLU122      0.2260
     41  O        -20.2780  -43.9950  -20.8210 O.2   122  GLU122     -0.2867
     42  CB       -21.7720  -42.1910  -18.3540 C.3   122  GLU122      0.0388
     43  CG       -20.3670  -42.2300  -17.7650 C.3   122  GLU122      0.1160
     44  CD       -20.3610  -42.0040  -16.2630 C.2   122  GLU122      0.3649
     45  OE1      -21.4450  -41.7770  -15.6680 O.co2 122  GLU122     -0.2457
     46  OE2      -19.2650  -42.0830  -15.6710 O.co2 122  GLU122     -0.2457
     47  N        -18.0260  -50.2690  -16.1270 N.3   149  ASP149     -0.1239
     48  CA       -17.3430  -49.1240  -15.5700 C.3   149  ASP149      0.1674
     49  C        -17.6930  -49.0750  -14.0990 C.2   149  ASP149      0.2266
     50  O        -18.8610  -48.9530  -13.7320 O.2   149  ASP149     -0.2867
     51  CB       -17.8050  -47.8640  -16.2940 C.3   149  ASP149      0.1410
     52  CG       -17.1710  -46.5850  -15.7620 C.2   149  ASP149      0.3668
     53  OD1      -16.3090  -46.5980  -14.8440 O.co2 149  ASP149     -0.2456
     54  OD2      -17.5700  -45.5250  -16.2900 O.co2 149  ASP149     -0.2456
     55  N        -17.4790  -47.0510  -11.0450 N.3   151  GLY151     -0.1210
     56  CA       -17.2850  -45.6510  -10.5960 C.3   151  GLY151      0.1956
     57  C        -17.4710  -45.4460   -9.0960 C.2   151  GLY151      0.2612
     58  O        -17.7650  -46.3960   -8.3650 O.2   151  GLY151     -0.2717
     59  N        -17.3150  -44.2030   -8.6360 N.am  152  GLY152     -0.1942
     60  CA       -17.4630  -43.8770   -7.2050 C.3   152  GLY152      0.2014
     61  C        -18.9180  -43.8730   -6.7570 C.2   152  GLY152      0.2639
     62  O        -19.2470  -44.3710   -5.6710 O.2   152  GLY152     -0.2714
     63  N        -19.8040  -43.3050   -7.5810 N.am  153  ALA153     -0.1963
     64  CA       -21.2290  -43.1960   -7.2130 C.3   153  ALA153      0.1728
     65  C        -22.1680  -44.0600   -8.0890 C.2   153  ALA153      0.2616
     66  O        -23.2190  -44.5210   -7.6130 O.2   153  ALA153     -0.2715
     67  CB       -21.6730  -41.7150   -7.1880 C.3   153  ALA153      0.0334
     68  N        -21.7800  -44.3220   -9.3430 N.am  154  SER154     -0.1950
     69  CA       -22.5870  -45.2000  -10.1990 C.3   154  SER154      0.1924
     70  C        -21.7060  -46.2730  -10.8270 C.2   154  SER154      0.2314
     71  O        -20.4680  -46.1330  -10.9060 O.2   154  SER154     -0.2863
     72  CB       -23.3410  -44.4250  -11.3090 C.3   154  SER154      0.2116
     73  OG       -22.4310  -43.8350  -12.2510 O.3   154  SER154     -0.2180
     74  N        -21.6900  -48.6160  -14.5290 N.3   156  GLN156     -0.1245
     75  CA       -22.2940  -48.7660  -15.8530 C.3   156  GLN156      0.1566
     76  C        -21.9630  -50.1340  -16.4250 C.2   156  GLN156      0.2260
     77  O        -20.8770  -50.6780  -16.1950 O.2   156  GLN156     -0.2867
     78  CB       -21.7480  -47.6980  -16.8460 C.3   156  GLN156      0.0367
     79  CG       -22.3130  -46.2790  -16.6650 C.3   156  GLN156      0.0905
     80  CD       -21.8220  -45.6070  -15.3850 C.2   156  GLN156      0.2608
     81  OE1      -22.5990  -45.4080  -14.4270 O.2   156  GLN156     -0.2717
     82  NE2      -20.5030  -45.2930  -15.3410 N.am  156  GLN156     -0.0878
     83  N        -12.9930  -42.4290  -20.9880 N.3   347  TRP347     -0.1241
     84  CA       -14.3560  -42.3200  -21.5740 C.3   347  TRP347      0.1605
     85  C        -14.6210  -41.1000  -22.4650 C.2   347  TRP347      0.2264
     86  O        -15.4880  -41.1430  -23.3530 O.2   347  TRP347     -0.2867
     87  CB       -15.4430  -42.3940  -20.4970 C.3   347  TRP347      0.0550
     88  CG       -15.5850  -41.1940  -19.5760 C.ar  347  TRP347      0.0003
     89  CD1      -14.9790  -41.0220  -18.3510 C.ar  347  TRP347      0.0946
     90  CD2      -16.4210  -40.0280  -19.7750 C.ar  347  TRP347      0.0152
     91  NE1      -15.3650  -39.8150  -17.7930 N.ar  347  TRP347     -0.2442
     92  CE2      -16.2460  -39.1870  -18.6430 C.ar  347  TRP347      0.0810
     93  CE3      -17.2730  -39.6010  -20.8080 C.ar  347  TRP347      0.0012
     94  CZ2      -16.9090  -37.9510  -18.5090 C.ar  347  TRP347      0.0191
     95  CZ3      -17.9180  -38.3640  -20.6820 C.ar  347  TRP347      0.0001
     96  CH2      -17.7310  -37.5530  -19.5330 C.ar  347  TRP347      0.0015
@<TRIPOS>BOND
     1    86    85    2
     2    85    84    1
     3    84    83    1
     4    84    87    1
     5    41    40    2
     6    93    95   ar
     7    93    90   ar
     8    95    96   ar
     9    87    88    1
    10    38    39    1
    11    40    39    1
    12    39    42    1
    13    90    88   ar
    14    90    92   ar
    15    88    89   ar
    16    96    94   ar
    17    92    94   ar
    18    92    91   ar
    19    42    43    1
    20    89    91   ar
    21     1     2    1
    22    43    44    1
    23     5     2    1
    24     5     6    1
    25     2     3    1
    26    78    79    1
    27    78    75    1
    28    79    80    1
    29    76    77    2
    30    76    75    1
    31    51    52    1
    32    51    48    1
    33    54    52   ar
    34     6     8   ar
    35     6     7   ar
    36    44    46   ar
    37    44    45   ar
    38    47    48    1
    39     3     4    2
    40    75    74    1
    41    32    30    1
    42    52    53   ar
    43    48    49    1
    44    80    82   am
    45    80    81    2
    46    30    27    1
    47    30    31    1
    48    26    27    1
    49    49    50    2
    50    27    28    1
    51     9    10    1
    52    28    29    2
    53    28    33   am
    54    73    72    1
    55    33    34    1
    56    10    11    1
    57    72    69    1
    58    55    56    1
    59    34    37    1
    60    34    35    1
    61    71    70    2
    62    70    69    1
    63    56    57    1
    64    11    12    2
    65    11    13   am
    66    69    68    1
    67    13    14    1
    68    35    36    2
    69    68    65   am
    70    57    59   am
    71    57    58    2
    72    59    60    1
    73    18    17    1
    74    14    17    1
    75    14    15    1
    76    65    66    2
    77    65    64    1
    78    19    15   am
    79    19    20    1
    80    24    23    1
    81    21    20    1
    82    21    22    2
    83    63    64    1
    84    63    61   am
    85    15    16    2
    86    64    67    1
    87    60    61    1
    88    20    23    1
    89    61    62    2
    90    23    25    1
