@<TRIPOS>MOLECULE
tmp/4bvrB02.pdb
 92 82 0 0 0
SMALL
GASTEIGER

@<TRIPOS>ATOM
      1  N        -58.3660   -4.3220   -5.6150 N.3    46  GLY46      -0.1225
      2  CA       -58.5300   -5.5220   -6.4410 C.3    46  GLY46       0.1811
      3  C        -57.9760   -6.7980   -5.8250 C.2    46  GLY46       0.2280
      4  O        -57.8180   -7.8110   -6.5110 O.2    46  GLY46      -0.2866
      5  N        -65.9680   -3.6320   -4.3800 N.3    53  ARG53      -0.1245
      6  CA       -66.6350   -4.5700   -5.2460 C.3    53  ARG53       0.1563
      7  C        -68.0500   -4.8680   -4.7390 C.2    53  ARG53       0.2260
      8  O        -69.0230   -4.8530   -5.4840 O.2    53  ARG53      -0.2867
      9  CB       -65.8190   -5.8490   -5.3160 C.3    53  ARG53       0.0307
     10  CG       -64.4290   -5.6400   -5.9110 C.3    53  ARG53       0.0489
     11  CD       -63.5940   -6.9130   -5.9190 C.3    53  ARG53       0.2205
     12  NE       -63.3380   -7.4210   -4.5610 N.pl3  53  ARG53      -0.0865
     13  CZ       -62.2020   -7.9770   -4.1430 C.cat  53  ARG53       0.5346
     14  NH1      -61.1560   -8.1100   -4.9560 N.pl3  53  ARG53       0.1354
     15  NH2      -62.1100   -8.3860   -2.8900 N.pl3  53  ARG53       0.1354
     16  N        -64.7410   -6.2430  -10.6540 N.3    84  SER84      -0.1202
     17  CA       -63.2960   -6.4130  -10.5890 C.3    84  SER84       0.2020
     18  C        -62.6660   -5.1520  -10.0170 C.2    84  SER84       0.2619
     19  O        -62.7350   -4.0800  -10.6240 O.2    84  SER84      -0.2717
     20  CB       -62.7250   -6.6860  -11.9850 C.3    84  SER84       0.2103
     21  OG       -61.3170   -6.8220  -11.9270 O.3    84  SER84      -0.2182
     22  N        -62.0640   -5.2810   -8.8400 N.am   85  GLY85      -0.1956
     23  CA       -61.3910   -4.1630   -8.2030 C.3    85  GLY85       0.1869
     24  C        -60.0520   -3.8870   -8.8560 C.2    85  GLY85       0.2309
     25  O        -59.5100   -4.7320   -9.5690 O.2    85  GLY85      -0.2863
     26  N        -66.5680  -14.8810  -11.7300 N.3   163  LYS163     -0.1245
     27  CA       -66.2690  -14.2660  -10.4450 C.3   163  LYS163      0.1561
     28  C        -66.1640  -15.3620   -9.4240 C.2   163  LYS163      0.2260
     29  O        -67.0330  -16.2270   -9.3800 O.2   163  LYS163     -0.2867
     30  CB       -67.3820  -13.3100  -10.0210 C.3   163  LYS163      0.0271
     31  CG       -67.0080  -12.4260   -8.8500 C.3   163  LYS163      0.0035
     32  CD       -65.9530  -11.3950   -9.2350 C.3   163  LYS163      0.0206
     33  CE       -65.1160  -11.0070   -8.0310 C.3   163  LYS163      0.1093
     34  NZ       -64.0940   -9.9890   -8.3650 N.3   163  LYS163     -0.1314
     35  N        -56.3360  -16.1110   -3.9520 N.3   191  MET191     -0.1245
     36  CA       -57.0120  -15.5230   -5.1170 C.3   191  MET191      0.1570
     37  C        -56.5330  -16.1620   -6.4050 C.2   191  MET191      0.2261
     38  O        -57.3380  -16.5020   -7.2700 O.2   191  MET191     -0.2867
     39  CB       -56.7940  -14.0180   -5.1730 C.3   191  MET191      0.0387
     40  CG       -57.3640  -13.2780   -3.9640 C.3   191  MET191      0.0595
     41  SD       -57.0810  -11.5110   -4.0450 S.3   191  MET191     -0.1393
     42  CE       -58.2610  -11.0670   -5.3270 C.3   191  MET191      0.0692
     43  N        -58.9190  -18.2180   -8.9100 N.3   195  ARG195     -0.1245
     44  CA       -58.9450  -17.8350  -10.3140 C.3   195  ARG195      0.1563
     45  C        -58.4890  -18.9730  -11.2130 C.2   195  ARG195      0.2260
     46  O        -59.0690  -19.2070  -12.2810 O.2   195  ARG195     -0.2867
     47  CB       -58.0240  -16.6480  -10.5680 C.3   195  ARG195      0.0307
     48  CG       -58.5780  -15.2930  -10.1740 C.3   195  ARG195      0.0489
     49  CD       -57.6970  -14.1850  -10.7410 C.3   195  ARG195      0.2205
     50  NE       -56.2930  -14.3200  -10.3370 N.pl3 195  ARG195     -0.0865
     51  CZ       -55.7350  -13.7500   -9.2700 C.cat 195  ARG195      0.5346
     52  NH1      -56.4320  -12.9700   -8.4600 N.pl3 195  ARG195      0.1354
     53  NH2      -54.4530  -13.9590   -9.0080 N.pl3 195  ARG195      0.1354
     54  N        -61.9020  -13.5890  -11.9640 N.3   233  SER233     -0.1202
     55  CA       -61.7060  -12.5170  -11.0270 C.3   233  SER233      0.2020
     56  C        -62.1680  -12.9800   -9.6510 C.2   233  SER233      0.2618
     57  O        -63.3230  -13.3610   -9.4770 O.2   233  SER233     -0.2717
     58  CB       -62.5090  -11.3040  -11.4730 C.3   233  SER233      0.2103
     59  OG       -62.2960  -10.2100  -10.5940 O.3   233  SER233     -0.2182
     60  N        -61.2640  -12.9510   -8.6730 N.am  234  ALA234     -0.1979
     61  CA       -61.5870  -13.3710   -7.3030 C.3   234  ALA234      0.1597
     62  C        -62.0670  -12.2060   -6.4740 C.2   234  ALA234      0.2287
     63  O        -61.7870  -11.0440   -6.7870 O.2   234  ALA234     -0.2864
     64  CB       -60.3850  -14.0240   -6.6440 C.3   234  ALA234      0.0319
     65  N        -50.5950   -8.2120   -9.2320 N.3   321  THR321     -0.1218
     66  CA       -51.8160   -7.9860  -10.0070 C.3   321  THR321      0.1862
     67  C        -52.0680   -6.5000  -10.1990 C.2   321  THR321      0.2287
     68  O        -52.6620   -6.0920  -11.1950 O.2   321  THR321     -0.2866
     69  CB       -53.0470   -8.6540   -9.3430 C.3   321  THR321      0.1770
     70  OG1      -53.1170   -8.2680   -7.9640 O.3   321  THR321     -0.2211
     71  CG2      -52.9320  -10.1710   -9.4170 C.3   321  THR321      0.0375
     72  N        -52.2400   -4.9200  -13.9820 N.3   325  ARG325     -0.1245
     73  CA       -53.3680   -4.1180  -14.4690 C.3   325  ARG325      0.1563
     74  C        -52.9190   -2.7550  -14.9420 C.2   325  ARG325      0.2260
     75  O        -53.4060   -2.2390  -15.9540 O.2   325  ARG325     -0.2867
     76  CB       -54.4200   -3.9370  -13.3910 C.3   325  ARG325      0.0307
     77  CG       -55.2650   -5.1700  -13.1260 C.3   325  ARG325      0.0489
     78  CD       -56.4270   -4.8020  -12.2260 C.3   325  ARG325      0.2205
     79  NE       -55.9650   -4.3880  -10.9030 N.pl3 325  ARG325     -0.0865
     80  CZ       -55.8600   -5.1860   -9.8440 C.cat 325  ARG325      0.5346
     81  NH1      -56.2110   -6.4610   -9.9180 N.pl3 325  ARG325      0.1354
     82  NH2      -55.4240   -4.6930   -8.6880 N.pl3 325  ARG325      0.1354
     83  N        -58.5390   -6.9630  -15.8860 N.3   344  SER344     -0.1202
     84  CA       -58.5770   -7.7300  -14.6620 C.3   344  SER344      0.2020
     85  C        -57.2480   -8.4340  -14.5450 C.2   344  SER344      0.2619
     86  O        -56.7070   -8.9100  -15.5330 O.2   344  SER344     -0.2717
     87  CB       -59.7070   -8.7470  -14.7300 C.3   344  SER344      0.2103
     88  OG       -59.5520   -9.7370  -13.7260 O.3   344  SER344     -0.2182
     89  N        -56.7250   -8.5210  -13.3380 N.am  345  GLY345     -0.1956
     90  CA       -55.3910   -9.0450  -13.1500 C.3   345  GLY345      0.1869
     91  C        -55.3850  -10.4340  -12.5510 C.2   345  GLY345      0.2309
     92  O        -56.3050  -10.8100  -11.8160 O.2   345  GLY345     -0.2863
@<TRIPOS>BOND
     1    75    74    2
     2    83    84    1
     3    86    85    2
     4    74    73    1
     5    87    84    1
     6    87    88    1
     7    84    85    1
     8    85    89   am
     9    73    72    1
    10    73    76    1
    11    76    77    1
    12    89    90    1
    13    90    91    1
    14    77    78    1
    15    91    92    2
    16    46    45    2
    17    78    79    1
    18    20    21    1
    19    20    17    1
    20    54    55    1
    21    26    27    1
    22    58    55    1
    23    58    59    1
    24    45    44    1
    25    68    67    2
    26    55    56    1
    27    79    80    2
    28    49    50    1
    29    49    48    1
    30    16    17    1
    31    19    18    2
    32    17    18    1
    33    47    44    1
    34    47    48    1
    35    27    30    1
    36    27    28    1
    37    50    51    2
    38    44    43    1
    39    67    66    1
    40    30    31    1
    41    18    22   am
    42    66    69    1
    43    66    65    1
    44    81    80    1
    45    80    82    1
    46    56    57    2
    47    56    60   am
    48    25    24    2
    49    28    29    2
    50    71    69    1
    51    69    70    1
    52    51    53    1
    53    51    52    1
    54    32    31    1
    55    32    33    1
    56    24    23    1
    57    22    23    1
    58    60    61    1
    59    34    33    1
    60    61    64    1
    61    61    62    1
    62    38    37    2
    63    63    62    2
    64     4     3    2
    65     2     3    1
    66     2     1    1
    67    37    36    1
    68    11    10    1
    69    11    12    1
    70    10     9    1
    71     8     7    2
    72    42    41    1
    73     9     6    1
    74     6     7    1
    75     6     5    1
    76    39    36    1
    77    39    40    1
    78    36    35    1
    79    14    13    1
    80    12    13    2
    81    13    15    1
    82    41    40    1
