@<TRIPOS>MOLECULE
tmp/4bvsB00.pdb
 92 82 0 0 0
SMALL
GASTEIGER

@<TRIPOS>ATOM
      1  N         25.4750  -52.4190    5.5820 N.3    46  GLY46      -0.1225
      2  CA        24.5480  -53.1670    6.4180 C.3    46  GLY46       0.1811
      3  C         23.1640  -53.3490    5.8220 C.2    46  GLY46       0.2280
      4  O         22.2540  -53.8580    6.4770 O.2    46  GLY46      -0.2866
      5  N         29.7350  -58.6940    4.3680 N.3    53  ARG53      -0.1245
      6  CA        29.2900  -59.7820    5.2160 C.3    53  ARG53       0.1563
      7  C         29.7570  -61.1170    4.6580 C.2    53  ARG53       0.2260
      8  O         30.3030  -61.9480    5.3740 O.2    53  ARG53      -0.2867
      9  CB        27.7770  -59.7840    5.3230 C.3    53  ARG53       0.0307
     10  CG        27.2150  -58.5070    5.9420 C.3    53  ARG53       0.0489
     11  CD        25.6910  -58.4660    5.8970 C.3    53  ARG53       0.2205
     12  NE        25.1560  -58.4260    4.5370 N.pl3  53  ARG53      -0.0865
     13  CZ        24.1940  -57.6220    4.1010 C.cat  53  ARG53       0.5346
     14  NH1       23.5860  -56.7620    4.9030 N.pl3  53  ARG53       0.1354
     15  NH2       23.8160  -57.6910    2.8270 N.pl3  53  ARG53       0.1354
     16  N         27.0070  -59.0100   10.5890 N.3    84  SER84      -0.1202
     17  CA        26.1160  -57.8780   10.5350 C.3    84  SER84       0.2020
     18  C         26.9250  -56.6830   10.0460 C.2    84  SER84       0.2619
     19  O         27.8180  -56.1950   10.7360 O.2    84  SER84      -0.2717
     20  CB        25.5120  -57.6070   11.9130 C.3    84  SER84       0.2103
     21  OG        24.7920  -56.3790   11.9080 O.3    84  SER84      -0.2182
     22  N         26.6260  -56.2460    8.8320 N.am   85  GLY85      -0.1956
     23  CA        27.2270  -55.0530    8.2740 C.3    85  GLY85       0.1869
     24  C         26.7310  -53.7500    8.8690 C.2    85  GLY85       0.2309
     25  O         25.7080  -53.7060    9.5560 O.2    85  GLY85      -0.2863
     26  N         20.3960  -64.8360   11.8000 N.3   163  LYS163     -0.1245
     27  CA        20.7370  -64.2830   10.4930 C.3   163  LYS163      0.1561
     28  C         19.7260  -64.7670    9.4940 C.2   163  LYS163      0.2260
     29  O         19.4050  -65.9530    9.4580 O.2   163  LYS163     -0.2867
     30  CB        22.1270  -64.7320   10.0390 C.3   163  LYS163      0.0271
     31  CG        22.6890  -63.9280    8.8880 C.3   163  LYS163      0.0035
     32  CD        23.0600  -62.5090    9.3070 C.3   163  LYS163      0.0206
     33  CE        23.1200  -61.5730    8.1010 C.3   163  LYS163      0.1093
     34  NZ        23.2800  -60.1440    8.4900 N.3   163  LYS163     -0.1314
     35  N         14.2680  -56.5650    4.0670 N.3   191  MET191     -0.1245
     36  CA        15.1410  -56.8480    5.2170 C.3   191  MET191      0.1570
     37  C         14.3680  -56.7590    6.5240 C.2   191  MET191      0.2261
     38  O         14.4730  -57.6470    7.3690 O.2   191  MET191     -0.2867
     39  CB        16.3350  -55.8900    5.2490 C.3   191  MET191      0.0387
     40  CG        17.2560  -56.0180    4.0490 C.3   191  MET191      0.0595
     41  SD        18.6830  -54.9240    4.1260 S.3   191  MET191     -0.1393
     42  CE        19.6930  -55.7750    5.3180 C.3   191  MET191      0.0692
     43  N         13.7670  -59.8110    9.0680 N.3   195  ARG195     -0.1245
     44  CA        14.0900  -59.6460   10.4780 C.3   195  ARG195      0.1563
     45  C         12.8710  -59.8450   11.3480 C.2   195  ARG195      0.2260
     46  O         12.9430  -60.5080   12.3720 O.2   195  ARG195     -0.2867
     47  CB        14.6700  -58.2600   10.7390 C.3   195  ARG195      0.0307
     48  CG        16.0950  -58.0560   10.2360 C.3   195  ARG195      0.0489
     49  CD        16.6600  -56.7690   10.8140 C.3   195  ARG195      0.2205
     50  NE        15.8530  -55.5990   10.4470 N.pl3 195  ARG195     -0.0865
     51  CZ        16.0270  -54.8290    9.3710 C.cat 195  ARG195      0.5346
     52  NH1       17.0000  -55.0540    8.5150 N.pl3 195  ARG195      0.1354
     53  NH2       15.2140  -53.8030    9.1480 N.pl3 195  ARG195      0.1354
     54  N         19.1850  -60.1050   11.9710 N.3   233  SER233     -0.1202
     55  CA        20.0160  -59.4070   11.0350 C.3   233  SER233      0.2020
     56  C         19.8560  -60.0800    9.6700 C.2   233  SER233      0.2618
     57  O         20.0650  -61.2750    9.5390 O.2   233  SER233     -0.2717
     58  CB        21.4760  -59.4660   11.4950 C.3   233  SER233      0.2103
     59  OG        22.3180  -58.7240   10.6140 O.3   233  SER233     -0.2182
     60  N         19.4580  -59.3090    8.6600 N.am  234  ALA234     -0.1979
     61  CA        19.2600  -59.8250    7.3160 C.3   234  ALA234      0.1597
     62  C         20.5100  -59.6640    6.4570 C.2   234  ALA234      0.2287
     63  O         21.3650  -58.8320    6.7210 O.2   234  ALA234     -0.2864
     64  CB        18.0800  -59.1200    6.6450 C.3   234  ALA234      0.0319
     65  N         18.1650  -47.7060    9.3120 N.3   321  THR321     -0.1218
     66  CA        19.0070  -48.6310   10.0620 C.3   321  THR321      0.1862
     67  C         20.4130  -48.0810   10.2430 C.2   321  THR321      0.2287
     68  O         21.0480  -48.3330   11.2630 O.2   321  THR321     -0.2866
     69  CB        19.0830  -50.0250    9.4000 C.3   321  THR321      0.1770
     70  OG1       19.5160  -49.8970    8.0410 O.3   321  THR321     -0.2211
     71  CG2       17.7140  -50.7200    9.4470 C.3   321  THR321      0.0375
     72  N         21.9460  -47.3960   13.9690 N.3   325  ARG325     -0.1245
     73  CA        23.1780  -47.9980   14.4630 C.3   325  ARG325      0.1563
     74  C         24.1300  -46.9250   14.9410 C.2   325  ARG325      0.2260
     75  O         24.8190  -47.0890   15.9540 O.2   325  ARG325     -0.2867
     76  CB        23.8560  -48.8550   13.3940 C.3   325  ARG325      0.0307
     77  CG        23.2050  -50.2110   13.1680 C.3   325  ARG325      0.0489
     78  CD        24.0770  -51.0470   12.2600 C.3   325  ARG325      0.2205
     79  NE        24.2350  -50.4430   10.9410 N.pl3 325  ARG325     -0.0865
     80  CZ        23.4680  -50.6960    9.8790 C.cat 325  ARG325      0.5346
     81  NH1       22.4610  -51.5450    9.9530 N.pl3 325  ARG325      0.1354
     82  NH2       23.7160  -50.0960    8.7220 N.pl3 325  ARG325      0.1354
     83  N         23.3060  -53.8910   15.9270 N.3   344  SER344     -0.1202
     84  CA        22.5870  -54.2390   14.7230 C.3   344  SER344      0.2020
     85  C         21.3440  -53.3750   14.6410 C.2   344  SER344      0.2619
     86  O         20.7680  -53.0000   15.6610 O.2   344  SER344     -0.2717
     87  CB        22.2310  -55.7260   14.7620 C.3   344  SER344      0.2103
     88  OG        21.4100  -56.1020   13.6680 O.3   344  SER344     -0.2182
     89  N         20.9250  -53.0730   13.4220 N.am  345  GLY345     -0.1956
     90  CA        19.8310  -52.1490   13.1550 C.3   345  GLY345      0.1869
     91  C         18.5970  -52.8720   12.6560 C.2   345  GLY345      0.2309
     92  O         18.7000  -53.9440   12.0700 O.2   345  GLY345     -0.2863
@<TRIPOS>BOND
     1    15    13    1
     2    40    41    1
     3    40    39    1
     4    35    36    1
     5    13    12    2
     6    13    14    1
     7    41    42    1
     8     5     6    1
     9    12    11    1
    10     7     6    1
    11     7     8    2
    12     6     9    1
    13    36    39    1
    14    36    37    1
    15     9    10    1
    16     1     2    1
    17     3     2    1
    18     3     4    2
    19    11    10    1
    20    62    63    2
    21    62    61    1
    22    37    38    2
    23    64    61    1
    24    61    60    1
    25    70    69    1
    26    33    34    1
    27    33    32    1
    28    23    22    1
    29    23    24    1
    30    52    51    1
    31    60    56   am
    32    82    80    1
    33    22    18   am
    34    24    25    2
    35    31    32    1
    36    31    30    1
    37    43    44    1
    38    53    51    1
    39    65    66    1
    40    51    50    2
    41    69    71    1
    42    69    66    1
    43    29    28    2
    44    28    27    1
    45    57    56    2
    46    56    55    1
    47    80    81    1
    48    80    79    2
    49    30    27    1
    50    18    17    1
    51    18    19    2
    52    66    67    1
    53    48    47    1
    54    48    49    1
    55    67    68    2
    56    50    49    1
    57    44    47    1
    58    44    45    1
    59    27    26    1
    60    17    16    1
    61    17    20    1
    62    59    58    1
    63    79    78    1
    64    55    58    1
    65    55    54    1
    66    45    46    2
    67    21    20    1
    68    92    91    2
    69    78    77    1
    70    91    90    1
    71    90    89    1
    72    77    76    1
    73    76    73    1
    74    89    85   am
    75    88    87    1
    76    72    73    1
    77    73    74    1
    78    85    84    1
    79    85    86    2
    80    84    87    1
    81    84    83    1
    82    74    75    2
