@<TRIPOS>MOLECULE
tmp/4bvtB02.pdb
 92 82 0 0 0
SMALL
GASTEIGER

@<TRIPOS>ATOM
      1  N         32.8140   48.3100    5.6050 N.3    46  GLY46      -0.1225
      2  CA        34.0030   47.9330    6.3700 C.3    46  GLY46       0.1811
      3  C         34.7790   46.7740    5.7670 C.2    46  GLY46       0.2280
      4  O         35.5850   46.1420    6.4400 O.2    46  GLY46      -0.2866
      5  N         36.0290   55.1590    4.3700 N.3    53  ARG53      -0.1245
      6  CA        37.1720   55.3170    5.2650 C.3    53  ARG53       0.1563
      7  C         38.1160   56.3660    4.7080 C.2    53  ARG53       0.2260
      8  O         38.5040   57.3090    5.3940 O.2    53  ARG53      -0.2867
      9  CB        37.9060   53.9930    5.4180 C.3    53  ARG53       0.0307
     10  CG        37.0380   52.8890    6.0090 C.3    53  ARG53       0.0489
     11  CD        37.6900   51.5150    5.9640 C.3    53  ARG53       0.2205
     12  NE        37.9240   51.0200    4.6090 N.pl3  53  ARG53      -0.0865
     13  CZ        37.9810   49.7350    4.2670 C.cat  53  ARG53       0.5346
     14  NH1       37.7900   48.7790    5.1740 N.pl3  53  ARG53       0.1354
     15  NH2       38.2040   49.4030    2.9970 N.pl3  53  ARG53       0.1354
     16  N         37.7880   52.8600   10.6450 N.3    84  SER84      -0.1202
     17  CA        37.1980   51.5360   10.5820 C.3    84  SER84       0.2020
     18  C         35.7810   51.6620   10.0360 C.2    84  SER84       0.2619
     19  O         34.9350   52.3240   10.6250 O.2    84  SER84      -0.2717
     20  CB        37.1800   50.8880   11.9640 C.3    84  SER84       0.2103
     21  OG        37.1240   49.4770   11.8700 O.3    84  SER84      -0.2182
     22  N         35.5350   51.0250    8.9010 N.am   85  GLY85      -0.1956
     23  CA        34.2130   51.0370    8.2860 C.3    85  GLY85       0.1869
     24  C         33.2840   50.0150    8.9170 C.2    85  GLY85       0.2309
     25  O         33.6860   49.2610    9.7910 O.2    85  GLY85      -0.2863
     26  N         46.0670   50.1140   11.6770 N.3   163  LYS163     -0.1245
     27  CA        45.4500   50.1270   10.3640 C.3   163  LYS163      0.1561
     28  C         46.4020   49.4790    9.3860 C.2   163  LYS163      0.2260
     29  O         47.5790   49.7820    9.3970 O.2   163  LYS163     -0.2867
     30  CB        45.1360   51.5460    9.9150 C.3   163  LYS163      0.0271
     31  CG        44.1500   51.6070    8.7620 C.3   163  LYS163      0.0035
     32  CD        42.7300   51.2930    9.2200 C.3   163  LYS163      0.0206
     33  CE        41.8730   50.7510    8.0770 C.3   163  LYS163      0.1093
     34  NZ        40.5800   50.1540    8.5240 N.3   163  LYS163     -0.1314
     35  N         42.0790   40.6150    4.0070 N.3   191  MET191     -0.1245
     36  CA        41.8990   41.5360    5.1280 C.3   191  MET191      0.1570
     37  C         42.2480   40.8180    6.4250 C.2   191  MET191      0.2261
     38  O         42.9610   41.3540    7.2750 O.2   191  MET191     -0.2867
     39  CB        40.4650   42.0760    5.1810 C.3   191  MET191      0.0387
     40  CG        40.0380   42.8530    3.9390 C.3   191  MET191      0.0595
     41  SD        38.4190   43.6290    4.1150 S.3   191  MET191     -0.1393
     42  CE        38.8480   45.0280    5.1460 C.3   191  MET191      0.0692
     43  N         45.2000   41.8380    8.8510 N.3   195  ARG195     -0.1245
     44  CA        44.8570   42.0080   10.2680 C.3   195  ARG195      0.1563
     45  C         45.6220   41.0410   11.1740 C.2   195  ARG195      0.2260
     46  O         46.1160   41.4240   12.2320 O.2   195  ARG195     -0.2867
     47  CB        43.3560   41.7980   10.5070 C.3   195  ARG195      0.0307
     48  CG        42.4830   43.0150   10.2440 C.3   195  ARG195      0.0489
     49  CD        41.0860   42.8200   10.8280 C.3   195  ARG195      0.2205
     50  NE        40.4710   41.5740   10.3690 N.pl3 195  ARG195     -0.0865
     51  CZ        39.7630   41.4350    9.2490 C.cat 195  ARG195      0.5346
     52  NH1       39.5370   42.4600    8.4400 N.pl3 195  ARG195      0.1354
     53  NH2       39.2650   40.2520    8.9330 N.pl3 195  ARG195      0.1354
     54  N         42.6400   46.6870   11.9630 N.3   233  SER233     -0.1202
     55  CA        41.6050   47.0890   11.0280 C.3   233  SER233      0.2020
     56  C         42.2110   47.2740    9.6520 C.2   233  SER233      0.2618
     57  O         43.0550   48.1250    9.4610 O.2   233  SER233     -0.2717
     58  CB        40.9440   48.3750   11.5100 C.3   233  SER233      0.2103
     59  OG        39.7420   48.6240   10.8030 O.3   233  SER233     -0.2182
     60  N         41.8000   46.4490    8.6950 N.am  234  ALA234     -0.1979
     61  CA        42.3540   46.4970    7.3230 C.3   234  ALA234      0.1597
     62  C         41.6030   47.4940    6.4660 C.2   234  ALA234      0.2287
     63  O         40.4600   47.8240    6.7560 O.2   234  ALA234     -0.2864
     64  CB        42.3260   45.1210    6.6630 C.3   234  ALA234      0.0319
     65  N         32.4080   39.5210    9.2660 N.3   321  THR321     -0.1218
     66  CA        32.8060   40.7450    9.9710 C.3   321  THR321      0.1862
     67  C         31.6030   41.6670   10.2160 C.2   321  THR321      0.2287
     68  O         31.4950   42.3080   11.2610 O.2   321  THR321     -0.2866
     69  CB        33.9180   41.5140    9.2300 C.3   321  THR321      0.1770
     70  OG1       33.6970   41.4550    7.8140 O.3   321  THR321     -0.2211
     71  CG2       35.2660   40.9180    9.5540 C.3   321  THR321      0.0375
     72  N         30.3440   42.5970   13.9840 N.3   325  ARG325     -0.1245
     73  CA        30.2470   43.9870   14.4290 C.3   325  ARG325      0.1563
     74  C         28.8480   44.2940   14.9520 C.2   325  ARG325      0.2260
     75  O         28.6860   44.9340   15.9930 O.2   325  ARG325     -0.2867
     76  CB        30.5950   44.9570   13.2960 C.3   325  ARG325      0.0307
     77  CG        32.0860   45.1640   13.1090 C.3   325  ARG325      0.0489
     78  CD        32.3630   46.3430   12.2060 C.3   325  ARG325      0.2205
     79  NE        31.7640   46.1580   10.8880 N.pl3 325  ARG325     -0.0865
     80  CZ        32.3830   45.6320    9.8320 C.cat 325  ARG325      0.5346
     81  NH1       33.6490   45.2410    9.9010 N.pl3 325  ARG325      0.1354
     82  NH2       31.7250   45.5100    8.6830 N.pl3 325  ARG325      0.1354
     83  N         35.2710   46.9930   15.8340 N.3   344  SER344     -0.1202
     84  CA        35.9090   46.5740   14.6000 C.3   344  SER344      0.2020
     85  C         35.8130   45.0500   14.4790 C.2   344  SER344      0.2619
     86  O         35.7710   44.3340   15.4680 O.2   344  SER344     -0.2717
     87  CB        37.3360   47.1270   14.5460 C.3   344  SER344      0.2103
     88  OG        38.3020   46.1600   14.1790 O.3   344  SER344     -0.2182
     89  N         35.7470   44.5700   13.2520 N.am  345  GLY345     -0.1956
     90  CA        35.5010   43.1590   12.9800 C.3   345  GLY345      0.1869
     91  C         36.7500   42.4110   12.5680 C.2   345  GLY345      0.2309
     92  O         37.6790   42.9830   12.0010 O.2   345  GLY345     -0.2863
@<TRIPOS>BOND
     1    15    13    1
     2    40    41    1
     3    40    39    1
     4    35    36    1
     5    41    42    1
     6    13    12    2
     7    13    14    1
     8     5     6    1
     9    12    11    1
    10     7     6    1
    11     7     8    2
    12    36    39    1
    13    36    37    1
    14     6     9    1
    15     9    10    1
    16     1     2    1
    17     3     2    1
    18     3     4    2
    19    11    10    1
    20    37    38    2
    21    62    63    2
    22    62    61    1
    23    64    61    1
    24    61    60    1
    25    70    69    1
    26    33    34    1
    27    33    32    1
    28    23    22    1
    29    23    24    1
    30    52    51    1
    31    82    80    1
    32    60    56   am
    33    31    32    1
    34    31    30    1
    35    43    44    1
    36    22    18   am
    37    24    25    2
    38    53    51    1
    39    69    71    1
    40    69    66    1
    41    51    50    2
    42    65    66    1
    43    28    29    2
    44    28    27    1
    45    57    56    2
    46    56    55    1
    47    80    81    1
    48    80    79    2
    49    30    27    1
    50    66    67    1
    51    18    17    1
    52    18    19    2
    53    67    68    2
    54    48    47    1
    55    48    49    1
    56    44    47    1
    57    44    45    1
    58    27    26    1
    59    50    49    1
    60    17    16    1
    61    17    20    1
    62    59    58    1
    63    79    78    1
    64    55    58    1
    65    55    54    1
    66    45    46    2
    67    21    20    1
    68    92    91    2
    69    78    77    1
    70    91    90    1
    71    90    89    1
    72    77    76    1
    73    89    85   am
    74    76    73    1
    75    72    73    1
    76    88    87    1
    77    73    74    1
    78    85    84    1
    79    85    86    2
    80    87    84    1
    81    84    83    1
    82    74    75    2
