@<TRIPOS>MOLECULE
tmp/4bvvA00.pdb
 118 118 0 0 0
SMALL
GASTEIGER

@<TRIPOS>ATOM
      1  N          1.8980   -0.0030   -8.5610 N.3    33  ARG33      -0.1231
      2  CA         2.0330   -0.9570   -7.4650 C.3    33  ARG33       0.1694
      3  C          1.2780   -0.4320   -6.2510 C.2    33  ARG33       0.2592
      4  O          1.3070    0.7720   -5.9720 O.2    33  ARG33      -0.2718
      5  CB         3.5100   -1.1810   -7.1270 C.3    33  ARG33       0.0321
      6  CG         4.2410   -2.0300   -8.1550 C.3    33  ARG33       0.0489
      7  CD         5.5860   -2.5570   -7.6570 C.3    33  ARG33       0.2205
      8  NE         5.5170   -3.2510   -6.3680 N.pl3  33  ARG33      -0.0865
      9  CZ         5.9320   -2.7350   -5.2090 C.cat  33  ARG33       0.5346
     10  NH1        6.4340   -1.5000   -5.1560 N.pl3  33  ARG33       0.1354
     11  NH2        5.8430   -3.4500   -4.0920 N.pl3  33  ARG33       0.1354
     12  N          0.5780   -1.3240   -5.5480 N.am   34  HIS34      -0.1962
     13  CA        -0.1250   -0.9480   -4.3290 C.3    34  HIS34       0.1787
     14  C         -0.2860   -2.1170   -3.3550 C.2    34  HIS34       0.2621
     15  O         -0.7510   -3.1950   -3.7300 O.2    34  HIS34      -0.2715
     16  CB        -1.4850   -0.3020   -4.6550 C.3    34  HIS34       0.0785
     17  CG        -2.4180   -1.1970   -5.4100 C.ar   34  HIS34       0.0821
     18  ND1       -3.5770   -1.6990   -4.8550 N.ar   34  HIS34      -0.2267
     19  CD2       -2.3620   -1.6850   -6.6730 C.ar   34  HIS34       0.1154
     20  CE1       -4.1960   -2.4550   -5.7450 C.ar   34  HIS34       0.1986
     21  NE2       -3.4790   -2.4640   -6.8560 N.ar   34  HIS34      -0.2212
     22  N          0.1150   -1.8910   -2.1080 N.am   35  SER35      -0.1936
     23  CA         0.0150   -2.8940   -1.0590 C.3    35  SER35       0.2055
     24  C         -1.3570   -2.8640   -0.3800 C.2    35  SER35       0.2644
     25  O         -1.7400   -3.8240    0.2910 O.2    35  SER35      -0.2714
     26  CB         1.1210   -2.6930   -0.0200 C.3    35  SER35       0.2130
     27  OG         0.9200   -1.4920    0.7090 O.3    35  SER35      -0.2179
     28  N         -2.0810   -1.7580   -0.5410 N.am   36  THR36      -0.1936
     29  CA        -3.4150   -1.6100    0.0530 C.3    36  THR36       0.2028
     30  C         -4.5000   -1.6500   -1.0260 C.2    36  THR36       0.2642
     31  O         -4.1990   -1.5090   -2.2090 O.2    36  THR36      -0.2714
     32  CB        -3.5340   -0.3130    0.8840 C.3    36  THR36       0.1808
     33  OG1       -3.4560    0.8330    0.0230 O.3    36  THR36      -0.2208
     34  CG2       -2.4210   -0.2420    1.9260 C.3    36  THR36       0.0379
     35  N         -5.7530   -1.8330   -0.6060 N.am   37  PHE37      -0.1973
     36  CA        -6.9040   -1.9010   -1.5220 C.3    37  PHE37       0.1639
     37  C         -6.7340   -2.9970   -2.5920 C.2    37  PHE37       0.2290
     38  O         -6.8850   -2.7370   -3.7880 O.2    37  PHE37      -0.2864
     39  CB        -7.2150   -0.5240   -2.1650 C.3    37  PHE37       0.0560
     40  CG        -7.3240    0.6280   -1.1790 C.ar   37  PHE37      -0.0200
     41  CD1       -8.2830    0.6210   -0.1640 C.ar   37  PHE37      -0.0042
     42  CD2       -6.4860    1.7410   -1.2910 C.ar   37  PHE37      -0.0042
     43  CE1       -8.3880    1.6860    0.7270 C.ar   37  PHE37      -0.0003
     44  CE2       -6.5850    2.8130   -0.4000 C.ar   37  PHE37      -0.0003
     45  CZ        -7.5340    2.7830    0.6140 C.ar   37  PHE37      -0.0000
     46  N        -12.3900    3.5170    1.2460 N.3    56  ASP56      -0.1239
     47  CA       -12.0410    4.3160    2.4350 C.3    56  ASP56       0.1674
     48  C        -13.0750    5.3790    2.8680 C.2    56  ASP56       0.2266
     49  O        -12.8170    6.1520    3.8060 O.2    56  ASP56      -0.2867
     50  CB       -10.6270    4.9320    2.3120 C.3    56  ASP56       0.1410
     51  CG       -10.4720    5.8890    1.1330 C.2    56  ASP56       0.3668
     52  OD1      -11.3170    5.9130    0.2050 O.co2  56  ASP56      -0.2456
     53  OD2       -9.4670    6.6380    1.1360 O.co2  56  ASP56      -0.2456
     54  N        -14.1420    8.2270    1.4070 N.3    58  ASP58      -0.1239
     55  CA       -13.7650    9.6050    1.0830 C.3    58  ASP58       0.1674
     56  C        -15.0420   10.4100    0.7800 C.2    58  ASP58       0.2266
     57  O        -15.8550    9.9820   -0.0430 O.2    58  ASP58      -0.2867
     58  CB       -12.8190    9.5580   -0.1430 C.3    58  ASP58       0.1410
     59  CG       -12.0980   10.8740   -0.4260 C.2    58  ASP58       0.3668
     60  OD1      -12.7170   11.9680   -0.3850 O.co2  58  ASP58      -0.2456
     61  OD2      -10.8910   10.8080   -0.7600 O.co2  58  ASP58      -0.2456
     62  N        -13.6890    6.4540   -6.5990 N.3    63  TRP63      -0.1241
     63  CA       -12.4080    6.7610   -7.2440 C.3    63  TRP63       0.1605
     64  C        -11.7780    5.4720   -7.8090 C.2    63  TRP63       0.2264
     65  O        -12.3220    4.3840   -7.6170 O.2    63  TRP63      -0.2867
     66  CB       -11.4670    7.4600   -6.2360 C.3    63  TRP63       0.0550
     67  CG       -11.2030    6.6690   -4.9670 C.ar   63  TRP63       0.0003
     68  CD1      -11.9470    6.6860   -3.8140 C.ar   63  TRP63       0.0946
     69  CD2      -10.1390    5.7310   -4.7380 C.ar   63  TRP63       0.0152
     70  NE1      -11.4060    5.8270   -2.8830 N.ar   63  TRP63      -0.2442
     71  CE2      -10.2970    5.2290   -3.4230 C.ar   63  TRP63       0.0810
     72  CE3       -9.0640    5.2740   -5.5120 C.ar   63  TRP63       0.0012
     73  CZ2       -9.4160    4.2950   -2.8630 C.ar   63  TRP63       0.0191
     74  CZ3       -8.1850    4.3360   -4.9520 C.ar   63  TRP63       0.0001
     75  CH2       -8.3690    3.8620   -3.6410 C.ar   63  TRP63       0.0015
     76  N         -7.5560    3.7360   -9.2030 N.3    65  TYR65      -0.1241
     77  CA        -6.1780    3.8910   -9.6780 C.3    65  TYR65       0.1605
     78  C         -6.2540    4.1910  -11.1840 C.2    65  TYR65       0.2264
     79  O         -7.0700    3.5900  -11.8820 O.2    65  TYR65      -0.2867
     80  CB        -5.3560    2.6130   -9.4300 C.3    65  TYR65       0.0534
     81  CG        -5.0890    2.2880   -7.9670 C.ar   65  TYR65      -0.0201
     82  CD1       -3.9940    2.8470   -7.2990 C.ar   65  TYR65      -0.0009
     83  CD2       -5.9210    1.4130   -7.2570 C.ar   65  TYR65      -0.0009
     84  CE1       -3.7390    2.5590   -5.9660 C.ar   65  TYR65       0.0417
     85  CE2       -5.6690    1.1080   -5.9140 C.ar   65  TYR65       0.0417
     86  CZ        -4.5840    1.6900   -5.2760 C.ar   65  TYR65       0.1957
     87  OH        -4.3110    1.4140   -3.9500 O.3    65  TYR65      -0.2866
     88  N         -1.2750    8.4670   -9.6760 N.3    72  LEU72      -0.1231
     89  CA        -1.7370    7.3090   -8.8850 C.3    72  LEU72       0.1693
     90  C         -3.2560    7.0440   -8.9230 C.2    72  LEU72       0.2592
     91  O         -3.6870    5.9340   -9.2610 O.2    72  LEU72      -0.2718
     92  CB        -1.2470    7.3970   -7.4310 C.3    72  LEU72       0.0284
     93  CG        -1.5450    6.1730   -6.5440 C.3    72  LEU72       0.0019
     94  CD1       -0.6920    4.9840   -6.9640 C.3    72  LEU72       0.0001
     95  CD2       -1.3750    6.4570   -5.0510 C.3    72  LEU72       0.0001
     96  N         -4.0520    8.0560   -8.5610 N.am   73  PHE73      -0.1976
     97  CA        -5.5150    7.9120   -8.4870 C.3    73  PHE73       0.1639
     98  C         -6.2430    9.1940   -8.9350 C.2    73  PHE73       0.2290
     99  O         -5.6460   10.2720   -9.0030 O.2    73  PHE73      -0.2864
    100  CB        -5.9510    7.5130   -7.0530 C.3    73  PHE73       0.0560
    101  CG        -6.4200    8.6720   -6.2050 C.ar   73  PHE73      -0.0200
    102  CD1       -5.5010    9.5020   -5.5630 C.ar   73  PHE73      -0.0042
    103  CD2       -7.7780    8.9370   -6.0470 C.ar   73  PHE73      -0.0042
    104  CE1       -5.9280   10.5700   -4.7950 C.ar   73  PHE73      -0.0003
    105  CE2       -8.2110   10.0100   -5.2810 C.ar   73  PHE73      -0.0003
    106  CZ        -7.2820   10.8310   -4.6510 C.ar   73  PHE73      -0.0000
    107  N        -10.6230   10.8820   -8.6610 N.3    75  TYR75      -0.1241
    108  CA       -12.0520   10.6680   -8.4610 C.3    75  TYR75       0.1605
    109  C        -12.7930   10.4340   -9.7790 C.2    75  TYR75       0.2264
    110  O        -12.3590   10.8930  -10.8410 O.2    75  TYR75      -0.2867
    111  CB       -12.6810   11.8390   -7.6990 C.3    75  TYR75       0.0534
    112  CG       -12.0410   12.0520   -6.3480 C.ar   75  TYR75      -0.0201
    113  CD1      -12.3590   11.2250   -5.2630 C.ar   75  TYR75      -0.0009
    114  CD2      -11.1010   13.0520   -6.1620 C.ar   75  TYR75      -0.0009
    115  CE1      -11.7560   11.3970   -4.0230 C.ar   75  TYR75       0.0417
    116  CE2      -10.4970   13.2410   -4.9200 C.ar   75  TYR75       0.0417
    117  CZ       -10.8260   12.4120   -3.8590 C.ar   75  TYR75       0.1957
    118  OH       -10.2180   12.6020   -2.6260 O.3    75  TYR75      -0.2866
@<TRIPOS>BOND
     1    79    78    2
     2    78    77    1
     3   110   109    2
     4   109   108    1
     5    77    80    1
     6    77    76    1
     7    88    89    1
     8    80    81    1
     9    91    90    2
    10    99    98    2
    11    98    97    1
    12    90    89    1
    13    90    96   am
    14    89    92    1
    15   107   108    1
    16    96    97    1
    17     1     2    1
    18    97   100    1
    19   108   111    1
    20     6     7    1
    21     6     5    1
    22    81    82   ar
    23    81    83   ar
    24    64    65    2
    25    64    63    1
    26   111   112    1
    27     7     8    1
    28     2     5    1
    29     2     3    1
    30    92    93    1
    31    82    84   ar
    32    83    85   ar
    33    63    62    1
    34    63    66    1
    35   100   101    1
    36    94    93    1
    37    21    19   ar
    38    21    20   ar
    39    19    17   ar
    40    93    95    1
    41     8     9    2
    42   112   114   ar
    43   112   113   ar
    44     3     4    2
    45     3    12   am
    46    66    67    1
    47   101   103   ar
    48   101   102   ar
    49   114   116   ar
    50   103   105   ar
    51    84    86   ar
    52    85    86   ar
    53    20    18   ar
    54   102   104   ar
    55    12    13    1
    56    72    74   ar
    57    72    69   ar
    58    17    18   ar
    59    17    16    1
    60   105   106   ar
    61    86    87    1
    62   113   115   ar
    63     9    10    1
    64     9    11    1
    65    67    69   ar
    66    67    68   ar
    67    74    75   ar
    68   116   117   ar
    69   104   106   ar
    70    69    71   ar
    71    16    13    1
    72    13    14    1
    73   115   117   ar
    74   117   118    1
    75    68    70   ar
    76    38    37    2
    77    15    14    2
    78    75    73   ar
    79    71    70   ar
    80    71    73   ar
    81    14    22   am
    82    37    36    1
    83    31    30    2
    84    39    36    1
    85    39    40    1
    86    22    23    1
    87    36    35    1
    88    42    40   ar
    89    42    44   ar
    90    40    41   ar
    91    23    24    1
    92    23    26    1
    93    30    35   am
    94    30    29    1
    95    61    59   ar
    96    28    24   am
    97    28    29    1
    98    59    60   ar
    99    59    58    1
   100    44    45   ar
   101    24    25    2
   102    41    43   ar
   103    58    55    1
   104    57    56    2
   105    26    27    1
   106    33    32    1
   107    29    32    1
   108    52    51   ar
   109    45    43   ar
   110    56    55    1
   111    32    34    1
   112    55    54    1
   113    51    53   ar
   114    51    50    1
   115    46    47    1
   116    50    47    1
   117    47    48    1
   118    48    49    2
