@<TRIPOS>MOLECULE
tmp/4bvxB00.pdb
 89 85 0 0 0
SMALL
GASTEIGER

@<TRIPOS>ATOM
      1  N         37.9370   55.1160   20.9030 N.3   138  LYS138     -0.1245
      2  CA        36.8530   54.2920   20.3440 C.3   138  LYS138      0.1561
      3  C         37.2940   52.8360   20.1050 C.2   138  LYS138      0.2260
      4  O         36.5070   51.8930   20.2720 O.2   138  LYS138     -0.2867
      5  CB        36.2550   54.9480   19.0830 C.3   138  LYS138      0.0271
      6  CG        35.4590   56.2050   19.4170 C.3   138  LYS138      0.0035
      7  CD        34.8150   56.8590   18.1960 C.3   138  LYS138      0.0206
      8  CE        35.7860   57.7250   17.4040 C.3   138  LYS138      0.1093
      9  NZ        35.0490   58.5890   16.4280 N.3   138  LYS138     -0.1314
     10  N         35.9300   49.2250   22.6230 N.3   142  LEU142     -0.1245
     11  CA        35.3760   48.5830   21.4580 C.3   142  LEU142      0.1561
     12  C         33.9110   48.1460   21.6340 C.2   142  LEU142      0.2260
     13  O         33.1130   48.2300   20.6940 O.2   142  LEU142     -0.2867
     14  CB        36.2640   47.3780   21.1290 C.3   142  LEU142      0.0270
     15  CG        35.9510   46.4640   19.9630 C.3   142  LEU142      0.0019
     16  CD1       35.9080   47.2700   18.6730 C.3   142  LEU142      0.0001
     17  CD2       37.0010   45.3690   19.8850 C.3   142  LEU142      0.0001
     18  N         31.6800   51.2100   21.7910 N.3   145  SER145     -0.1202
     19  CA        31.5780   51.7100   20.4090 C.3   145  SER145      0.2020
     20  C         30.5830   50.8960   19.5790 C.2   145  SER145      0.2618
     21  O         29.7030   51.4630   18.8960 O.2   145  SER145     -0.2717
     22  CB        32.9600   51.7220   19.7470 C.3   145  SER145      0.2103
     23  OG        33.7790   52.6960   20.3770 O.3   145  SER145     -0.2182
     24  N         30.6890   49.5730   19.6640 N.am  146  ARG146     -0.1979
     25  CA        29.8180   48.7050   18.9090 C.3   146  ARG146      0.1597
     26  C         28.3420   48.9000   19.3410 C.2   146  ARG146      0.2287
     27  O         27.4580   49.0250   18.4810 O.2   146  ARG146     -0.2864
     28  CB        30.2860   47.2400   19.0390 C.3   146  ARG146      0.0334
     29  CG        29.2770   46.2580   18.4660 C.3   146  ARG146      0.0492
     30  CD        29.8090   44.8380   18.4580 C.3   146  ARG146      0.2205
     31  NE        29.8590   44.2450   19.7920 N.pl3 146  ARG146     -0.0865
     32  CZ        30.9330   44.2170   20.5750 C.cat 146  ARG146      0.5346
     33  NH1       32.0910   44.7470   20.1620 N.pl3 146  ARG146      0.1354
     34  NH2       30.8540   43.6580   21.7730 N.pl3 146  ARG146      0.1354
     35  N         27.2190   52.4200   18.2390 N.3   149  CYS149     -0.1221
     36  CA        26.9590   52.3580   16.8230 C.3   149  CYS149      0.1808
     37  C         25.5880   51.7270   16.4880 C.2   149  CYS149      0.2601
     38  O         24.8280   52.2600   15.6630 O.2   149  CYS149     -0.2717
     39  CB        28.1040   51.6420   16.1230 C.3   149  CYS149      0.0970
     40  SG        28.0870   51.9370   14.3520 S.3   149  CYS149     -0.0800
     41  N         25.2630   50.6160   17.1490 N.am  150  HIS150     -0.1975
     42  CA        23.9610   49.9920   16.9330 C.3   150  HIS150      0.1656
     43  C         22.8720   50.9570   17.2770 C.2   150  HIS150      0.2291
     44  O         21.9400   51.1310   16.5000 O.2   150  HIS150     -0.2864
     45  CB        23.8380   48.6970   17.7240 C.3   150  HIS150      0.0771
     46  CG        24.6740   47.5660   17.1590 C.ar  150  HIS150      0.0820
     47  ND1       25.3270   46.6800   17.9360 N.ar  150  HIS150     -0.2267
     48  CD2       24.9360   47.1960   15.8410 C.ar  150  HIS150      0.1154
     49  CE1       25.9600   45.7740   17.1570 C.ar  150  HIS150      0.1986
     50  NE2       25.7360   46.0990   15.8790 N.ar  150  HIS150     -0.2212
     51  N         32.7490   55.2020   13.4100 N.3   166  PHE166     -0.1227
     52  CA        33.3250   53.9810   13.9810 C.3   166  PHE166      0.1736
     53  C         33.9560   53.1430   12.8790 C.2   166  PHE166      0.2595
     54  O         33.3820   52.9750   11.8130 O.2   166  PHE166     -0.2718
     55  CB        32.2690   53.1730   14.7450 C.3   166  PHE166      0.0547
     56  CG        31.7020   53.9030   15.9070 C.ar  166  PHE166     -0.0202
     57  CD1       32.4340   54.0330   17.0800 C.ar  166  PHE166     -0.0042
     58  CD2       30.4290   54.4670   15.8340 C.ar  166  PHE166     -0.0042
     59  CE1       31.9180   54.7120   18.1670 C.ar  166  PHE166     -0.0003
     60  CE2       29.9060   55.1550   16.9180 C.ar  166  PHE166     -0.0003
     61  CZ        30.6530   55.2700   18.0890 C.ar  166  PHE166     -0.0000
     62  N         35.1560   52.6400   13.1500 N.am  167  ILE167     -0.1966
     63  CA        35.9400   51.8960   12.1810 C.3   167  ILE167      0.1727
     64  C         36.3680   50.5930   12.8330 C.2   167  ILE167      0.2616
     65  O         37.1700   50.5950   13.7680 O.2   167  ILE167     -0.2715
     66  CB        37.2180   52.6660   11.7350 C.3   167  ILE167      0.0290
     67  CG1       36.9350   54.1400   11.3800 C.3   167  ILE167      0.0022
     68  CG2       37.9510   51.9180   10.6190 C.3   167  ILE167      0.0023
     69  CD1       36.0630   54.3850   10.1710 C.3   167  ILE167      0.0001
     70  N         35.8540   49.4880   12.3550 N.am  168  LYS168     -0.1977
     71  CA        36.2040   48.1970   12.8480 C.3   168  LYS168      0.1596
     72  C         37.6750   47.8970   12.4530 C.2   168  LYS168      0.2287
     73  O         38.0710   48.1660   11.3600 O.2   168  LYS168     -0.2864
     74  CB        35.3090   47.1450   12.2550 C.3   168  LYS168      0.0298
     75  CG        33.9260   47.2060   12.7860 C.3   168  LYS168      0.0038
     76  CD        32.9480   46.2920   12.0850 C.3   168  LYS168      0.0206
     77  CE        32.9930   44.9500   12.5850 C.3   168  LYS168      0.1093
     78  NZ        32.0080   44.1440   11.9310 N.3   168  LYS168     -0.1314
     79  N         39.4280   44.7440   12.4810 N.3   170  ARG170     -0.1245
     80  CA        39.3310   43.3130   12.5900 C.3   170  ARG170      0.1563
     81  C         39.7830   42.6440   11.2970 C.2   170  ARG170      0.2260
     82  O         39.0090   42.5960   10.3550 O.2   170  ARG170     -0.2867
     83  CB        37.9090   42.8480   12.8960 C.3   170  ARG170      0.0307
     84  CG        37.1500   43.6590   13.8810 C.3   170  ARG170      0.0489
     85  CD        36.2600   42.7840   14.7080 C.3   170  ARG170      0.2205
     86  NE        35.9930   43.2930   16.0360 N.pl3 170  ARG170     -0.0865
     87  CZ        35.3850   42.5830   16.9790 C.cat 170  ARG170      0.5346
     88  NH1       35.0250   41.3490   16.6780 N.pl3 170  ARG170      0.1354
     89  NH2       35.1170   43.1000   18.1970 N.pl3 170  ARG170      0.1354
@<TRIPOS>BOND
     1    69    67    1
     2    82    81    2
     3    68    66    1
     4    81    80    1
     5    73    72    2
     6    67    66    1
     7    66    63    1
     8    54    53    2
     9    78    77    1
    10    76    77    1
    11    76    75    1
    12    63    64    1
    13    63    62    1
    14    74    75    1
    15    74    71    1
    16    70    64   am
    17    70    71    1
    18    72    71    1
    19    79    80    1
    20    80    83    1
    21    64    65    2
    22    53    62   am
    23    53    52    1
    24    83    84    1
    25    51    52    1
    26    84    85    1
    27    52    55    1
    28    40    39    1
    29    85    86    1
    30    55    56    1
    31    38    37    2
    32    58    56   ar
    33    58    60   ar
    34    48    50   ar
    35    48    46   ar
    36    50    49   ar
    37    56    57   ar
    38    86    87    2
    39    39    36    1
    40     9     8    1
    41    37    36    1
    42    37    41   am
    43    44    43    2
    44    88    87    1
    45    36    35    1
    46    60    61   ar
    47    42    41    1
    48    42    43    1
    49    42    45    1
    50    87    89    1
    51    57    59   ar
    52    49    47   ar
    53    46    45    1
    54    46    47   ar
    55     8     7    1
    56    61    59   ar
    57     7     6    1
    58    30    29    1
    59    30    31    1
    60    29    28    1
    61    27    26    2
    62    16    15    1
    63    21    20    2
    64    25    28    1
    65    25    26    1
    66    25    24    1
    67     5     6    1
    68     5     2    1
    69    20    24   am
    70    20    19    1
    71    22    23    1
    72    22    19    1
    73    31    32    2
    74    17    15    1
    75    15    14    1
    76     3     4    2
    77     3     2    1
    78    33    32    1
    79     2     1    1
    80    19    18    1
    81    32    34    1
    82    13    12    2
    83    14    11    1
    84    11    12    1
    85    11    10    1
