@<TRIPOS>MOLECULE
tmp/4bw1A00.pdb
 141 139 0 0 0
SMALL
GASTEIGER

@<TRIPOS>ATOM
      1  N          8.0210   -2.5320   12.4280 N.3    40  TRP40      -0.1228
      2  CA         9.3310   -2.8290   13.0080 C.3    40  TRP40       0.1722
      3  C         10.2870   -1.6410   13.2080 C.2    40  TRP40       0.2437
      4  O         10.9520   -1.5910   14.2410 O.2    40  TRP40      -0.2733
      5  CB        10.0160   -3.9900   12.2630 C.3    40  TRP40       0.0563
      6  CG        10.2960   -3.7310   10.8250 C.ar   40  TRP40       0.0003
      7  CD1        9.4590   -3.9490    9.7700 C.ar   40  TRP40       0.0946
      8  CD2       11.5010   -3.2020   10.2790 C.ar   40  TRP40       0.0152
      9  NE1       10.0690   -3.5790    8.5970 N.ar   40  TRP40      -0.2442
     10  CE2       11.3290   -3.1230    8.8820 C.ar   40  TRP40       0.0810
     11  CE3       12.7160   -2.7910   10.8350 C.ar   40  TRP40       0.0012
     12  CZ2       12.3250   -2.6450    8.0360 C.ar   40  TRP40       0.0191
     13  CZ3       13.7010   -2.3230    9.9970 C.ar   40  TRP40       0.0001
     14  CH2       13.5010   -2.2520    8.6130 C.ar   40  TRP40       0.0015
     15  N         10.3410   -0.6700   12.2630 N.am   41  PRO41      -0.2718
     16  CA        11.2470    0.4580   12.5170 C.3    41  PRO41       0.1535
     17  C         10.7970    1.3510   13.6710 C.2    41  PRO41       0.2598
     18  O         11.5880    2.1490   14.1670 O.2    41  PRO41      -0.2715
     19  CB        11.2120    1.2550   11.2020 C.3    41  PRO41       0.0310
     20  CG        10.6020    0.3380   10.1950 C.3    41  PRO41       0.0237
     21  CD         9.6290   -0.4830   10.9880 C.3    41  PRO41       0.0939
     22  N          9.5370    1.2110   14.0800 N.am   42  PHE42      -0.1974
     23  CA         8.9580    2.0040   15.1630 C.3    42  PHE42       0.1639
     24  C          8.8740    1.2580   16.4950 C.2    42  PHE42       0.2290
     25  O          8.3300    1.7930   17.4630 O.2    42  PHE42      -0.2864
     26  CB         7.5520    2.4550   14.7590 C.3    42  PHE42       0.0560
     27  CG         7.5080    3.2020   13.4600 C.ar   42  PHE42      -0.0200
     28  CD1        7.3570    2.5210   12.2590 C.ar   42  PHE42      -0.0042
     29  CD2        7.6250    4.5830   13.4330 C.ar   42  PHE42      -0.0042
     30  CE1        7.3250    3.2040   11.0560 C.ar   42  PHE42      -0.0003
     31  CE2        7.5870    5.2720   12.2300 C.ar   42  PHE42      -0.0003
     32  CZ         7.4400    4.5800   11.0410 C.ar   42  PHE42      -0.0000
     33  N         11.2570    0.3630   18.5480 N.3    44  GLN44      -0.1231
     34  CA        12.2980    0.7240   19.5100 C.3    44  GLN44       0.1683
     35  C         12.7840    2.1330   19.2020 C.2    44  GLN44       0.2434
     36  O         12.5480    2.6340   18.1050 O.2    44  GLN44      -0.2733
     37  CB        13.4670   -0.2650   19.4460 C.3    44  GLN44       0.0380
     38  CG        14.1360   -0.3780   18.0840 C.3    44  GLN44       0.0905
     39  CD        13.2920   -1.1380   17.0740 C.2    44  GLN44       0.2608
     40  OE1       12.8350   -2.2450   17.3500 O.2    44  GLN44      -0.2717
     41  NE2       13.0770   -0.5450   15.9030 N.am   44  GLN44      -0.0878
     42  N         13.4580    2.7840   20.1660 N.am   45  PRO45      -0.2718
     43  CA        14.0270    4.1000   19.8900 C.3    45  PRO45       0.1535
     44  C         14.9370    4.1110   18.6660 C.2    45  PRO45       0.2598
     45  O         15.6170    3.1240   18.3970 O.2    45  PRO45      -0.2715
     46  CB        14.8370    4.3960   21.1570 C.3    45  PRO45       0.0310
     47  CG        14.1050    3.6700   22.2300 C.3    45  PRO45       0.0237
     48  CD        13.5910    2.4150   21.5880 C.3    45  PRO45       0.0939
     49  N         14.9370    5.2150   17.9290 N.am   46  VAL46      -0.1964
     50  CA        15.8270    5.3630   16.7760 C.3    46  VAL46       0.1727
     51  C         17.2800    5.2940   17.2520 C.2    46  VAL46       0.2616
     52  O         17.7140    6.1240   18.0510 O.2    46  VAL46      -0.2715
     53  CB        15.5710    6.6890   16.0200 C.3    46  VAL46       0.0290
     54  CG1       16.6470    6.9430   14.9650 C.3    46  VAL46       0.0023
     55  CG2       14.1830    6.6810   15.3880 C.3    46  VAL46       0.0023
     56  N         18.0070    4.2800   16.7880 N.am   47  ASP47      -0.1971
     57  CA        19.4340    4.1530   17.0690 C.3    47  ASP47       0.1709
     58  C         20.1850    4.9480   16.0100 C.2    47  ASP47       0.2293
     59  O         20.5700    4.4120   14.9680 O.2    47  ASP47      -0.2864
     60  CB        19.8630    2.6830   17.0660 C.3    47  ASP47       0.1436
     61  CG        21.2960    2.4860   17.5340 C.2    47  ASP47       0.3671
     62  OD1       22.1070    3.4320   17.4250 O.co2  47  ASP47      -0.2456
     63  OD2       21.6070    1.3770   18.0110 O.co2  47  ASP47      -0.2456
     64  N         22.3220    3.4070   12.7070 N.3    51  LEU51      -0.1245
     65  CA        21.6650    3.7880   11.4530 C.3    51  LEU51       0.1561
     66  C         22.4150    4.9100   10.7240 C.2    51  LEU51       0.2260
     67  O         22.0090    5.3260    9.6390 O.2    51  LEU51      -0.2867
     68  CB        20.2170    4.2150   11.7160 C.3    51  LEU51       0.0270
     69  CG        19.2980    3.1570   12.3330 C.3    51  LEU51       0.0019
     70  CD1       17.9570    3.7740   12.7020 C.3    51  LEU51       0.0001
     71  CD2       19.0930    1.9730   11.3990 C.3    51  LEU51       0.0001
     72  N         22.8500    8.2260   11.4870 N.3    53  LEU53      -0.1245
     73  CA        22.0380    9.4360   11.3960 C.3    53  LEU53       0.1561
     74  C         22.5120   10.4420   12.4490 C.2    53  LEU53       0.2260
     75  O         21.8110   10.6870   13.4320 O.2    53  LEU53      -0.2867
     76  CB        20.5590    9.0940   11.6170 C.3    53  LEU53       0.0270
     77  CG        19.9390    8.0460   10.6890 C.3    53  LEU53       0.0019
     78  CD1       18.5500    7.6590   11.1760 C.3    53  LEU53       0.0001
     79  CD2       19.8860    8.5460    9.2530 C.3    53  LEU53       0.0001
     80  N         20.0840   13.2060   13.8060 N.3    56  TYR56      -0.1241
     81  CA        18.7170   12.8540   14.2010 C.3    56  TYR56       0.1605
     82  C         18.3090   13.5270   15.5100 C.2    56  TYR56       0.2264
     83  O         17.2740   14.1950   15.5740 O.2    56  TYR56      -0.2867
     84  CB        18.5190   11.3420   14.3180 C.3    56  TYR56       0.0534
     85  CG        17.0870   11.0060   14.6450 C.ar   56  TYR56      -0.0201
     86  CD1       16.1220   10.9570   13.6450 C.ar   56  TYR56      -0.0009
     87  CD2       16.6860   10.7870   15.9590 C.ar   56  TYR56      -0.0009
     88  CE1       14.8000   10.6770   13.9400 C.ar   56  TYR56       0.0417
     89  CE2       15.3650   10.5060   16.2660 C.ar   56  TYR56       0.0417
     90  CZ        14.4240   10.4500   15.2540 C.ar   56  TYR56       0.1957
     91  OH        13.1100   10.1750   15.5600 O.3    56  TYR56      -0.2866
     92  N          8.6610   11.4820   12.6860 N.3    95  CYS95      -0.1235
     93  CA         9.0040   10.8090   11.4440 C.3    95  CYS95       0.1677
     94  C          8.8210   11.7570   10.2610 C.2    95  CYS95       0.2270
     95  O          9.6900   11.8420    9.3820 O.2    95  CYS95      -0.2867
     96  CB         8.1480    9.5520   11.2720 C.3    95  CYS95       0.0956
     97  SG         8.6270    8.5220    9.8730 S.3    95  CYS95      -0.0801
     98  N         11.6140   14.6970   10.4200 N.3    98  TYR98      -0.1227
     99  CA        13.0030   14.3530   10.1150 C.3    98  TYR98       0.1736
    100  C         13.2160   13.9170    8.6650 C.2    98  TYR98       0.2595
    101  O         14.2180   14.2810    8.0430 O.2    98  TYR98      -0.2718
    102  CB        13.5190   13.2560   11.0540 C.3    98  TYR98       0.0548
    103  CG        14.9570   12.9030   10.7600 C.ar   98  TYR98      -0.0200
    104  CD1       15.9910   13.7470   11.1550 C.ar   98  TYR98      -0.0009
    105  CD2       15.2820   11.7540   10.0470 C.ar   98  TYR98      -0.0009
    106  CE1       17.3100   13.4460   10.8670 C.ar   98  TYR98       0.0417
    107  CE2       16.6000   11.4440    9.7550 C.ar   98  TYR98       0.0417
    108  CZ        17.6080   12.2920   10.1680 C.ar   98  TYR98       0.1957
    109  OH        18.9180   11.9910    9.8790 O.3    98  TYR98      -0.2866
    110  N         12.2870   13.1250    8.1390 N.am   99  ASN99      -0.1974
    111  CA        12.4600   12.4950    6.8310 C.3    99  ASN99       0.1688
    112  C         11.8410   13.3060    5.6950 C.2    99  ASN99       0.2292
    113  O         11.0340   14.2050    5.9280 O.2    99  ASN99      -0.2864
    114  CB        11.8660   11.0880    6.8620 C.3    99  ASN99       0.1181
    115  CG        12.5310   10.2030    7.9000 C.2    99  ASN99       0.2629
    116  OD1       13.6520    9.7390    7.7030 O.2    99  ASN99      -0.2716
    117  ND2       11.8460    9.9710    9.0180 N.am   99  ASN99      -0.0877
    118  N         10.5680    5.9900    2.0840 N.3   104  ASP104     -0.1225
    119  CA         9.8590    4.7580    2.4400 C.3   104  ASP104      0.1805
    120  C          9.3560    4.7860    3.8810 C.2   104  ASP104      0.2597
    121  O          8.2140    4.4170    4.1460 O.2   104  ASP104     -0.2718
    122  CB        10.7510    3.5280    2.2260 C.3   104  ASP104      0.1424
    123  CG        10.8560    3.1200    0.7620 C.2   104  ASP104      0.3668
    124  OD1       10.0880    3.6430   -0.0740 O.co2 104  ASP104     -0.2456
    125  OD2       11.7060    2.2600    0.4510 O.co2 104  ASP104     -0.2456
    126  N         10.2060    5.2350    4.8010 N.am  105  ILE105     -0.1980
    127  CA         9.8310    5.3060    6.2170 C.3   105  ILE105      0.1595
    128  C          8.6000    6.1940    6.4450 C.2   105  ILE105      0.2287
    129  O          7.7960    5.9110    7.3310 O.2   105  ILE105     -0.2864
    130  CB        11.0190    5.7640    7.1080 C.3   105  ILE105      0.0276
    131  CG1       10.7210    5.5240    8.5950 C.3   105  ILE105      0.0022
    132  CG2       11.3680    7.2260    6.8650 C.3   105  ILE105      0.0022
    133  CD1       10.6160    4.0630    8.9790 C.3   105  ILE105      0.0001
    134  N          5.5980    4.1970    5.4070 N.3   108  MET108     -0.1245
    135  CA         5.3820    3.2190    6.4740 C.3   108  MET108      0.1570
    136  C          4.6620    3.8710    7.6580 C.2   108  MET108      0.2261
    137  O          3.6960    3.3170    8.1870 O.2   108  MET108     -0.2867
    138  CB         6.7140    2.6110    6.9240 C.3   108  MET108      0.0387
    139  CG         7.3620    1.7160    5.8750 C.3   108  MET108      0.0595
    140  SD         9.0240    1.1790    6.3130 S.3   108  MET108     -0.1393
    141  CE         8.6640   -0.2470    7.3310 C.3   108  MET108      0.0692
@<TRIPOS>BOND
     1   124   123   ar
     2   125   123   ar
     3   123   122    1
     4   118   119    1
     5   122   119    1
     6   119   120    1
     7   120   121    2
     8   120   126   am
     9   126   127    1
    10   134   135    1
    11   112   113    2
    12   112   111    1
    13   139   140    1
    14   139   138    1
    15   127   128    1
    16   127   130    1
    17   140   141    1
    18   128   129    2
    19   135   138    1
    20   135   136    1
    21   111   114    1
    22   111   110    1
    23   114   115    1
    24   132   130    1
    25   130   131    1
    26   136   137    2
    27   116   115    2
    28   115   117   am
    29    12    14   ar
    30    12    10   ar
    31   101   100    2
    32   110   100   am
    33   131   133    1
    34     9    10   ar
    35     9     7   ar
    36    14    13   ar
    37   100    99    1
    38    10     8   ar
    39    79    77    1
    40    95    94    2
    41    67    66    2
    42   107   105   ar
    43   107   108   ar
    44     7     6   ar
    45    97    96    1
    46   109   108    1
    47    13    11   ar
    48   105   103   ar
    49    99    98    1
    50    99   102    1
    51   108   106   ar
    52    20    21    1
    53    20    19    1
    54    94    93    1
    55     8     6   ar
    56     8    11   ar
    57    77    78    1
    58    77    76    1
    59    66    65    1
    60   103   102    1
    61   103   104   ar
    62     6     5    1
    63   106   104   ar
    64    21    15    1
    65    32    30   ar
    66    32    31   ar
    67    30    28   ar
    68    19    16    1
    69    96    93    1
    70    73    72    1
    71    73    76    1
    72    73    74    1
    73    71    69    1
    74    93    92    1
    75    65    68    1
    76    65    64    1
    77    68    69    1
    78    31    29   ar
    79    28    27   ar
    80     5     2    1
    81    15    16    1
    82    15     3   am
    83    69    70    1
    84     1     2    1
    85    74    75    2
    86    16    17    1
    87     2     3    1
    88     3     4    2
    89    29    27   ar
    90    27    26    1
    91    86    88   ar
    92    86    85   ar
    93    17    22   am
    94    17    18    2
    95    80    81    1
    96    88    90   ar
    97    22    23    1
    98    81    84    1
    99    81    82    1
   100    84    85    1
   101    85    87   ar
   102    26    23    1
   103    54    53    1
   104    59    58    2
   105    23    24    1
   106    90    91    1
   107    90    89   ar
   108    55    53    1
   109    82    83    2
   110    41    39   am
   111    87    89   ar
   112    58    57    1
   113    53    50    1
   114    24    25    2
   115    50    51    1
   116    50    49    1
   117    56    57    1
   118    56    51   am
   119    60    57    1
   120    60    61    1
   121    39    40    2
   122    39    38    1
   123    51    52    2
   124    62    61   ar
   125    61    63   ar
   126    49    44   am
   127    38    37    1
   128    36    35    2
   129    45    44    2
   130    33    34    1
   131    44    43    1
   132    35    34    1
   133    35    42   am
   134    37    34    1
   135    43    42    1
   136    43    46    1
   137    42    48    1
   138    46    47    1
   139    48    47    1
