@<TRIPOS>MOLECULE
tmp/4bw4A00.pdb
 157 154 0 0 0
SMALL
GASTEIGER

@<TRIPOS>ATOM
      1  N          7.2960   -3.1720   12.7620 N.3    40  TRP40      -0.1228
      2  CA         8.6620   -3.3920   13.2670 C.3    40  TRP40       0.1722
      3  C          9.6120   -2.1710   13.3470 C.2    40  TRP40       0.2437
      4  O         10.3690   -2.0620   14.3130 O.2    40  TRP40      -0.2733
      5  CB         9.3220   -4.5850   12.5460 C.3    40  TRP40       0.0563
      6  CG         9.5630   -4.3770   11.1000 C.ar   40  TRP40       0.0003
      7  CD1        8.7170   -4.6690   10.0700 C.ar   40  TRP40       0.0946
      8  CD2       10.7370   -3.8300   10.5130 C.ar   40  TRP40       0.0152
      9  NE1        9.2940   -4.3250    8.8710 N.ar   40  TRP40      -0.2442
     10  CE2       10.5380   -3.8090    9.1160 C.ar   40  TRP40       0.0810
     11  CE3       11.9430   -3.3520   11.0300 C.ar   40  TRP40       0.0012
     12  CZ2       11.5020   -3.3300    8.2340 C.ar   40  TRP40       0.0191
     13  CZ3       12.8920   -2.8790   10.1570 C.ar   40  TRP40       0.0001
     14  CH2       12.6700   -2.8730    8.7700 C.ar   40  TRP40       0.0015
     15  N          9.5650   -1.2270   12.3810 N.am   41  PRO41      -0.2718
     16  CA        10.4400   -0.0590   12.5460 C.3    41  PRO41       0.1535
     17  C          9.9930    0.8870   13.6700 C.2    41  PRO41       0.2598
     18  O         10.7570    1.7640   14.0840 O.2    41  PRO41      -0.2715
     19  CB        10.3300    0.6600   11.1940 C.3    41  PRO41       0.0310
     20  CG         9.6320   -0.2890   10.2800 C.3    41  PRO41       0.0237
     21  CD         8.7520   -1.1020   11.1630 C.3    41  PRO41       0.0939
     22  N          8.7580    0.7060   14.1270 N.am   42  PHE42      -0.1974
     23  CA         8.1470    1.5440   15.1490 C.3    42  PHE42       0.1639
     24  C          8.1150    0.8770   16.5260 C.2    42  PHE42       0.2290
     25  O          7.5870    1.4540   17.4620 O.2    42  PHE42      -0.2864
     26  CB         6.7080    1.8860   14.7260 C.3    42  PHE42       0.0560
     27  CG         6.6150    2.5560   13.3840 C.ar   42  PHE42      -0.0200
     28  CD1        6.4900    1.8040   12.2210 C.ar   42  PHE42      -0.0042
     29  CD2        6.6660    3.9390   13.2780 C.ar   42  PHE42      -0.0042
     30  CE1        6.4160    2.4170   10.9790 C.ar   42  PHE42      -0.0003
     31  CE2        6.5850    4.5570   12.0350 C.ar   42  PHE42      -0.0003
     32  CZ         6.4720    3.7970   10.8860 C.ar   42  PHE42      -0.0000
     33  N         10.5350    0.1610   18.5900 N.3    44  GLN44      -0.1231
     34  CA        11.5890    0.5930   19.5010 C.3    44  GLN44       0.1683
     35  C         12.0570    1.9790   19.0920 C.2    44  GLN44       0.2434
     36  O         11.7950    2.4080   17.9610 O.2    44  GLN44      -0.2733
     37  CB        12.7670   -0.3920   19.4940 C.3    44  GLN44       0.0380
     38  CG        13.4470   -0.5770   18.1450 C.3    44  GLN44       0.0905
     39  CD        12.5900   -1.3320   17.1490 C.2    44  GLN44       0.2608
     40  OE1       12.1080   -2.4280   17.4390 O.2    44  GLN44      -0.2717
     41  NE2       12.3880   -0.7490   15.9670 N.am   44  GLN44      -0.0878
     42  N         12.7490    2.6850   20.0010 N.am   45  PRO45      -0.2718
     43  CA        13.2870    3.9880   19.6310 C.3    45  PRO45       0.1535
     44  C         14.1520    3.9350   18.3810 C.2    45  PRO45       0.2598
     45  O         14.8630    2.9480   18.1450 O.2    45  PRO45      -0.2715
     46  CB        14.1330    4.3750   20.8440 C.3    45  PRO45       0.0310
     47  CG        13.4700    3.6970   21.9880 C.3    45  PRO45       0.0237
     48  CD        12.9360    2.4020   21.4360 C.3    45  PRO45       0.0939
     49  N         14.0960    4.9990   17.5870 N.am   46  VAL46      -0.1964
     50  CA        14.9550    5.1080   16.4210 C.3    46  VAL46       0.1727
     51  C         16.4210    5.1040   16.8680 C.2    46  VAL46       0.2616
     52  O         16.8600    5.9810   17.6180 O.2    46  VAL46      -0.2715
     53  CB        14.6580    6.3870   15.6070 C.3    46  VAL46       0.0290
     54  CG1       15.6840    6.5680   14.4920 C.3    46  VAL46       0.0023
     55  CG2       13.2530    6.3340   15.0290 C.3    46  VAL46       0.0023
     56  N         17.1650    4.0960   16.4190 N.am   47  ASP47      -0.1971
     57  CA        18.5880    4.0000   16.7210 C.3    47  ASP47       0.1709
     58  C         19.3380    4.7110   15.6010 C.2    47  ASP47       0.2293
     59  O         19.7080    4.1050   14.5950 O.2    47  ASP47      -0.2864
     60  CB        19.0250    2.5350   16.8550 C.3    47  ASP47       0.1436
     61  CG        20.4510    2.3870   17.3680 C.2    47  ASP47       0.3671
     62  OD1       21.2640    3.3160   17.1950 O.co2  47  ASP47      -0.2456
     63  OD2       20.7610    1.3260   17.9390 O.co2  47  ASP47      -0.2456
     64  N         21.2720    3.0600   12.3290 N.3    51  LEU51      -0.1245
     65  CA        20.6440    3.4180   11.0580 C.3    51  LEU51       0.1561
     66  C         21.3970    4.5050   10.2810 C.2    51  LEU51       0.2260
     67  O         20.9730    4.8810    9.1850 O.2    51  LEU51      -0.2867
     68  CB        19.1940    3.8520   11.2970 C.3    51  LEU51       0.0270
     69  CG        18.2900    2.7840   11.9150 C.3    51  LEU51       0.0019
     70  CD1       16.9220    3.3740   12.2170 C.3    51  LEU51       0.0001
     71  CD2       18.1610    1.5760   11.0010 C.3    51  LEU51       0.0001
     72  N         21.7360    7.7960   10.8020 N.3    53  LEU53      -0.1245
     73  CA        20.9220    8.9920   10.6320 C.3    53  LEU53       0.1561
     74  C         21.4250   10.0560   11.6090 C.2    53  LEU53       0.2260
     75  O         20.7450   10.3610   12.5880 O.2    53  LEU53      -0.2867
     76  CB        19.4450    8.6760   10.9060 C.3    53  LEU53       0.0270
     77  CG        18.8190    7.5490   10.0810 C.3    53  LEU53       0.0019
     78  CD1       17.4300    7.2190   10.6030 C.3    53  LEU53       0.0001
     79  CD2       18.7680    7.8950    8.6000 C.3    53  LEU53       0.0001
     80  N         19.0150   12.8350   12.8640 N.3    56  TYR56      -0.1241
     81  CA        17.6740   12.4780   13.3300 C.3    56  TYR56       0.1605
     82  C         17.2900   13.2530   14.5840 C.2    56  TYR56       0.2264
     83  O         16.2450   13.9030   14.6210 O.2    56  TYR56      -0.2867
     84  CB        17.5190   10.9750   13.5960 C.3    56  TYR56       0.0534
     85  CG        16.0890   10.6410   13.9750 C.ar   56  TYR56      -0.0201
     86  CD1       15.1030   10.5360   12.9980 C.ar   56  TYR56      -0.0009
     87  CD2       15.7120   10.4890   15.3080 C.ar   56  TYR56      -0.0009
     88  CE1       13.7860   10.2660   13.3350 C.ar   56  TYR56       0.0417
     89  CE2       14.3980   10.2180   15.6550 C.ar   56  TYR56       0.0417
     90  CZ        13.4400   10.1070   14.6620 C.ar   56  TYR56       0.1957
     91  OH        12.1310    9.8410   14.9850 O.3    56  TYR56      -0.2866
     92  N          4.6090    9.9560   17.5640 N.3    91  MET91      -0.1245
     93  CA         5.3050    8.9540   16.7530 C.3    91  MET91       0.1570
     94  C          5.0490    9.1380   15.2590 C.2    91  MET91       0.2261
     95  O          5.9930    9.1690   14.4740 O.2    91  MET91      -0.2867
     96  CB         4.8830    7.5420   17.1660 C.3    91  MET91       0.0387
     97  CG         5.5880    6.4240   16.4150 C.3    91  MET91       0.0595
     98  SD         4.9830    4.8080   16.9210 S.3    91  MET91      -0.1393
     99  CE         3.4330    4.7440   16.0330 C.3    91  MET91       0.0692
    100  N          6.5340   12.6130   13.9630 N.3    94  ASN94      -0.1225
    101  CA         7.9860   12.5480   13.8100 C.3    94  ASN94       0.1785
    102  C          8.3580   11.9040   12.4790 C.2    94  ASN94       0.2597
    103  O          9.2120   12.4120   11.7500 O.2    94  ASN94      -0.2718
    104  CB         8.6260   11.7570   14.9540 C.3    94  ASN94       0.1169
    105  CG         8.5330   12.4670   16.2950 C.2    94  ASN94       0.2627
    106  OD1        8.2620   13.6720   16.3810 O.2    94  ASN94      -0.2716
    107  ND2        8.7550   11.7110   17.3540 N.am   94  ASN94      -0.0877
    108  N          7.6880   10.8000   12.1560 N.am   95  CYS95      -0.1970
    109  CA         7.9600   10.0620   10.9290 C.3    95  CYS95       0.1712
    110  C          7.6850   10.9350    9.7020 C.2    95  CYS95       0.2296
    111  O          8.4980   10.9860    8.7730 O.2    95  CYS95      -0.2864
    112  CB         7.1260    8.7740   10.8890 C.3    95  CYS95       0.0983
    113  SG         7.4810    7.7020    9.4800 S.3    95  CYS95      -0.0798
    114  N         10.4110   13.9570    9.5270 N.3    98  TYR98      -0.1227
    115  CA        11.7920   13.5970    9.2150 C.3    98  TYR98       0.1736
    116  C         11.9520   13.0240    7.8080 C.2    98  TYR98       0.2595
    117  O         12.9400   13.3090    7.1260 O.2    98  TYR98      -0.2718
    118  CB        12.3340   12.5970   10.2390 C.3    98  TYR98       0.0548
    119  CG        13.7590   12.2140    9.9500 C.ar   98  TYR98      -0.0200
    120  CD1       14.8030   13.0730   10.2700 C.ar   98  TYR98      -0.0009
    121  CD2       14.0640   11.0100    9.3210 C.ar   98  TYR98      -0.0009
    122  CE1       16.1140   12.7380    9.9850 C.ar   98  TYR98       0.0417
    123  CE2       15.3740   10.6650    9.0340 C.ar   98  TYR98       0.0417
    124  CZ        16.3930   11.5340    9.3720 C.ar   98  TYR98       0.1957
    125  OH        17.6960   11.2030    9.0910 O.3    98  TYR98      -0.2866
    126  N         10.9890   12.2090    7.3900 N.am   99  ASN99      -0.1974
    127  CA        11.0470   11.5240    6.0990 C.3    99  ASN99       0.1688
    128  C         10.2470   12.2660    5.0290 C.2    99  ASN99       0.2292
    129  O          9.4120   13.1130    5.3400 O.2    99  ASN99      -0.2864
    130  CB        10.5420   10.0900    6.2530 C.3    99  ASN99       0.1181
    131  CG        11.3270    9.3070    7.2930 C.2    99  ASN99       0.2629
    132  OD1       12.4460    8.8600    7.0370 O.2    99  ASN99      -0.2716
    133  ND2       10.7440    9.1390    8.4770 N.am   99  ASN99      -0.0877
    134  N          8.7540    4.8170    1.7370 N.3   104  ASP104     -0.1225
    135  CA         8.1450    3.5830    2.2290 C.3   104  ASP104      0.1805
    136  C          7.7800    3.6650    3.7080 C.2   104  ASP104      0.2597
    137  O          6.6940    3.2400    4.1000 O.2   104  ASP104     -0.2718
    138  CB         9.0750    2.3940    1.9940 C.3   104  ASP104      0.1424
    139  CG         9.2270    2.0540    0.5260 C.2   104  ASP104      0.3668
    140  OD1        8.3080    2.3550   -0.2680 O.co2 104  ASP104     -0.2456
    141  OD2       10.2690    1.4770    0.1650 O.co2 104  ASP104     -0.2456
    142  N          8.6760    4.2190    4.5220 N.am  105  ILE105     -0.1980
    143  CA         8.4170    4.3270    5.9600 C.3   105  ILE105      0.1595
    144  C          7.2260    5.2370    6.2500 C.2   105  ILE105      0.2287
    145  O          6.4900    5.0080    7.2070 O.2   105  ILE105     -0.2864
    146  CB         9.6720    4.7720    6.7560 C.3   105  ILE105      0.0276
    147  CG1        9.4780    4.5330    8.2630 C.3   105  ILE105      0.0022
    148  CG2       10.0280    6.2290    6.4780 C.3   105  ILE105      0.0022
    149  CD1        9.5110    3.0770    8.6760 C.3   105  ILE105      0.0001
    150  N          4.1650    3.2110    5.4200 N.3   108  MET108     -0.1245
    151  CA         3.9780    2.2790    6.5280 C.3   108  MET108      0.1570
    152  C          3.3170    2.9670    7.7210 C.2   108  MET108      0.2261
    153  O          2.3590    2.4410    8.2940 O.2   108  MET108     -0.2867
    154  CB         5.3220    1.6780    6.9450 C.3   108  MET108      0.0387
    155  CG         5.8900    0.7150    5.9150 C.3   108  MET108      0.0595
    156  SD         7.5980    0.2710    6.2520 S.3   108  MET108     -0.1393
    157  CE         7.3720   -1.0060    7.4820 C.3   108  MET108      0.0692
@<TRIPOS>BOND
     1   140   139   ar
     2   141   139   ar
     3   139   138    1
     4   134   135    1
     5   138   135    1
     6   135   136    1
     7   136   137    2
     8   136   142   am
     9   142   143    1
    10   128   129    2
    11   128   127    1
    12   150   151    1
    13   155   156    1
    14   155   154    1
    15   143   144    1
    16   143   146    1
    17   127   130    1
    18   127   126    1
    19   144   145    2
    20   156   157    1
    21   130   131    1
    22   148   146    1
    23   151   154    1
    24   151   152    1
    25   146   147    1
    26   132   131    2
    27   117   116    2
    28   131   133   am
    29   126   116   am
    30   152   153    2
    31   116   115    1
    32    12    14   ar
    33    12    10   ar
    34   147   149    1
    35    79    77    1
    36    14    13   ar
    37   111   110    2
    38     9    10   ar
    39     9     7   ar
    40   123   121   ar
    41   123   124   ar
    42   125   124    1
    43    10     8   ar
    44    67    66    2
    45   115   114    1
    46   115   118    1
    47   121   119   ar
    48   124   122   ar
    49   113   112    1
    50   110   109    1
    51   119   118    1
    52   119   120   ar
    53   122   120   ar
    54     7     6   ar
    55    77    78    1
    56    77    76    1
    57    13    11   ar
    58    20    21    1
    59    20    19    1
    60    66    65    1
    61     8    11   ar
    62     8     6   ar
    63    73    72    1
    64    73    76    1
    65    73    74    1
    66    32    30   ar
    67    32    31   ar
    68   112   109    1
    69   109   108    1
    70    30    28   ar
    71    71    69    1
    72    65    68    1
    73    65    64    1
    74     6     5    1
    75    21    15    1
    76    19    16    1
    77    68    69    1
    78    74    75    2
    79   103   102    2
    80    69    70    1
    81    31    29   ar
    82   108   102   am
    83    28    27   ar
    84    15    16    1
    85    15     3   am
    86   102   101    1
    87    16    17    1
    88     5     2    1
    89     1     2    1
    90    80    81    1
    91    86    88   ar
    92    86    85   ar
    93     2     3    1
    94    29    27   ar
    95    81    84    1
    96    81    82    1
    97    88    90   ar
    98     3     4    2
    99    27    26    1
   100    84    85    1
   101    17    18    2
   102    17    22   am
   103   101   100    1
   104   101   104    1
   105    85    87   ar
   106    22    23    1
   107    95    94    2
   108    54    53    1
   109    82    83    2
   110    59    58    2
   111    90    91    1
   112    90    89   ar
   113    26    23    1
   114   104   105    1
   115    55    53    1
   116    23    24    1
   117    94    93    1
   118    87    89   ar
   119    58    57    1
   120    53    50    1
   121    41    39   am
   122    99    98    1
   123   105   106    2
   124   105   107   am
   125    97    98    1
   126    97    96    1
   127    56    57    1
   128    56    51   am
   129    50    51    1
   130    50    49    1
   131    24    25    2
   132    57    60    1
   133    93    96    1
   134    93    92    1
   135    60    61    1
   136    51    52    2
   137    39    40    2
   138    39    38    1
   139    62    61   ar
   140    61    63   ar
   141    49    44   am
   142    36    35    2
   143    45    44    2
   144    38    37    1
   145    44    43    1
   146    33    34    1
   147    35    34    1
   148    35    42   am
   149    37    34    1
   150    43    42    1
   151    43    46    1
   152    42    48    1
   153    46    47    1
   154    48    47    1
