@<TRIPOS>MOLECULE
tmp/4bw9A00.pdb
 156 145 0 0 0
SMALL
GASTEIGER

@<TRIPOS>ATOM
      1  N         75.4390  -28.4610  -21.4690 N.3    95  LEU95      -0.1245
      2  CA        75.4330  -29.7450  -20.7620 C.3    95  LEU95       0.1561
      3  C         75.0990  -30.9280  -21.6910 C.2    95  LEU95       0.2260
      4  O         75.3640  -32.0750  -21.3440 O.2    95  LEU95      -0.2867
      5  CB        74.4960  -29.7110  -19.5330 C.3    95  LEU95       0.0270
      6  CG        74.6140  -30.8090  -18.4410 C.3    95  LEU95       0.0019
      7  CD1       76.0300  -31.0060  -17.9330 C.3    95  LEU95       0.0001
      8  CD2       73.7160  -30.5230  -17.2460 C.3    95  LEU95       0.0001
      9  N         78.2340  -32.5970  -22.8980 N.3    98  GLN98      -0.1245
     10  CA        78.9370  -33.2230  -21.7420 C.3    98  GLN98       0.1566
     11  C         78.4760  -34.6240  -21.3400 C.2    98  GLN98       0.2260
     12  O         79.0910  -35.2360  -20.4940 O.2    98  GLN98      -0.2867
     13  CB        78.8620  -32.3200  -20.4970 C.3    98  GLN98       0.0367
     14  CG        79.5630  -30.9710  -20.6400 C.3    98  GLN98       0.0905
     15  CD        79.5820  -30.1620  -19.3460 C.2    98  GLN98       0.2608
     16  OE1       78.6210  -29.4780  -19.0040 O.2    98  GLN98      -0.2717
     17  NE2       80.6900  -30.2160  -18.6390 N.am   98  GLN98      -0.0878
     18  N         73.9100  -36.0160  -13.3580 N.3   111  MET111     -0.1245
     19  CA        73.3290  -35.3860  -12.1810 C.3   111  MET111      0.1570
     20  C         72.3590  -36.3590  -11.5120 C.2   111  MET111      0.2261
     21  O         71.9570  -37.3690  -12.1210 O.2   111  MET111     -0.2867
     22  CB        72.6070  -34.0980  -12.5890 C.3   111  MET111      0.0387
     23  CG        71.3850  -34.3050  -13.4600 C.3   111  MET111      0.0595
     24  SD        70.8100  -32.7830  -14.2710 S.3   111  MET111     -0.1393
     25  CE        71.2760  -31.4980  -13.0950 C.3   111  MET111      0.0692
     26  N         80.5840  -36.2240  -16.2350 N.3   141  ARG141     -0.1245
     27  CA        80.5000  -35.1940  -17.2710 C.3   141  ARG141      0.1563
     28  C         81.8270  -35.0480  -18.0030 C.2   141  ARG141      0.2260
     29  O         82.8700  -35.0330  -17.3640 O.2   141  ARG141     -0.2867
     30  CB        80.1680  -33.8560  -16.6230 C.3   141  ARG141      0.0307
     31  CG        78.8810  -33.8210  -15.8280 C.3   141  ARG141      0.0489
     32  CD        78.6820  -32.4540  -15.1600 C.3   141  ARG141      0.2205
     33  NE        77.4680  -32.4330  -14.3290 N.pl3 141  ARG141     -0.0865
     34  CZ        76.9210  -31.3340  -13.8380 C.cat 141  ARG141      0.5346
     35  NH1       77.4690  -30.1360  -14.0600 N.pl3 141  ARG141      0.1354
     36  NH2       75.8380  -31.4320  -13.1000 N.pl3 141  ARG141      0.1354
     37  N         84.5470  -32.8280  -19.4220 N.3   143  GLU143     -0.1245
     38  CA        84.9780  -31.4810  -19.0440 C.3   143  GLU143      0.1567
     39  C         86.3030  -31.1710  -19.7340 C.2   143  GLU143      0.2260
     40  O         87.0960  -32.0920  -19.9640 O.2   143  GLU143     -0.2867
     41  CB        85.2070  -31.4090  -17.5130 C.3   143  GLU143      0.0388
     42  CG        83.9960  -31.7550  -16.6320 C.3   143  GLU143      0.1160
     43  CD        82.9480  -30.6430  -16.5340 C.2   143  GLU143      0.3649
     44  OE1       83.1770  -29.5380  -17.0770 O.co2 143  GLU143     -0.2457
     45  OE2       81.8780  -30.8850  -15.9260 O.co2 143  GLU143     -0.2457
     46  N         89.5670  -27.9040  -11.2140 N.3   148  GLU148     -0.1231
     47  CA        88.4020  -28.0010  -10.3260 C.3   148  GLU148      0.1699
     48  C         87.3210  -28.9740  -10.8360 C.2   148  GLU148      0.2592
     49  O         86.2330  -29.0600  -10.2620 O.2   148  GLU148     -0.2718
     50  CB        87.7620  -26.6170  -10.1260 C.3   148  GLU148      0.0402
     51  CG        88.7150  -25.4290  -10.0700 C.3   148  GLU148      0.1161
     52  CD        89.2160  -25.1060   -8.6730 C.2   148  GLU148      0.3649
     53  OE1       89.2990  -26.0370   -7.8290 O.co2 148  GLU148     -0.2457
     54  OE2       89.5200  -23.9080   -8.4240 O.co2 148  GLU148     -0.2457
     55  N         87.5910  -29.6540  -11.9390 N.am  149  HIS149     -0.1962
     56  CA        86.6280  -30.5330  -12.5570 C.3   149  HIS149      0.1787
     57  C         87.2490  -31.8990  -12.8080 C.2   149  HIS149      0.2620
     58  O         88.4000  -31.9850  -13.2170 O.2   149  HIS149     -0.2715
     59  CB        86.2110  -30.0020  -13.9110 C.3   149  HIS149      0.0785
     60  CG        85.2880  -28.8260  -13.8790 C.ar  149  HIS149      0.0821
     61  ND1       85.7370  -27.5300  -13.9900 N.ar  149  HIS149     -0.2267
     62  CD2       83.9380  -28.7580  -13.8750 C.ar  149  HIS149      0.1154
     63  CE1       84.7090  -26.7120  -14.0110 C.ar  149  HIS149      0.1986
     64  NE2       83.6050  -27.4300  -13.9270 N.ar  149  HIS149     -0.2212
     65  N         86.4620  -32.9450  -12.5770 N.am  150  LEU150     -0.1977
     66  CA        86.7900  -34.2990  -12.9760 C.3   150  LEU150      0.1596
     67  C         85.7040  -34.8160  -13.9000 C.2   150  LEU150      0.2287
     68  O         84.5740  -34.3500  -13.8610 O.2   150  LEU150     -0.2864
     69  CB        86.7850  -35.1840  -11.7450 C.3   150  LEU150      0.0297
     70  CG        87.6890  -34.8430  -10.5560 C.3   150  LEU150      0.0022
     71  CD1       87.1650  -35.5630   -9.3220 C.3   150  LEU150      0.0001
     72  CD2       89.1460  -35.2580  -10.8170 C.3   150  LEU150      0.0001
     73  N         82.9190  -37.9280  -10.8930 N.3   153  PHE153     -0.1241
     74  CA        82.9110  -37.2850   -9.6150 C.3   153  PHE153      0.1605
     75  C         81.7560  -37.7920   -8.7620 C.2   153  PHE153      0.2264
     76  O         81.0150  -38.6710   -9.1640 O.2   153  PHE153     -0.2867
     77  CB        82.9030  -35.7580   -9.7640 C.3   153  PHE153      0.0534
     78  CG        81.6490  -35.1750  -10.3620 C.ar  153  PHE153     -0.0203
     79  CD1       81.4150  -35.2390  -11.7300 C.ar  153  PHE153     -0.0042
     80  CD2       80.7440  -34.5140   -9.5880 C.ar  153  PHE153     -0.0042
     81  CE1       80.2790  -34.6720  -12.2800 C.ar  153  PHE153     -0.0003
     82  CE2       79.5990  -33.9450  -10.1240 C.ar  153  PHE153     -0.0003
     83  CZ        79.3570  -34.0230  -11.4730 C.ar  153  PHE153     -0.0000
     84  N         78.5990  -36.8450   -6.2160 N.3   155  MET155     -0.1245
     85  CA        77.6390  -35.7660   -5.9790 C.3   155  MET155      0.1570
     86  C         76.7980  -36.1820   -4.7990 C.2   155  MET155      0.2261
     87  O         76.4440  -37.3690   -4.6670 O.2   155  MET155     -0.2867
     88  CB        76.7760  -35.5990   -7.2070 C.3   155  MET155      0.0387
     89  CG        75.6070  -34.6590   -7.0300 C.3   155  MET155      0.0595
     90  SD        75.9930  -33.0870   -7.7650 S.3   155  MET155     -0.1393
     91  CE        75.4010  -33.4480   -9.4120 C.3   155  MET155      0.0692
     92  N         82.8050  -23.1340   -6.8640 N.3   207  GLU207     -0.1231
     93  CA        81.3900  -23.4550   -6.6300 C.3   207  GLU207      0.1699
     94  C         81.3160  -24.7990   -5.9140 C.2   207  GLU207      0.2592
     95  O         81.7020  -25.8350   -6.4700 O.2   207  GLU207     -0.2718
     96  CB        80.6140  -23.4880   -7.9460 C.3   207  GLU207      0.0402
     97  CG        79.1740  -23.9820   -7.8010 C.3   207  GLU207      0.1161
     98  CD        78.4260  -24.1120   -9.1270 C.2   207  GLU207      0.3649
     99  OE1       78.4110  -23.1370   -9.9120 O.co2 207  GLU207     -0.2457
    100  OE2       77.8130  -25.1770   -9.3800 O.co2 207  GLU207     -0.2457
    101  N         80.8430  -24.7870   -4.6690 N.am  208  LEU208     -0.1966
    102  CA        80.6440  -26.0290   -3.9380 C.3   208  LEU208      0.1728
    103  C         79.3160  -26.6500   -4.2610 C.2   208  LEU208      0.2617
    104  O         79.2090  -27.8900   -4.3080 O.2   208  LEU208     -0.2715
    105  CB        80.7110  -25.8020   -2.4440 C.3   208  LEU208      0.0311
    106  CG        81.9920  -25.1720   -1.9590 C.3   208  LEU208      0.0022
    107  CD1       81.8870  -24.9590   -0.4710 C.3   208  LEU208      0.0001
    108  CD2       83.1520  -26.0670   -2.3140 C.3   208  LEU208      0.0001
    109  N         78.3110  -25.8070   -4.4700 N.am  209  SER209     -0.1936
    110  CA        76.9580  -26.2860   -4.7880 C.3   209  SER209      0.2055
    111  C         76.1040  -25.3330   -5.5740 C.2   209  SER209      0.2643
    112  O         76.2890  -24.1350   -5.5120 O.2   209  SER209     -0.2714
    113  CB        76.1790  -26.5850   -3.4980 C.3   209  SER209      0.2130
    114  OG        74.7800  -26.7240   -3.7540 O.3   209  SER209     -0.2179
    115  N         75.1420  -25.8910   -6.2990 N.am  210  SER210     -0.1949
    116  CA        74.0250  -25.1100   -6.8410 C.3   210  SER210      0.1924
    117  C         72.7790  -25.6020   -6.1460 C.2   210  SER210      0.2314
    118  O         72.5680  -26.8160   -6.0340 O.2   210  SER210     -0.2863
    119  CB        73.8990  -25.2810   -8.3450 C.3   210  SER210      0.2116
    120  OG        74.8900  -24.4830   -9.0020 O.3   210  SER210     -0.2180
    121  N         72.7340  -29.6310   -4.6800 N.3   232  GLY232     -0.1225
    122  CA        73.6710  -30.6490   -5.1230 C.3   232  GLY232      0.1811
    123  C         75.0810  -30.1640   -4.8110 C.2   232  GLY232      0.2280
    124  O         75.3900  -29.0230   -5.1020 O.2   232  GLY232     -0.2866
    125  N         79.4710  -31.2760   -4.7280 N.3   234  GLY234     -0.1225
    126  CA        80.5170  -32.1540   -5.1850 C.3   234  GLY234      0.1811
    127  C         81.3450  -32.5870   -4.0130 C.2   234  GLY234      0.2280
    128  O         81.9860  -31.7760   -3.3720 O.2   234  GLY234     -0.2866
    129  N         84.1600  -34.2030   -4.0370 N.3   236  GLU236     -0.1231
    130  CA        85.5900  -33.9620   -4.2820 C.3   236  GLU236      0.1699
    131  C         85.9260  -32.5090   -4.1180 C.2   236  GLU236      0.2592
    132  O         86.9930  -32.1760   -3.6400 O.2   236  GLU236     -0.2718
    133  CB        86.0070  -34.4630   -5.6540 C.3   236  GLU236      0.0402
    134  CG        85.8760  -36.0030   -5.7950 C.3   236  GLU236      0.1161
    135  CD        84.5040  -36.4660   -6.2350 C.2   236  GLU236      0.3649
    136  OE1       83.5730  -35.5820   -6.2930 O.co2 236  GLU236     -0.2457
    137  OE2       84.3430  -37.7130   -6.5180 O.co2 236  GLU236     -0.2457
    138  N         84.9930  -31.6160   -4.4180 N.am  237  ARG237     -0.1980
    139  CA        85.2610  -30.2050   -4.1160 C.3   237  ARG237      0.1597
    140  C         85.2820  -29.9450   -2.6230 C.2   237  ARG237      0.2287
    141  O         86.1710  -29.2350   -2.1100 O.2   237  ARG237     -0.2864
    142  CB        84.2680  -29.2760   -4.8360 C.3   237  ARG237      0.0334
    143  CG        84.5450  -29.2540   -6.3190 C.3   237  ARG237      0.0492
    144  CD        83.8240  -28.1530   -7.0270 C.3   237  ARG237      0.2205
    145  NE        84.0880  -28.2020   -8.4530 N.pl3 237  ARG237     -0.0865
    146  CZ        83.4760  -27.4510   -9.3620 C.cat 237  ARG237      0.5346
    147  NH1       82.5540  -26.5710   -8.9990 N.pl3 237  ARG237      0.1354
    148  NH2       83.7790  -27.5870  -10.6520 N.pl3 237  ARG237      0.1354
    149  N         92.1610  -30.9330   -7.6940 N.3   248  ILE248     -0.1245
    150  CA        91.0440  -31.8420   -7.4100 C.3   248  ILE248      0.1561
    151  C         91.3430  -33.2980   -7.7220 C.2   248  ILE248      0.2260
    152  O         90.6760  -34.1850   -7.1990 O.2   248  ILE248     -0.2867
    153  CB        89.7820  -31.4040   -8.1740 C.3   248  ILE248      0.0252
    154  CG1       88.5240  -32.0740   -7.6110 C.3   248  ILE248      0.0019
    155  CG2       89.9180  -31.6640   -9.6680 C.3   248  ILE248      0.0019
    156  CD1       87.2680  -31.4690   -8.2080 C.3   248  ILE248      0.0001
@<TRIPOS>BOND
     1     9    10    1
     2    10    11    1
     3    10    13    1
     4     3     4    2
     5     3     2    1
     6     1     2    1
     7    11    12    2
     8     2     5    1
     9    14    13    1
    10    14    15    1
    11    40    39    2
    12    39    38    1
    13     5     6    1
    14    37    38    1
    15    15    16    2
    16    15    17   am
    17    38    41    1
    18     6     7    1
    19     6     8    1
    20    28    29    2
    21    28    27    1
    22    41    42    1
    23    27    30    1
    24    27    26    1
    25    44    43   ar
    26    42    43    1
    27    30    31    1
    28    43    45   ar
    29    31    32    1
    30    32    33    1
    31    33    34    2
    32    24    23    1
    33    24    25    1
    34    35    34    1
    35    63    61   ar
    36    63    64   ar
    37    61    60   ar
    38    64    62   ar
    39    59    60    1
    40    59    56    1
    41    67    68    2
    42    67    66    1
    43    60    62   ar
    44    34    36    1
    45    23    22    1
    46    18    19    1
    47    58    57    2
    48    66    65    1
    49    66    69    1
    50    57    65   am
    51    57    56    1
    52    22    19    1
    53    56    55    1
    54    81    79   ar
    55    81    83   ar
    56    19    20    1
    57    21    20    2
    58    55    48   am
    59    69    70    1
    60    79    78   ar
    61    83    82   ar
    62    46    47    1
    63    73    74    1
    64    48    47    1
    65    48    49    2
    66    72    70    1
    67   148   146    1
    68    70    71    1
    69    78    77    1
    70    78    80   ar
    71    47    50    1
    72    50    51    1
    73    82    80   ar
    74    51    52    1
    75    99    98   ar
    76    77    74    1
    77   155   153    1
    78    74    75    1
    79    91    90    1
    80   100    98   ar
    81   146   147    1
    82   146   145    2
    83    76    75    2
    84    98    97    1
    85   120   119    1
    86    52    54   ar
    87    52    53   ar
    88   145   144    1
    89   119   116    1
    90   156   154    1
    91   153   154    1
    92   153   150    1
    93    96    97    1
    94    96    93    1
    95    90    89    1
    96   151   150    1
    97   151   152    2
    98   149   150    1
    99    88    89    1
   100    88    85    1
   101   144   143    1
   102    92    93    1
   103   116   115    1
   104   116   117    1
   105    93    94    1
   106   137   135   ar
   107    95    94    2
   108   143   142    1
   109   115   111   am
   110   136   135   ar
   111   135   134    1
   112    84    85    1
   113   117   118    2
   114    85    86    1
   115    94   101   am
   116   134   133    1
   117   133   130    1
   118   111   112    2
   119   111   110    1
   120   126   125    1
   121   126   127    1
   122   122   123    1
   123   122   121    1
   124   124   123    2
   125   142   139    1
   126    86    87    2
   127   110   109    1
   128   110   113    1
   129   101   102    1
   130   109   103   am
   131   138   131   am
   132   138   139    1
   133   104   103    2
   134   130   131    1
   135   130   129    1
   136   103   102    1
   137   131   132    2
   138   139   140    1
   139   127   128    2
   140   102   105    1
   141   114   113    1
   142   140   141    2
   143   105   106    1
   144   108   106    1
   145   106   107    1
