@<TRIPOS>MOLECULE
tmp/4bw9A01.pdb
 163 151 0 0 0
SMALL
GASTEIGER

@<TRIPOS>ATOM
      1  N         64.6080  -33.4000  -18.5830 N.3    87  MET87      -0.1245
      2  CA        65.1740  -32.3180  -17.7750 C.3    87  MET87       0.1570
      3  C         65.2520  -31.0140  -18.5640 C.2    87  MET87       0.2261
      4  O         65.7460  -30.0270  -18.0490 O.2    87  MET87      -0.2867
      5  CB        66.5860  -32.6710  -17.2520 C.3    87  MET87       0.0387
      6  CG        66.6550  -33.6100  -16.0430 C.3    87  MET87       0.0595
      7  SD        65.8060  -33.0560  -14.5390 S.3    87  MET87      -0.1393
      8  CE        66.7900  -31.6550  -14.0290 C.3    87  MET87       0.0692
      9  N         73.9100  -36.0160  -13.3580 N.3   111  MET111     -0.1245
     10  CA        73.3290  -35.3860  -12.1810 C.3   111  MET111      0.1570
     11  C         72.3590  -36.3590  -11.5120 C.2   111  MET111      0.2261
     12  O         71.9570  -37.3690  -12.1210 O.2   111  MET111     -0.2867
     13  CB        72.6070  -34.0980  -12.5890 C.3   111  MET111      0.0387
     14  CG        71.3850  -34.3050  -13.4600 C.3   111  MET111      0.0595
     15  SD        70.8100  -32.7830  -14.2710 S.3   111  MET111     -0.1393
     16  CE        71.2760  -31.4980  -13.0950 C.3   111  MET111      0.0692
     17  N         69.2580  -35.3400  -10.0570 N.3   113  ALA113     -0.1245
     18  CA        67.8860  -34.8050   -9.9420 C.3   113  ALA113      0.1562
     19  C         66.8150  -35.6730  -10.5670 C.2   113  ALA113      0.2260
     20  O         65.7420  -35.8130  -10.0050 O.2   113  ALA113     -0.2867
     21  CB        67.7950  -33.4100  -10.5410 C.3   113  ALA113      0.0290
     22  N         65.8830  -38.5100   -8.3060 N.3   116  LEU116     -0.1231
     23  CA        65.2910  -38.0460   -7.0460 C.3   116  LEU116      0.1693
     24  C         63.8700  -37.5320   -7.2960 C.2   116  LEU116      0.2592
     25  O         62.9620  -37.8240   -6.5340 O.2   116  LEU116     -0.2718
     26  CB        66.1560  -36.9870   -6.3730 C.3   116  LEU116      0.0284
     27  CG        67.5000  -37.5410   -5.9030 C.3   116  LEU116      0.0019
     28  CD1       68.3310  -36.4340   -5.3140 C.3   116  LEU116      0.0001
     29  CD2       67.3760  -38.6660   -4.8840 C.3   116  LEU116      0.0001
     30  N         63.6800  -36.8610   -8.4190 N.am  117  GLY117     -0.1957
     31  CA        62.3720  -36.4280   -8.8590 C.3   117  GLY117      0.1869
     32  C         61.4060  -37.5850   -8.9110 C.2   117  GLY117      0.2309
     33  O         60.2760  -37.4490   -8.4370 O.2   117  GLY117     -0.2863
     34  N         60.5450  -38.6850   -5.3110 N.3   120  LEU120     -0.1245
     35  CA        59.6220  -37.7600   -4.6850 C.3   120  LEU120      0.1561
     36  C         58.2050  -38.0590   -5.1280 C.2   120  LEU120      0.2260
     37  O         57.3240  -38.2230   -4.2920 O.2   120  LEU120     -0.2867
     38  CB        59.9710  -36.3080   -5.0060 C.3   120  LEU120      0.0270
     39  CG        61.2830  -35.7630   -4.4280 C.3   120  LEU120      0.0019
     40  CD1       61.4430  -34.3250   -4.8620 C.3   120  LEU120      0.0001
     41  CD2       61.3140  -35.8310   -2.9120 C.3   120  LEU120      0.0001
     42  N         80.5840  -36.2240  -16.2350 N.3   141  ARG141     -0.1245
     43  CA        80.5000  -35.1940  -17.2710 C.3   141  ARG141      0.1563
     44  C         81.8270  -35.0480  -18.0030 C.2   141  ARG141      0.2260
     45  O         82.8700  -35.0330  -17.3640 O.2   141  ARG141     -0.2867
     46  CB        80.1680  -33.8560  -16.6230 C.3   141  ARG141      0.0307
     47  CG        78.8810  -33.8210  -15.8280 C.3   141  ARG141      0.0489
     48  CD        78.6820  -32.4540  -15.1600 C.3   141  ARG141      0.2205
     49  NE        77.4680  -32.4330  -14.3290 N.pl3 141  ARG141     -0.0865
     50  CZ        76.9210  -31.3340  -13.8380 C.cat 141  ARG141      0.5346
     51  NH1       77.4690  -30.1360  -14.0600 N.pl3 141  ARG141      0.1354
     52  NH2       75.8380  -31.4320  -13.1000 N.pl3 141  ARG141      0.1354
     53  N         78.5990  -36.8450   -6.2160 N.3   155  MET155     -0.1245
     54  CA        77.6390  -35.7660   -5.9790 C.3   155  MET155      0.1570
     55  C         76.7980  -36.1820   -4.7990 C.2   155  MET155      0.2261
     56  O         76.4440  -37.3690   -4.6670 O.2   155  MET155     -0.2867
     57  CB        76.7760  -35.5990   -7.2070 C.3   155  MET155      0.0387
     58  CG        75.6070  -34.6590   -7.0300 C.3   155  MET155      0.0595
     59  SD        75.9930  -33.0870   -7.7650 S.3   155  MET155     -0.1393
     60  CE        75.4010  -33.4480   -9.4120 C.3   155  MET155      0.0692
     61  N         73.1230  -34.9710   -3.3720 N.3   157  ASN157     -0.1240
     62  CA        71.9410  -34.1890   -3.6830 C.3   157  ASN157      0.1653
     63  C         70.9440  -34.4580   -2.5700 C.2   157  ASN157      0.2266
     64  O         70.6640  -35.6120   -2.2350 O.2   157  ASN157     -0.2867
     65  CB        71.4190  -34.6700   -5.0370 C.3   157  ASN157      0.1155
     66  CG        70.4630  -33.7020   -5.6900 C.2   157  ASN157      0.2627
     67  OD1       69.5760  -33.1700   -5.0450 O.2   157  ASN157     -0.2716
     68  ND2       70.6450  -33.4700   -6.9770 N.am  157  ASN157     -0.0877
     69  N         67.0190  -33.1980   -1.0690 N.3   159  CYS159     -0.1235
     70  CA        65.8520  -32.4070   -1.3460 C.3   159  CYS159      0.1677
     71  C         64.6700  -32.6380   -0.3910 C.2   159  CYS159      0.2270
     72  O         64.5650  -33.6680    0.2820 O.2   159  CYS159     -0.2867
     73  CB        65.4420  -32.5740   -2.8080 C.3   159  CYS159      0.0956
     74  SG        64.9970  -34.2510   -3.1770 S.3   159  CYS159     -0.0801
     75  N         67.3540  -24.4680  -14.5660 N.3   195  PHE195     -0.1241
     76  CA        66.6270  -24.2560  -13.2930 C.3   195  PHE195      0.1605
     77  C         66.2560  -22.7890  -12.9590 C.2   195  PHE195      0.2264
     78  O         65.6160  -22.5450  -11.9340 O.2   195  PHE195     -0.2867
     79  CB        67.4380  -24.8390  -12.1130 C.3   195  PHE195      0.0534
     80  CG        67.4820  -26.3470  -12.0660 C.ar  195  PHE195     -0.0203
     81  CD1       66.3280  -27.0850  -11.8090 C.ar  195  PHE195     -0.0042
     82  CD2       68.6930  -27.0260  -12.2350 C.ar  195  PHE195     -0.0042
     83  CE1       66.3780  -28.4700  -11.7520 C.ar  195  PHE195     -0.0003
     84  CE2       68.7480  -28.4110  -12.1810 C.ar  195  PHE195     -0.0003
     85  CZ        67.5920  -29.1350  -11.9350 C.ar  195  PHE195     -0.0000
     86  N         75.1420  -25.8910   -6.2990 N.3   210  SER210     -0.1217
     87  CA        74.0250  -25.1100   -6.8410 C.3   210  SER210      0.1889
     88  C         72.7790  -25.6020   -6.1460 C.2   210  SER210      0.2288
     89  O         72.5680  -26.8160   -6.0340 O.2   210  SER210     -0.2866
     90  CB        73.8990  -25.2810   -8.3450 C.3   210  SER210      0.2089
     91  OG        74.8900  -24.4830   -9.0020 O.3   210  SER210     -0.2183
     92  N         68.4000  -24.7530   -5.2930 N.3   212  VAL212     -0.1245
     93  CA        67.2090  -24.1870   -5.8880 C.3   212  VAL212      0.1561
     94  C         65.9910  -24.2530   -4.9590 C.2   212  VAL212      0.2260
     95  O         65.7740  -25.2410   -4.2760 O.2   212  VAL212     -0.2867
     96  CB        66.8910  -24.9740   -7.1650 C.3   212  VAL212      0.0252
     97  CG1       65.5390  -24.5690   -7.7500 C.3   212  VAL212      0.0019
     98  CG2       68.0070  -24.7510   -8.1710 C.3   212  VAL212      0.0019
     99  N         59.1680  -27.0980  -15.2730 N.3   218  LEU218     -0.1231
    100  CA        59.4680  -28.4960  -15.6150 C.3   218  LEU218      0.1693
    101  C         58.9710  -29.5580  -14.5930 C.2   218  LEU218      0.2592
    102  O         58.9480  -30.7590  -14.8950 O.2   218  LEU218     -0.2718
    103  CB        60.9830  -28.6570  -15.8130 C.3   218  LEU218      0.0284
    104  CG        61.8940  -28.3270  -14.6020 C.3   218  LEU218      0.0019
    105  CD1       62.9660  -29.3960  -14.4140 C.3   218  LEU218      0.0001
    106  CD2       62.5220  -26.9290  -14.7040 C.3   218  LEU218      0.0001
    107  N         58.6020  -29.1270  -13.3870 N.am  219  ASP219     -0.1974
    108  CA        58.1840  -30.0500  -12.3280 C.3   219  ASP219      0.1709
    109  C         57.1080  -31.0130  -12.8210 C.2   219  ASP219      0.2293
    110  O         57.1810  -32.2230  -12.6050 O.2   219  ASP219     -0.2864
    111  CB        57.6180  -29.2810  -11.1250 C.3   219  ASP219      0.1436
    112  CG        58.6700  -28.4410  -10.3970 C.2   219  ASP219      0.3671
    113  OD1       59.8720  -28.4690  -10.7810 O.co2 219  ASP219     -0.2456
    114  OD2       58.2820  -27.7410   -9.4370 O.co2 219  ASP219     -0.2456
    115  N         57.7380  -34.3160  -14.1740 N.3   222  TRP222     -0.1241
    116  CA        58.0630  -35.4440  -13.2670 C.3   222  TRP222      0.1605
    117  C         56.8880  -35.8060  -12.3910 C.2   222  TRP222      0.2264
    118  O         57.0290  -36.5610  -11.4420 O.2   222  TRP222     -0.2867
    119  CB        59.3050  -35.1150  -12.4100 C.3   222  TRP222      0.0550
    120  CG        60.4410  -34.7660  -13.3080 C.ar  222  TRP222      0.0003
    121  CD1       60.7630  -33.5300  -13.7840 C.ar  222  TRP222      0.0946
    122  CD2       61.3450  -35.6690  -13.8990 C.ar  222  TRP222      0.0152
    123  NE1       61.8330  -33.6080  -14.6350 N.ar  222  TRP222     -0.2442
    124  CE2       62.2100  -34.9180  -14.7240 C.ar  222  TRP222      0.0810
    125  CE3       61.5160  -37.0500  -13.8180 C.ar  222  TRP222      0.0012
    126  CZ2       63.2330  -35.5020  -15.4590 C.ar  222  TRP222      0.0191
    127  CZ3       62.5220  -37.6330  -14.5570 C.ar  222  TRP222      0.0001
    128  CH2       63.3720  -36.8570  -15.3670 C.ar  222  TRP222      0.0015
    129  N         55.4670  -33.8070  -10.3990 N.3   224  ILE224     -0.1245
    130  CA        55.6160  -33.1010   -9.1260 C.3   224  ILE224      0.1561
    131  C         54.8040  -31.7850   -9.2000 C.2   224  ILE224      0.2260
    132  O         54.9490  -31.0380  -10.1440 O.2   224  ILE224     -0.2867
    133  CB        57.0830  -32.6690   -8.8860 C.3   224  ILE224      0.0252
    134  CG1       58.0620  -33.8540   -8.8490 C.3   224  ILE224      0.0019
    135  CG2       57.1990  -31.7880   -7.6480 C.3   224  ILE224      0.0019
    136  CD1       57.6630  -34.9830   -7.9360 C.3   224  ILE224      0.0001
    137  N         59.1760  -27.3780   -3.3190 N.3   228  TRP228     -0.1241
    138  CA        60.3420  -28.1850   -3.0150 C.3   228  TRP228      0.1605
    139  C         61.5760  -27.3220   -2.9090 C.2   228  TRP228      0.2264
    140  O         61.6180  -26.1900   -3.4230 O.2   228  TRP228     -0.2867
    141  CB        60.5390  -29.3260   -4.0340 C.3   228  TRP228      0.0550
    142  CG        60.8090  -28.8520   -5.4140 C.ar  228  TRP228      0.0003
    143  CD1       59.8880  -28.5890   -6.3850 C.ar  228  TRP228      0.0946
    144  CD2       62.0800  -28.5680   -5.9840 C.ar  228  TRP228      0.0152
    145  NE1       60.5100  -28.1440   -7.5110 N.ar  228  TRP228     -0.2442
    146  CE2       61.8560  -28.1260   -7.2970 C.ar  228  TRP228      0.0810
    147  CE3       63.3910  -28.6270   -5.5050 C.ar  228  TRP228      0.0012
    148  CZ2       62.8910  -27.7470   -8.1440 C.ar  228  TRP228      0.0191
    149  CZ3       64.4260  -28.2350   -6.3400 C.ar  228  TRP228      0.0001
    150  CH2       64.1690  -27.8010   -7.6470 C.ar  228  TRP228      0.0015
    151  N         66.1060  -27.9170   -2.8640 N.3   230  GLY230     -0.1210
    152  CA        67.1210  -28.9130   -3.1710 C.3   230  GLY230      0.1956
    153  C         68.4700  -28.3090   -3.3950 C.2   230  GLY230      0.2612
    154  O         68.5860  -27.1300   -3.7510 O.2   230  GLY230     -0.2717
    155  N         69.5030  -29.1170   -3.1860 N.am  231  ALA231     -0.1965
    156  CA        70.8590  -28.6910   -3.5190 C.3   231  ALA231      0.1728
    157  C         71.7250  -29.8750   -3.8550 C.2   231  ALA231      0.2616
    158  O         71.4940  -30.9740   -3.3520 O.2   231  ALA231     -0.2715
    159  CB        71.4550  -27.9390   -2.3470 C.3   231  ALA231      0.0334
    160  N         72.7340  -29.6310   -4.6800 N.am  232  GLY232     -0.1955
    161  CA        73.6710  -30.6490   -5.1230 C.3   232  GLY232      0.1869
    162  C         75.0810  -30.1640   -4.8110 C.2   232  GLY232      0.2309
    163  O         75.3900  -29.0230   -5.1020 O.2   232  GLY232     -0.2863
@<TRIPOS>BOND
     1     1     2    1
     2     3     4    2
     3     3     2    1
     4    44    45    2
     5    44    43    1
     6     2     5    1
     7    43    46    1
     8    43    42    1
     9     5     6    1
    10    46    47    1
    11     6     7    1
    12    47    48    1
    13   103   100    1
    14   103   104    1
    15   100    99    1
    16   100   101    1
    17   126   128   ar
    18   126   124   ar
    19   128   127   ar
    20    48    49    1
    21   102   101    2
    22   124   123   ar
    23   124   122   ar
    24   106   104    1
    25   123   121   ar
    26   104   105    1
    27   101   107   am
    28    75    76    1
    29   127   125   ar
    30     7     8    1
    31    49    50    2
    32    15    14    1
    33    15    16    1
    34   115   116    1
    35    51    50    1
    36   122   125   ar
    37   122   120   ar
    38    50    52    1
    39   121   120   ar
    40    14    13    1
    41   107   108    1
    42     9    10    1
    43   120   119    1
    44    76    77    1
    45    76    79    1
    46   116   119    1
    47   116   117    1
    48    77    78    2
    49   109   110    2
    50   109   108    1
    51    13    10    1
    52   117   118    2
    53   108   111    1
    54    82    84   ar
    55    82    80   ar
    56    10    11    1
    57    84    85   ar
    58    12    11    2
    59    79    80    1
    60    80    81   ar
    61    85    83   ar
    62    81    83   ar
    63   111   112    1
    64   113   112   ar
    65    19    20    2
    66    19    18    1
    67    21    18    1
    68   129   130    1
    69   112   114   ar
    70   132   131    2
    71    17    18    1
    72    60    59    1
    73   131   130    1
    74   130   133    1
    75    91    90    1
    76    32    31    1
    77    32    33    2
    78   133   134    1
    79   133   135    1
    80    31    30    1
    81   134   136    1
    82    30    24   am
    83    90    87    1
    84    22    23    1
    85    98    96    1
    86   148   150   ar
    87   148   146   ar
    88    59    58    1
    89    97    96    1
    90   150   149   ar
    91   145   146   ar
    92   145   143   ar
    93   146   144   ar
    94    24    23    1
    95    24    25    2
    96    57    58    1
    97    57    54    1
    98    96    93    1
    99    23    26    1
   100    68    66   am
   101    87    86    1
   102    87    88    1
   103   143   142   ar
   104    26    27    1
   105   149   147   ar
   106    53    54    1
   107    88    89    2
   108   144   147   ar
   109   144   142   ar
   110    54    55    1
   111    27    28    1
   112    27    29    1
   113    93    92    1
   114    93    94    1
   115    66    67    2
   116    66    65    1
   117   142   141    1
   118    34    35    1
   119    36    35    1
   120    36    37    2
   121   161   162    1
   122   161   160    1
   123   163   162    2
   124    65    62    1
   125    38    35    1
   126    38    39    1
   127    94    95    2
   128    40    39    1
   129    55    56    2
   130   160   157   am
   131    39    41    1
   132   141   138    1
   133   157   156    1
   134   157   158    2
   135   154   153    2
   136    62    61    1
   137    62    63    1
   138   156   155    1
   139   156   159    1
   140   140   139    2
   141   153   155   am
   142   153   152    1
   143   137   138    1
   144    74    73    1
   145   152   151    1
   146   138   139    1
   147    73    70    1
   148    63    64    2
   149    70    69    1
   150    70    71    1
   151    71    72    2
