@<TRIPOS>MOLECULE
tmp/4bwaA01.pdb
 94 86 0 0 0
SMALL
GASTEIGER

@<TRIPOS>ATOM
      1  N         26.9670  126.6310    0.0680 N.3    57  LEU57      -0.1231
      2  CA        27.7200  127.5860   -0.7130 C.3    57  LEU57       0.1693
      3  C         27.4810  129.0030   -0.1960 C.2    57  LEU57       0.2592
      4  O         28.4050  129.8100   -0.1530 O.2    57  LEU57      -0.2718
      5  CB        27.2800  127.4630   -2.1790 C.3    57  LEU57       0.0284
      6  CG        28.1160  128.0530   -3.2880 C.3    57  LEU57       0.0019
      7  CD1       29.5850  127.6870   -3.1690 C.3    57  LEU57       0.0001
      8  CD2       27.5560  127.5460   -4.6200 C.3    57  LEU57       0.0001
      9  N         26.2440  129.3120    0.1980 N.am   58  GLY58      -0.1957
     10  CA        25.9550  130.6140    0.8230 C.3    58  GLY58       0.1869
     11  C         26.6280  130.6520    2.1760 C.2    58  GLY58       0.2309
     12  O         27.2280  131.6410    2.5440 O.2    58  GLY58      -0.2863
     13  N         30.4020  131.2050    1.8990 N.3    61  GLU61      -0.1245
     14  CA        30.6780  132.5910    1.5380 C.3    61  GLU61       0.1567
     15  C         30.6180  133.4820    2.7680 C.2    61  GLU61       0.2260
     16  O         31.4440  134.3850    2.9280 O.2    61  GLU61      -0.2867
     17  CB        29.6910  133.1120    0.4900 C.3    61  GLU61       0.0388
     18  CG        29.9170  134.5770    0.1930 C.3    61  GLU61       0.1160
     19  CD        28.9830  135.1530   -0.8360 C.2    61  GLU61       0.3649
     20  OE1       28.6480  134.4660   -1.8300 O.co2  61  GLU61      -0.2457
     21  OE2       28.6380  136.3360   -0.6610 O.co2  61  GLU61      -0.2457
     22  N         31.8200  144.0710   -3.7530 N.3    77  LYS77      -0.1245
     23  CA        30.8610  143.4520   -4.6520 C.3    77  LYS77       0.1561
     24  C         30.8470  144.2750   -5.9590 C.2    77  LYS77       0.2260
     25  O         30.2120  145.3230   -6.0310 O.2    77  LYS77      -0.2867
     26  CB        29.4510  143.4270   -4.0500 C.3    77  LYS77       0.0271
     27  CG        29.2370  142.4810   -2.8630 C.3    77  LYS77       0.0035
     28  CD        29.4560  141.0160   -3.2230 C.3    77  LYS77       0.0206
     29  CE        28.9790  140.0940   -2.1090 C.3    77  LYS77       0.1093
     30  NZ        29.6230  138.7480   -2.2330 N.3    77  LYS77      -0.1314
     31  N         29.5240  141.4440  -12.2630 N.3    80  ILE80      -0.1245
     32  CA        29.8190  140.0940  -12.7660 C.3    80  ILE80       0.1561
     33  C         29.9890  140.1420  -14.2740 C.2    80  ILE80       0.2260
     34  O         30.8390  139.4700  -14.8460 O.2    80  ILE80      -0.2867
     35  CB        28.7230  139.0790  -12.3570 C.3    80  ILE80       0.0252
     36  CG1       28.7510  138.8970  -10.8510 C.3    80  ILE80       0.0019
     37  CG2       28.9440  137.7330  -13.0350 C.3    80  ILE80       0.0019
     38  CD1       27.4940  138.3070  -10.2740 C.3    80  ILE80       0.0001
     39  N         32.5950  137.5050  -16.3010 N.3   110  ARG110     -0.1245
     40  CA        33.9630  137.6060  -15.8300 C.3   110  ARG110      0.1563
     41  C         34.4700  136.1870  -15.6320 C.2   110  ARG110      0.2260
     42  O         33.7310  135.3480  -15.1860 O.2   110  ARG110     -0.2867
     43  CB        34.0700  138.4300  -14.5330 C.3   110  ARG110      0.0307
     44  CG        33.3040  137.8830  -13.3170 C.3   110  ARG110      0.0489
     45  CD        33.2470  138.8930  -12.1450 C.3   110  ARG110      0.2205
     46  NE        32.6930  138.2730  -10.9230 N.pl3 110  ARG110     -0.0865
     47  CZ        32.3160  138.9150   -9.8200 C.cat 110  ARG110      0.5346
     48  NH1       32.4030  140.2360   -9.7150 N.pl3 110  ARG110      0.1354
     49  NH2       31.8380  138.2180   -8.7940 N.pl3 110  ARG110      0.1354
     50  N         34.1110  137.9000   -3.1930 N.3   137  ILE137     -0.1231
     51  CA        33.6220  136.5560   -3.3810 C.3   137  ILE137      0.1692
     52  C         32.4390  136.6330   -4.3220 C.2   137  ILE137      0.2593
     53  O         31.5320  137.4360   -4.1220 O.2   137  ILE137     -0.2718
     54  CB        33.0880  135.9350   -2.0770 C.3   137  ILE137      0.0266
     55  CG1       34.1880  135.8490   -1.0140 C.3   137  ILE137      0.0019
     56  CG2       32.5400  134.5630   -2.3540 C.3   137  ILE137      0.0020
     57  CD1       33.7080  135.2880    0.3060 C.3   137  ILE137      0.0001
     58  N         32.4340  135.7870   -5.3290 N.am  138  GLY138     -0.1943
     59  CA        31.3100  135.7610   -6.2600 C.3   138  GLY138      0.1998
     60  C         31.5380  134.9110   -7.4950 C.2   138  GLY138      0.2480
     61  O         32.6210  134.3350   -7.6620 O.2   138  GLY138     -0.2729
     62  N         30.5080  134.8100   -8.3520 N.am  139  PRO139     -0.2726
     63  CA        30.5360  133.9660   -9.5400 C.3   139  PRO139      0.1402
     64  C         31.5820  134.3500  -10.5810 C.2   139  PRO139      0.2269
     65  O         31.7860  135.5340  -10.8390 O.2   139  PRO139     -0.2865
     66  CB        29.1430  134.1480  -10.1320 C.3   139  PRO139      0.0296
     67  CG        28.3050  134.6270   -9.0130 C.3   139  PRO139      0.0237
     68  CD        29.2160  135.5020   -8.2320 C.3   139  PRO139      0.0939
     69  N         32.3840  129.8030   -8.0970 N.3   155  THR155     -0.1218
     70  CA        32.4320  130.8970   -7.1780 C.3   155  THR155      0.1862
     71  C         33.8630  131.0480   -6.6670 C.2   155  THR155      0.2287
     72  O         34.4070  130.1220   -6.0670 O.2   155  THR155     -0.2866
     73  CB        31.5400  130.5790   -5.9880 C.3   155  THR155      0.1770
     74  OG1       30.2500  130.1990   -6.4570 O.3   155  THR155     -0.2211
     75  CG2       31.4550  131.7870   -5.0270 C.3   155  THR155      0.0375
     76  N         35.4100  128.2870   -4.1550 N.3   230  LEU230     -0.1245
     77  CA        34.5730  127.8120   -3.0490 C.3   230  LEU230      0.1561
     78  C         34.0550  126.3810   -3.2360 C.2   230  LEU230      0.2260
     79  O         34.0180  125.6060   -2.2840 O.2   230  LEU230     -0.2867
     80  CB        33.3990  128.7500   -2.8340 C.3   230  LEU230      0.0270
     81  CG        33.7240  129.9230   -1.9140 C.3   230  LEU230      0.0019
     82  CD1       34.8010  130.7970   -2.5130 C.3   230  LEU230      0.0001
     83  CD2       32.4660  130.7360   -1.6260 C.3   230  LEU230      0.0001
     84  N         26.1800  125.5200   -7.6470 N.3   248  ARG248     -0.1245
     85  CA        24.8490  125.9720   -7.9890 C.3   248  ARG248      0.1563
     86  C         24.2170  124.9460   -8.8900 C.2   248  ARG248      0.2260
     87  O         24.7670  124.6040   -9.9320 O.2   248  ARG248     -0.2867
     88  CB        24.9380  127.2740   -8.7530 C.3   248  ARG248      0.0307
     89  CG        25.3150  128.4370   -7.8760 C.3   248  ARG248      0.0489
     90  CD        25.4780  129.6860   -8.7060 C.3   248  ARG248      0.2205
     91  NE        25.7610  130.8120   -7.8490 N.pl3 248  ARG248     -0.0865
     92  CZ        24.8630  131.5970   -7.2720 C.cat 248  ARG248      0.5346
     93  NH1       23.5690  131.4450   -7.4390 N.pl3 248  ARG248      0.1354
     94  NH2       25.2840  132.5770   -6.5270 N.pl3 248  ARG248      0.1354
@<TRIPOS>BOND
     1    39    40    1
     2    40    41    1
     3    40    43    1
     4    41    42    2
     5    34    33    2
     6    43    44    1
     7    33    32    1
     8    44    45    1
     9    37    35    1
    10    32    35    1
    11    32    31    1
    12    35    36    1
    13    45    46    1
    14    46    47    2
    15    36    38    1
    16    65    64    2
    17    64    63    1
    18    66    63    1
    19    66    67    1
    20    87    86    2
    21    47    48    1
    22    47    49    1
    23    63    62    1
    24    67    68    1
    25    86    85    1
    26    88    85    1
    27    88    89    1
    28    90    89    1
    29    90    91    1
    30    62    68    1
    31    62    60   am
    32    69    70    1
    33    85    84    1
    34    91    92    2
    35    61    60    2
    36    60    59    1
    37    93    92    1
    38    92    94    1
    39    70    71    1
    40    70    73    1
    41    71    72    2
    42    74    73    1
    43    59    58    1
    44    25    24    2
    45    73    75    1
    46    24    23    1
    47    58    52   am
    48    23    26    1
    49    23    22    1
    50     8     6    1
    51    52    53    2
    52    52    51    1
    53    76    77    1
    54    26    27    1
    55    51    50    1
    56    51    54    1
    57     6     7    1
    58     6     5    1
    59    78    77    1
    60    78    79    2
    61    28    27    1
    62    28    29    1
    63    77    80    1
    64    80    81    1
    65    82    81    1
    66    56    54    1
    67    30    29    1
    68     5     2    1
    69    54    55    1
    70    81    83    1
    71    20    19   ar
    72    55    57    1
    73    19    21   ar
    74    19    18    1
    75     2     3    1
    76     2     1    1
    77     3     4    2
    78     3     9   am
    79    18    17    1
    80     9    10    1
    81    17    14    1
    82    10    11    1
    83    14    13    1
    84    14    15    1
    85    11    12    2
    86    15    16    2
