@<TRIPOS>MOLECULE
tmp/4bwbA00.pdb
 256 253 0 0 0
SMALL
GASTEIGER

@<TRIPOS>ATOM
      1  N         21.1800   26.3330  -43.0850 N.3     3  ASP3       -0.1225
      2  CA        19.8750   26.1730  -42.4500 C.3     3  ASP3        0.1805
      3  C         19.8510   24.9770  -41.5050 C.2     3  ASP3        0.2598
      4  O         18.9680   24.8660  -40.6540 O.2     3  ASP3       -0.2718
      5  CB        18.7830   26.0230  -43.5070 C.3     3  ASP3        0.1424
      6  CG        18.6360   27.2600  -44.3690 C.2     3  ASP3        0.3668
      7  OD1       19.0950   28.3390  -43.9390 O.co2   3  ASP3       -0.2456
      8  OD2       18.0720   27.1520  -45.4780 O.co2   3  ASP3       -0.2456
      9  N         20.8240   24.0860  -41.6590 N.am    4  LEU4       -0.1966
     10  CA        20.8870   22.8670  -40.8600 C.3     4  LEU4        0.1728
     11  C         21.2280   23.1590  -39.4000 C.2     4  LEU4        0.2616
     12  O         21.1450   22.2770  -38.5470 O.2     4  LEU4       -0.2715
     13  CB        21.8970   21.8740  -41.4500 C.3     4  LEU4        0.0311
     14  CG        21.5510   21.0730  -42.7110 C.3     4  LEU4        0.0022
     15  CD1       21.2240   21.9640  -43.9010 C.3     4  LEU4        0.0001
     16  CD2       22.7000   20.1410  -43.0580 C.3     4  LEU4        0.0001
     17  N         21.6160   24.4000  -39.1210 N.am    5  ASP5       -0.1957
     18  CA        21.9350   24.8290  -37.7630 C.3     5  ASP5        0.1840
     19  C         20.7140   24.7280  -36.8520 C.2     5  ASP5        0.2622
     20  O         19.5770   24.6890  -37.3230 O.2     5  ASP5       -0.2715
     21  CB        22.4880   26.2570  -37.7590 C.3     5  ASP5        0.1450
     22  CG        21.5010   27.2690  -38.3080 C.2     5  ASP5        0.3671
     23  OD1       20.5330   26.8600  -38.9830 O.co2   5  ASP5       -0.2456
     24  OD2       21.7000   28.4790  -38.0690 O.co2   5  ASP5       -0.2456
     25  N         20.9570   24.6810  -35.5460 N.am    6  VAL6       -0.1963
     26  CA        19.8830   24.5280  -34.5700 C.3     6  VAL6        0.1727
     27  C         19.7960   25.7030  -33.6020 C.2     6  VAL6        0.2616
     28  O         20.7860   26.0820  -32.9750 O.2     6  VAL6       -0.2715
     29  CB        20.0520   23.2340  -33.7560 C.3     6  VAL6        0.0290
     30  CG1       18.9550   23.1240  -32.7090 C.3     6  VAL6        0.0023
     31  CG2       20.0430   22.0250  -34.6780 C.3     6  VAL6        0.0023
     32  N         18.6010   26.2740  -33.4870 N.am    7  ASN7       -0.1972
     33  CA        18.3610   27.3840  -32.5750 C.3     7  ASN7        0.1688
     34  C         18.2560   26.9050  -31.1300 C.2     7  ASN7        0.2292
     35  O         17.2090   26.4270  -30.6960 O.2     7  ASN7       -0.2864
     36  CB        17.0890   28.1360  -32.9700 C.3     7  ASN7        0.1181
     37  CG        17.1710   28.7320  -34.3610 C.2     7  ASN7        0.2629
     38  OD1       16.3290   28.4580  -35.2170 O.2     7  ASN7       -0.2716
     39  ND2       18.1900   29.5510  -34.5960 N.am    7  ASN7       -0.0877
     40  N         26.4840   16.6770  -31.4430 N.3    72  PHE72      -0.1241
     41  CA        25.0400   16.6880  -31.2290 C.3    72  PHE72       0.1605
     42  C         24.5190   17.9330  -30.5110 C.2    72  PHE72       0.2264
     43  O         23.3870   18.3560  -30.7430 O.2    72  PHE72      -0.2867
     44  CB        24.6000   15.4190  -30.5030 C.3    72  PHE72       0.0534
     45  CG        24.7250   14.1780  -31.3370 C.ar   72  PHE72      -0.0203
     46  CD1       24.5150   14.2250  -32.7060 C.ar   72  PHE72      -0.0042
     47  CD2       25.0670   12.9690  -30.7580 C.ar   72  PHE72      -0.0042
     48  CE1       24.6320   13.0870  -33.4790 C.ar   72  PHE72      -0.0003
     49  CE2       25.1870   11.8300  -31.5250 C.ar   72  PHE72      -0.0003
     50  CZ        24.9690   11.8880  -32.8880 C.ar   72  PHE72      -0.0000
     51  N         26.4450   20.5680  -34.2590 N.3    76  HIS76      -0.1226
     52  CA        25.2780   20.2840  -35.1060 C.3    76  HIS76       0.1752
     53  C         25.6750   19.7630  -36.4900 C.2    76  HIS76       0.2596
     54  O         25.2680   18.6720  -36.8910 O.2    76  HIS76      -0.2718
     55  CB        24.3450   21.4970  -35.2280 C.3    76  HIS76       0.0759
     56  CG        23.8870   22.0450  -33.9120 C.ar   76  HIS76       0.0818
     57  ND1       23.0700   21.3400  -33.0550 N.ar   76  HIS76      -0.2268
     58  CD2       24.1280   23.2330  -33.3100 C.ar   76  HIS76       0.1154
     59  CE1       22.8310   22.0680  -31.9790 C.ar   76  HIS76       0.1986
     60  NE2       23.4600   23.2220  -32.1090 N.ar   76  HIS76      -0.2212
     61  N         26.4660   20.5490  -37.2130 N.am   77  HIS77      -0.1975
     62  CA        26.9510   20.1570  -38.5300 C.3    77  HIS77       0.1656
     63  C         28.1980   20.9680  -38.8720 C.2    77  HIS77       0.2291
     64  O         28.3550   22.0910  -38.3950 O.2    77  HIS77      -0.2864
     65  CB        25.8620   20.3730  -39.5860 C.3    77  HIS77       0.0771
     66  CG        25.4550   21.8030  -39.7510 C.ar   77  HIS77       0.0820
     67  ND1       26.0910   22.6620  -40.6220 N.ar   77  HIS77      -0.2267
     68  CD2       24.4770   22.5270  -39.1580 C.ar   77  HIS77       0.1154
     69  CE1       25.5220   23.8520  -40.5580 C.ar   77  HIS77       0.1986
     70  NE2       24.5390   23.7970  -39.6770 N.ar   77  HIS77      -0.2212
     71  N         26.2180    4.6560  -32.8190 N.3    90  TYR90      -0.1241
     72  CA        24.8520    4.1860  -32.5950 C.3    90  TYR90       0.1605
     73  C         24.8100    2.7010  -32.2310 C.2    90  TYR90       0.2264
     74  O         24.0400    2.2830  -31.3570 O.2    90  TYR90      -0.2867
     75  CB        23.9750    4.4740  -33.8130 C.3    90  TYR90       0.0534
     76  CG        23.6430    5.9400  -33.9740 C.ar   90  TYR90      -0.0201
     77  CD1       24.5130    6.8000  -34.6310 C.ar   90  TYR90      -0.0009
     78  CD2       22.4630    6.4660  -33.4630 C.ar   90  TYR90      -0.0009
     79  CE1       24.2190    8.1410  -34.7770 C.ar   90  TYR90       0.0417
     80  CE2       22.1590    7.8070  -33.6070 C.ar   90  TYR90       0.0417
     81  CZ        23.0400    8.6400  -34.2650 C.ar   90  TYR90       0.1957
     82  OH        22.7430    9.9750  -34.4110 O.3    90  TYR90      -0.2866
     83  N         22.7410   17.0730  -46.6020 N.3   157  LEU157     -0.1245
     84  CA        21.4230   17.6860  -46.7140 C.3   157  LEU157      0.1561
     85  C         21.5070   19.2010  -46.8840 C.2   157  LEU157      0.2260
     86  O         20.6410   19.9360  -46.4090 O.2   157  LEU157     -0.2867
     87  CB        20.5680   17.3370  -45.4940 C.3   157  LEU157      0.0270
     88  CG        20.4280   15.8440  -45.1860 C.3   157  LEU157      0.0019
     89  CD1       19.5450   15.6230  -43.9680 C.3   157  LEU157      0.0001
     90  CD2       19.8840   15.0930  -46.3920 C.3   157  LEU157      0.0001
     91  N         25.8940   15.2260  -42.8220 N.3   168  VAL168     -0.1231
     92  CA        25.1500   14.9510  -41.5960 C.3   168  VAL168      0.1692
     93  C         25.0420   13.4580  -41.2870 C.2   168  VAL168      0.2592
     94  O         24.6530   12.6640  -42.1420 O.2   168  VAL168     -0.2718
     95  CB        23.7300   15.5580  -41.6670 C.3   168  VAL168      0.0266
     96  CG1       22.7910   14.8570  -40.7010 C.3   168  VAL168      0.0020
     97  CG2       23.7740   17.0490  -41.3730 C.3   168  VAL168      0.0020
     98  N         25.3840   13.0810  -40.0580 N.am  169  CYS169     -0.1956
     99  CA        25.1980   11.7090  -39.6020 C.3   169  CYS169      0.1843
    100  C         23.7160   11.4570  -39.3380 C.2   169  CYS169      0.2626
    101  O         23.1970   11.7860  -38.2720 O.2   169  CYS169     -0.2714
    102  CB        26.0160   11.4500  -38.3380 C.3   169  CYS169      0.0997
    103  SG        25.8640    9.7810  -37.6700 S.3   169  CYS169     -0.0797
    104  N         23.0430   10.8620  -40.3160 N.am  170  THR170     -0.1937
    105  CA        21.5960   10.7050  -40.2760 C.3   170  THR170      0.2013
    106  C         21.2070    9.2920  -40.7090 C.2   170  THR170      0.2484
    107  O         22.0010    8.5960  -41.3510 O.2   170  THR170     -0.2729
    108  CB        20.9140   11.7500  -41.1980 C.3   170  THR170      0.1807
    109  OG1       19.5790   12.0130  -40.7470 O.3   170  THR170     -0.2208
    110  CG2       20.8830   11.2670  -42.6420 C.3   170  THR170      0.0379
    111  N         20.0020    8.8410  -40.3200 N.am  171  PRO171     -0.2726
    112  CA        19.5020    7.5630  -40.8370 C.3   171  PRO171      0.1402
    113  C         19.2920    7.6070  -42.3470 C.2   171  PRO171      0.2269
    114  O         18.5120    8.4180  -42.8480 O.2   171  PRO171     -0.2865
    115  CB        18.1590    7.3910  -40.1140 C.3   171  PRO171      0.0296
    116  CG        17.8070    8.7550  -39.6050 C.3   171  PRO171      0.0237
    117  CD        19.1180    9.3850  -39.2770 C.3   171  PRO171      0.0939
    118  N         11.6170    5.9090  -44.1440 N.3   175  THR175     -0.1218
    119  CA        10.8320    6.2310  -42.9590 C.3   175  THR175      0.1862
    120  C         10.1910    4.9880  -42.3460 C.2   175  THR175      0.2287
    121  O         10.1790    4.8240  -41.1260 O.2   175  THR175     -0.2866
    122  CB         9.7360    7.2630  -43.2780 C.3   175  THR175      0.1770
    123  OG1        8.8640    6.7400  -44.2880 O.3   175  THR175     -0.2211
    124  CG2       10.3570    8.5600  -43.7750 C.3   175  THR175      0.0375
    125  N         12.6100    2.6760  -40.7100 N.3   178  LEU178     -0.1245
    126  CA        13.0470    3.4230  -39.5380 C.3   178  LEU178      0.1561
    127  C         12.0680    3.2070  -38.3890 C.2   178  LEU178      0.2260
    128  O         12.4740    2.8770  -37.2760 O.2   178  LEU178     -0.2867
    129  CB        13.1700    4.9130  -39.8570 C.3   178  LEU178      0.0270
    130  CG        13.6850    5.8000  -38.7230 C.3   178  LEU178      0.0019
    131  CD1       15.0660    5.3460  -38.2780 C.3   178  LEU178      0.0001
    132  CD2       13.7080    7.2600  -39.1500 C.3   178  LEU178      0.0001
    133  N         11.1080   10.1080  -27.5780 N.3   244  ARG244     -0.1245
    134  CA        11.7340   11.0850  -28.4600 C.3   244  ARG244      0.1563
    135  C         12.0390   10.4760  -29.8240 C.2   244  ARG244      0.2260
    136  O         11.8150   11.1020  -30.8610 O.2   244  ARG244     -0.2867
    137  CB        13.0260   11.6090  -27.8390 C.3   244  ARG244      0.0307
    138  CG        13.7260   12.6540  -28.6820 C.3   244  ARG244      0.0489
    139  CD        15.1020   12.9650  -28.1350 C.3   244  ARG244      0.2205
    140  NE        15.9130   11.7600  -27.9890 N.pl3 244  ARG244     -0.0865
    141  CZ        16.5740   11.1810  -28.9860 C.cat 244  ARG244      0.5346
    142  NH1       16.5210   11.6940  -30.2070 N.pl3 244  ARG244      0.1354
    143  NH2       17.2880   10.0880  -28.7620 N.pl3 244  ARG244      0.1354
    144  N         10.4170   11.3210  -33.2120 N.3   248  PHE248     -0.1227
    145  CA        11.2610   11.6690  -34.3520 C.3   248  PHE248      0.1736
    146  C         10.6910   11.2090  -35.6940 C.2   248  PHE248      0.2595
    147  O         10.9480   11.8250  -36.7290 O.2   248  PHE248     -0.2718
    148  CB        12.6700   11.0980  -34.1580 C.3   248  PHE248      0.0547
    149  CG        13.5860   11.3270  -35.3280 C.ar  248  PHE248     -0.0202
    150  CD1       14.1880   12.5590  -35.5240 C.ar  248  PHE248     -0.0042
    151  CD2       13.8480   10.3090  -36.2300 C.ar  248  PHE248     -0.0042
    152  CE1       15.0310   12.7720  -36.5990 C.ar  248  PHE248     -0.0003
    153  CE2       14.6900   10.5160  -37.3060 C.ar  248  PHE248     -0.0003
    154  CZ        15.2820   11.7490  -37.4910 C.ar  248  PHE248     -0.0000
    155  N          9.9180   10.1280  -35.6780 N.am  249  VAL249     -0.1980
    156  CA         9.4200    9.5450  -36.9200 C.3   249  VAL249      0.1595
    157  C          7.9020    9.6600  -37.0550 C.2   249  VAL249      0.2287
    158  O          7.3770    9.7640  -38.1630 O.2   249  VAL249     -0.2864
    159  CB         9.8340    8.0690  -37.0620 C.3   249  VAL249      0.0276
    160  CG1        9.9300    7.6940  -38.5300 C.3   249  VAL249      0.0022
    161  CG2       11.1620    7.8210  -36.3670 C.3   249  VAL249      0.0022
    162  N          5.9890   12.0000  -36.5280 N.3   251  ILE251     -0.1231
    163  CA         5.5220   13.3260  -36.9180 C.3   251  ILE251      0.1692
    164  C          5.8690   13.6270  -38.3730 C.2   251  ILE251      0.2593
    165  O          7.0270   13.5340  -38.7760 O.2   251  ILE251     -0.2718
    166  CB         6.1060   14.4210  -36.0040 C.3   251  ILE251      0.0266
    167  CG1        5.7070   14.1660  -34.5490 C.3   251  ILE251      0.0019
    168  CG2        5.6490   15.7970  -36.4560 C.3   251  ILE251      0.0020
    169  CD1        6.1840   15.2340  -33.5900 C.3   251  ILE251      0.0001
    170  N          4.8560   13.9870  -39.1570 N.am  252  SER252     -0.1938
    171  CA         5.0370   14.2140  -40.5870 C.3   252  SER252      0.2055
    172  C          5.7590   15.5250  -40.8840 C.2   252  SER252      0.2643
    173  O          5.8260   16.4140  -40.0350 O.2   252  SER252     -0.2714
    174  CB         3.6880   14.1820  -41.3080 C.3   252  SER252      0.2130
    175  OG         3.8450   14.4130  -42.6970 O.3   252  SER252     -0.2179
    176  N          6.2820   15.6390  -42.1020 N.am  253  ASP253     -0.1971
    177  CA         7.0510   16.8090  -42.5150 C.3   253  ASP253      0.1709
    178  C          6.2230   18.0890  -42.4720 C.2   253  ASP253      0.2293
    179  O          6.7270   19.1520  -42.1060 O.2   253  ASP253     -0.2864
    180  CB         7.6350   16.6060  -43.9150 C.3   253  ASP253      0.1436
    181  CG         8.6670   15.4960  -43.9600 C.2   253  ASP253      0.3671
    182  OD1        9.4080   15.3310  -42.9690 O.co2 253  ASP253     -0.2456
    183  OD2        8.7380   14.7900  -44.9880 O.co2 253  ASP253     -0.2456
    184  N          6.0670   19.1060  -39.0130 N.3   256  TRP256     -0.1227
    185  CA         7.3530   19.5870  -38.5190 C.3   256  TRP256      0.1737
    186  C          7.5750   21.0630  -38.8260 C.2   256  TRP256      0.2596
    187  O          7.8620   21.4380  -39.9620 O.2   256  TRP256     -0.2718
    188  CB         8.5070   18.7630  -39.0970 C.3   256  TRP256      0.0564
    189  CG         8.7400   17.4640  -38.3870 C.ar  256  TRP256      0.0003
    190  CD1        8.5250   16.2100  -38.8780 C.ar  256  TRP256      0.0946
    191  CD2        9.2330   17.2940  -37.0530 C.ar  256  TRP256      0.0152
    192  NE1        8.8540   15.2690  -37.9330 N.ar  256  TRP256     -0.2442
    193  CE2        9.2920   15.9080  -36.8030 C.ar  256  TRP256      0.0810
    194  CE3        9.6300   18.1780  -36.0450 C.ar  256  TRP256      0.0012
    195  CZ2        9.7320   15.3860  -35.5890 C.ar  256  TRP256      0.0191
    196  CZ3       10.0670   17.6580  -34.8400 C.ar  256  TRP256      0.0001
    197  CH2       10.1140   16.2750  -34.6220 C.ar  256  TRP256      0.0015
    198  N          7.4390   21.8930  -37.7980 N.am  257  THR257     -0.1939
    199  CA         7.7300   23.3150  -37.9130 C.3   257  THR257      0.2028
    200  C          8.9920   23.6330  -37.1230 C.2   257  THR257      0.2642
    201  O          9.5990   22.7420  -36.5310 O.2   257  THR257     -0.2714
    202  CB         6.5680   24.1770  -37.3900 C.3   257  THR257      0.1808
    203  OG1        6.8910   25.5640  -37.5500 O.3   257  THR257     -0.2208
    204  CG2        6.3090   23.8860  -35.9200 C.3   257  THR257      0.0379
    205  N          9.3850   24.9030  -37.1170 N.am  258  THR258     -0.1950
    206  CA        10.5750   25.3280  -36.3870 C.3   258  THR258      0.1897
    207  C         10.3790   25.1770  -34.8790 C.2   258  THR258      0.2313
    208  O         11.3260   24.8820  -34.1430 O.2   258  THR258     -0.2863
    209  CB        10.9370   26.7890  -36.7110 C.3   258  THR258      0.1794
    210  OG1        9.8410   27.6440  -36.3610 O.3   258  THR258     -0.2208
    211  CG2       11.2410   26.9440  -38.1930 C.3   258  THR258      0.0378
    212  N         10.7520   21.6860  -34.0160 N.3   261  PHE261     -0.1241
    213  CA        12.1600   21.4180  -34.2830 C.3   261  PHE261      0.1605
    214  C         12.9950   21.7210  -33.0400 C.2   261  PHE261      0.2264
    215  O         13.6090   20.8240  -32.4370 O.2   261  PHE261     -0.2867
    216  CB        12.6170   22.2870  -35.4590 C.3   261  PHE261      0.0534
    217  CG        14.0030   21.9840  -35.9530 C.ar  261  PHE261     -0.0203
    218  CD1       14.2350   20.9050  -36.7890 C.ar  261  PHE261     -0.0042
    219  CD2       15.0690   22.8000  -35.6070 C.ar  261  PHE261     -0.0042
    220  CE1       15.5080   20.6330  -37.2550 C.ar  261  PHE261     -0.0003
    221  CE2       16.3440   22.5330  -36.0710 C.ar  261  PHE261     -0.0003
    222  CZ        16.5640   21.4480  -36.8960 C.ar  261  PHE261     -0.0000
    223  N         12.0890   19.7080  -30.1310 N.3   264  TYR264     -0.1227
    224  CA        12.6500   18.3680  -30.2510 C.3   264  TYR264      0.1736
    225  C         14.1060   18.3620  -29.8170 C.2   264  TYR264      0.2595
    226  O         14.5880   17.3820  -29.2500 O.2   264  TYR264     -0.2718
    227  CB        12.5320   17.8470  -31.6870 C.3   264  TYR264      0.0548
    228  CG        13.1610   16.4870  -31.9020 C.ar  264  TYR264     -0.0200
    229  CD1       12.4590   15.3230  -31.6190 C.ar  264  TYR264     -0.0009
    230  CD2       14.4580   16.3670  -32.3870 C.ar  264  TYR264     -0.0009
    231  CE1       13.0290   14.0780  -31.8140 C.ar  264  TYR264      0.0417
    232  CE2       15.0370   15.1270  -32.5830 C.ar  264  TYR264      0.0417
    233  CZ        14.3190   13.9870  -32.2950 C.ar  264  TYR264      0.1957
    234  OH        14.8920   12.7510  -32.4880 O.3   264  TYR264     -0.2866
    235  N         14.8090   19.4580  -30.0820 N.am  265  HIS265     -0.1975
    236  CA        16.2190   19.5370  -29.7020 C.3   265  HIS265      0.1656
    237  C         16.4420   19.7440  -28.2020 C.2   265  HIS265      0.2291
    238  O         17.3220   19.1170  -27.6070 O.2   265  HIS265     -0.2864
    239  CB        16.9460   20.5920  -30.5330 C.3   265  HIS265      0.0771
    240  CG        17.0450   20.2350  -31.9820 C.ar  265  HIS265      0.0820
    241  ND1       15.9490   20.2100  -32.8160 N.ar  265  HIS265     -0.2267
    242  CD2       18.1030   19.8550  -32.7360 C.ar  265  HIS265      0.1154
    243  CE1       16.3310   19.8470  -34.0280 C.ar  265  HIS265      0.1986
    244  NE2       17.6330   19.6280  -34.0070 N.ar  265  HIS265     -0.2212
    245  N         15.8010   16.6580  -26.7200 N.3   268  TYR268     -0.1241
    246  CA        16.9510   15.7910  -26.9480 C.3   268  TYR268      0.1605
    247  C         17.9650   15.9900  -25.8280 C.2   268  TYR268      0.2264
    248  O         18.4520   15.0230  -25.2340 O.2   268  TYR268     -0.2867
    249  CB        17.5880   16.0890  -28.3090 C.3   268  TYR268      0.0534
    250  CG        18.8200   15.2660  -28.6170 C.ar  268  TYR268     -0.0201
    251  CD1       18.7130   14.0060  -29.1900 C.ar  268  TYR268     -0.0009
    252  CD2       20.0910   15.7550  -28.3410 C.ar  268  TYR268     -0.0009
    253  CE1       19.8370   13.2520  -29.4730 C.ar  268  TYR268      0.0417
    254  CE2       21.2200   15.0090  -28.6190 C.ar  268  TYR268      0.0417
    255  CZ        21.0880   13.7590  -29.1850 C.ar  268  TYR268      0.1957
    256  OH        22.2110   13.0150  -29.4640 O.3   268  TYR268     -0.2866
@<TRIPOS>BOND
     1    85    84    1
     2    85    86    2
     3    84    83    1
     4    84    87    1
     5    90    88    1
     6    87    88    1
     7     8     6   ar
     8    88    89    1
     9   183   181   ar
    10     6     7   ar
    11     6     5    1
    12   123   122    1
    13   118   119    1
    14   181   180    1
    15   181   182   ar
    16   180   177    1
    17    15    14    1
    18   124   122    1
    19     5     2    1
    20   122   119    1
    21     1     2    1
    22    16    14    1
    23   119   120    1
    24   114   113    2
    25    91    92    1
    26    14    13    1
    27   175   174    1
    28   110   108    1
    29   177   178    1
    30   177   176    1
    31   178   179    2
    32     2     3    1
    33   113   112    1
    34   120   121    2
    35    94    93    2
    36   176   172   am
    37    95    92    1
    38    95    97    1
    39    95    96    1
    40     9     3   am
    41     9    10    1
    42    92    93    1
    43     3     4    2
    44    13    10    1
    45   107   106    2
    46   174   171    1
    47    93    98   am
    48   108   109    1
    49   108   105    1
    50   172   171    1
    51   172   173    2
    52    10    11    1
    53   112   111    1
    54   112   115    1
    55   125   126    1
    56   106   111   am
    57   106   105    1
    58    67    69   ar
    59    67    66   ar
    60   171   170    1
    61    69    70   ar
    62   111   117    1
    63   104   105    1
    64   104   100   am
    65   115   116    1
    66    98    99    1
    67   187   186    2
    68   129   126    1
    69   129   130    1
    70    66    65    1
    71    66    68   ar
    72    70    68   ar
    73   116   117    1
    74    99   100    1
    75    99   102    1
    76    65    62    1
    77   126   127    1
    78    11    17   am
    79    11    12    2
    80   100   101    2
    81   170   164   am
    82   132   130    1
    83    17    18    1
    84   188   185    1
    85   188   189    1
    86   184   185    1
    87    23    22   ar
    88   190   189   ar
    89   190   192   ar
    90    63    62    1
    91    63    64    2
    92   186   185    1
    93   186   198   am
    94   165   164    2
    95   130   131    1
    96    62    61    1
    97   160   159    1
    98   127   128    2
    99   189   191   ar
   100   164   163    1
   101   102   103    1
   102    22    24   ar
   103    22    21    1
   104   211   209    1
   105   158   157    2
   106   192   193   ar
   107   199   198    1
   108   199   202    1
   109   199   200    1
   110    18    21    1
   111    18    19    1
   112   203   202    1
   113   154   153   ar
   114   154   152   ar
   115   202   204    1
   116    20    19    2
   117   153   151   ar
   118   220   222   ar
   119   220   218   ar
   120    61    53   am
   121   200   205   am
   122   200   201    2
   123   205   206    1
   124   159   156    1
   125   159   161    1
   126   157   156    1
   127   191   193   ar
   128   191   194   ar
   129   156   155    1
   130   163   162    1
   131   163   166    1
   132   222   221   ar
   133    54    53    2
   134    19    25   am
   135   193   195   ar
   136   218   217   ar
   137   147   146    2
   138   209   206    1
   139   209   210    1
   140   152   150   ar
   141    53    52    1
   142   168   166    1
   143   206   207    1
   144   151   149   ar
   145   221   219   ar
   146   194   196   ar
   147   166   167    1
   148   217   219   ar
   149   217   216    1
   150   146   155   am
   151   146   145    1
   152   195   197   ar
   153    25    26    1
   154   150   149   ar
   155   216   213    1
   156   149   148    1
   157    55    52    1
   158    55    56    1
   159    38    37    2
   160    52    51    1
   161   207   208    2
   162   196   197   ar
   163    79    77   ar
   164    79    81   ar
   165    31    29    1
   166    77    76   ar
   167    39    37   am
   168    26    29    1
   169    26    27    1
   170   167   169    1
   171    82    81    1
   172    37    36    1
   173   145   148    1
   174   145   144    1
   175   213   212    1
   176   213   214    1
   177    81    80   ar
   178   243   244   ar
   179   243   241   ar
   180   244   242   ar
   181    76    75    1
   182    76    78   ar
   183    56    58   ar
   184    56    57   ar
   185    75    72    1
   186    29    30    1
   187    80    78   ar
   188    27    32   am
   189    27    28    2
   190    32    33    1
   191    48    50   ar
   192    48    46   ar
   193    58    60   ar
   194    57    59   ar
   195   214   215    2
   196    36    33    1
   197    50    49   ar
   198    71    72    1
   199   241   240   ar
   200   242   240   ar
   201    46    45   ar
   202    72    73    1
   203   232   230   ar
   204   232   233   ar
   205    33    34    1
   206   234   233    1
   207   230   228   ar
   208   233   231   ar
   209    73    74    2
   210    60    59   ar
   211   240   239    1
   212   228   227    1
   213   228   229   ar
   214   231   229   ar
   215   227   224    1
   216    49    47   ar
   217    40    41    1
   218    45    47   ar
   219    45    44    1
   220    41    42    1
   221    41    44    1
   222    34    35    2
   223   136   135    2
   224    43    42    2
   225   239   236    1
   226   224   223    1
   227   224   225    1
   228   142   141    1
   229   235   225   am
   230   235   236    1
   231   135   134    1
   232   225   226    2
   233   236   237    1
   234   253   251   ar
   235   253   255   ar
   236   256   255    1
   237   251   250   ar
   238   255   254   ar
   239   141   143    1
   240   141   140    2
   241   138   139    1
   242   138   137    1
   243   254   252   ar
   244   250   252   ar
   245   250   249    1
   246   134   137    1
   247   134   133    1
   248   249   246    1
   249   237   238    2
   250   139   140    1
   251   246   245    1
   252   246   247    1
   253   247   248    2
