@<TRIPOS>MOLECULE
tmp/4bwbB00.pdb
 182 181 0 0 0
SMALL
GASTEIGER

@<TRIPOS>ATOM
      1  N         35.4530  -42.0250  -46.1190 N.3     2  ASP2       -0.1225
      2  CA        35.4830  -41.8680  -44.6700 C.3     2  ASP2        0.1805
      3  C         34.2250  -41.1620  -44.1770 C.2     2  ASP2        0.2597
      4  O         33.8450  -41.2820  -43.0110 O.2     2  ASP2       -0.2718
      5  CB        36.7190  -41.0730  -44.2500 C.3     2  ASP2        0.1424
      6  CG        38.0110  -41.7700  -44.6150 C.2     2  ASP2        0.3668
      7  OD1       37.9800  -42.9960  -44.8480 O.co2   2  ASP2       -0.2456
      8  OD2       39.0560  -41.0890  -44.6880 O.co2   2  ASP2       -0.2456
      9  N         33.5890  -40.4220  -45.0790 N.am    3  LEU3       -0.1979
     10  CA        32.3980  -39.6430  -44.7550 C.3     3  LEU3        0.1596
     11  C         31.1440  -40.4960  -44.5810 C.2     3  LEU3        0.2287
     12  O         30.1100  -39.9990  -44.1310 O.2     3  LEU3       -0.2864
     13  CB        32.1490  -38.5600  -45.8120 C.3     3  LEU3        0.0297
     14  CG        33.0080  -37.2890  -45.8190 C.3     3  LEU3        0.0022
     15  CD1       34.4940  -37.5830  -45.9580 C.3     3  LEU3        0.0001
     16  CD2       32.5480  -36.3670  -46.9340 C.3     3  LEU3        0.0001
     17  N         28.3960  -43.1700  -43.1640 N.3     5  VAL5       -0.1245
     18  CA        27.8750  -43.3670  -41.8170 C.3     5  VAL5        0.1561
     19  C         27.2790  -44.7610  -41.6720 C.2     5  VAL5        0.2260
     20  O         26.3590  -45.1300  -42.4020 O.2     5  VAL5       -0.2867
     21  CB        26.8020  -42.3190  -41.4660 C.3     5  VAL5        0.0252
     22  CG1       26.2460  -42.5740  -40.0740 C.3     5  VAL5        0.0019
     23  CG2       27.3780  -40.9150  -41.5660 C.3     5  VAL5        0.0019
     24  N         20.5350  -35.3500  -44.1940 N.3    70  PHE70      -0.1241
     25  CA        21.0340  -35.6620  -42.8580 C.3    70  PHE70       0.1605
     26  C         20.9100  -37.1290  -42.4420 C.2    70  PHE70       0.2264
     27  O         21.7610  -37.6380  -41.7140 O.2    70  PHE70      -0.2867
     28  CB        20.3710  -34.7590  -41.8160 C.3    70  PHE70       0.0534
     29  CG        20.8070  -33.3240  -41.8960 C.ar   70  PHE70      -0.0203
     30  CD1       22.0980  -33.0010  -42.2780 C.ar   70  PHE70      -0.0042
     31  CD2       19.9280  -32.3010  -41.5910 C.ar   70  PHE70      -0.0042
     32  CE1       22.5050  -31.6820  -42.3530 C.ar   70  PHE70      -0.0003
     33  CE2       20.3280  -30.9810  -41.6650 C.ar   70  PHE70      -0.0003
     34  CZ        21.6180  -30.6710  -42.0460 C.ar   70  PHE70      -0.0000
     35  N         23.6030  -38.4000  -46.2530 N.3    74  HIS74      -0.1226
     36  CA        24.8100  -38.0760  -45.4820 C.3    74  HIS74       0.1752
     37  C         25.7360  -37.1230  -46.2410 C.2    74  HIS74       0.2596
     38  O         26.0680  -36.0450  -45.7470 O.2    74  HIS74      -0.2718
     39  CB        25.5640  -39.3350  -45.0290 C.3    74  HIS74       0.0759
     40  CG        24.7250  -40.2930  -44.2410 C.ar   74  HIS74       0.0818
     41  ND1       24.2240  -39.9930  -42.9930 N.ar   74  HIS74      -0.2268
     42  CD2       24.3030  -41.5490  -44.5240 C.ar   74  HIS74       0.1154
     43  CE1       23.5280  -41.0210  -42.5410 C.ar   74  HIS74       0.1986
     44  NE2       23.5600  -41.9780  -43.4510 N.ar   74  HIS74      -0.2212
     45  N         26.1440  -37.5250  -47.4410 N.am   75  HIS75      -0.1975
     46  CA        27.0050  -36.7050  -48.2860 C.3    75  HIS75       0.1656
     47  C         26.8880  -37.1400  -49.7460 C.2    75  HIS75       0.2291
     48  O         26.6050  -38.3060  -50.0230 O.2    75  HIS75      -0.2864
     49  CB        28.4570  -36.8120  -47.8120 C.3    75  HIS75       0.0771
     50  CG        29.0090  -38.2000  -47.8790 C.ar   75  HIS75       0.0820
     51  ND1       28.6700  -39.1780  -46.9700 N.ar   75  HIS75      -0.2267
     52  CD2       29.8740  -38.7760  -48.7470 C.ar   75  HIS75       0.1154
     53  CE1       29.3020  -40.2960  -47.2750 C.ar   75  HIS75       0.1986
     54  NE2       30.0400  -40.0790  -48.3470 N.ar   75  HIS75      -0.2212
     55  N         20.0970  -23.4820  -41.6490 N.3    88  TYR88      -0.1241
     56  CA        20.4760  -23.2980  -40.2490 C.3    88  TYR88       0.1605
     57  C         19.9770  -21.9710  -39.6780 C.2    88  TYR88       0.2264
     58  O         19.5190  -21.9090  -38.5300 O.2    88  TYR88      -0.2867
     59  CB        21.9900  -23.4310  -40.0780 C.3    88  TYR88       0.0534
     60  CG        22.4800  -24.8570  -40.1890 C.ar   88  TYR88      -0.0201
     61  CD1       22.7550  -25.4240  -41.4260 C.ar   88  TYR88      -0.0009
     62  CD2       22.6580  -25.6400  -39.0570 C.ar   88  TYR88      -0.0009
     63  CE1       23.1970  -26.7290  -41.5310 C.ar   88  TYR88       0.0417
     64  CE2       23.1020  -26.9450  -39.1520 C.ar   88  TYR88       0.0417
     65  CZ        23.3700  -27.4850  -40.3910 C.ar   88  TYR88       0.1957
     66  OH        23.8120  -28.7840  -40.4900 O.3    88  TYR88      -0.2866
     67  N         35.4220  -32.3490  -47.7860 N.3   153  LEU153     -0.1245
     68  CA        36.2000  -33.1090  -46.8180 C.3   153  LEU153      0.1561
     69  C         36.6600  -34.4510  -47.3740 C.2   153  LEU153      0.2260
     70  O         36.7400  -35.4380  -46.6440 O.2   153  LEU153     -0.2867
     71  CB        35.3910  -33.3190  -45.5370 C.3   153  LEU153      0.0270
     72  CG        34.8370  -32.0530  -44.8810 C.3   153  LEU153      0.0019
     73  CD1       34.0680  -32.3930  -43.6140 C.3   153  LEU153      0.0001
     74  CD2       35.9570  -31.0690  -44.5840 C.3   153  LEU153      0.0001
     75  N         30.3820  -31.0480  -48.0920 N.3   164  VAL164     -0.1231
     76  CA        29.6780  -31.2270  -46.8280 C.3   164  VAL164      0.1692
     77  C         29.2240  -29.9030  -46.2230 C.2   164  VAL164      0.2592
     78  O         30.0090  -28.9600  -46.1040 O.2   164  VAL164     -0.2718
     79  CB        30.5590  -31.9840  -45.8060 C.3   164  VAL164      0.0266
     80  CG1       30.0950  -31.7150  -44.3840 C.3   164  VAL164      0.0020
     81  CG2       30.5400  -33.4760  -46.0930 C.3   164  VAL164      0.0020
     82  N         27.9500  -29.8380  -45.8480 N.am  165  CYS165     -0.1956
     83  CA        27.4210  -28.6830  -45.1380 C.3   165  CYS165      0.1843
     84  C         27.9180  -28.7060  -43.6950 C.2   165  CYS165      0.2626
     85  O         27.3470  -29.3830  -42.8390 O.2   165  CYS165     -0.2714
     86  CB        25.8940  -28.6840  -45.1820 C.3   165  CYS165      0.0997
     87  SG        25.1190  -27.2910  -44.3400 S.3   165  CYS165     -0.0797
     88  N         28.9850  -27.9590  -43.4330 N.am  166  THR166     -0.1937
     89  CA        29.6600  -28.0120  -42.1440 C.3   166  THR166      0.2013
     90  C         29.9960  -26.5970  -41.6660 C.2   166  THR166      0.2484
     91  O         30.0610  -25.6670  -42.4730 O.2   166  THR166     -0.2729
     92  CB        30.9520  -28.8640  -42.2490 C.3   166  THR166      0.1807
     93  OG1       31.2930  -29.4110  -40.9690 O.3   166  THR166     -0.2208
     94  CG2       32.1110  -28.0360  -42.7770 C.3   166  THR166      0.0379
     95  N         30.1840  -26.4220  -40.3460 N.am  167  PRO167     -0.2726
     96  CA        30.6470  -25.1320  -39.8230 C.3   167  PRO167      0.1402
     97  C         32.0390  -24.7710  -40.3310 C.2   167  PRO167      0.2269
     98  O         32.9890  -25.5300  -40.1300 O.2   167  PRO167     -0.2865
     99  CB        30.6740  -25.3560  -38.3040 C.3   167  PRO167      0.0296
    100  CG        30.6560  -26.8400  -38.1240 C.3   167  PRO167      0.0237
    101  CD        29.8330  -27.3490  -39.2580 C.3   167  PRO167      0.0939
    102  N         23.3380  -32.3690  -27.4330 N.3   243  ARG243     -0.1245
    103  CA        23.9950  -32.9750  -28.5840 C.3   243  ARG243      0.1563
    104  C         24.9310  -31.9930  -29.2780 C.2   243  ARG243      0.2260
    105  O         26.0450  -32.3490  -29.6640 O.2   243  ARG243     -0.2867
    106  CB        22.9520  -33.4770  -29.5800 C.3   243  ARG243      0.0307
    107  CG        23.5470  -34.1390  -30.8040 C.3   243  ARG243      0.0489
    108  CD        22.4850  -34.4150  -31.8460 C.3   243  ARG243      0.2205
    109  NE        21.7280  -33.2140  -32.1830 N.pl3 243  ARG243     -0.0865
    110  CZ        22.1470  -32.2780  -33.0260 C.cat 243  ARG243      0.5346
    111  NH1       23.3280  -32.3950  -33.6190 N.pl3 243  ARG243      0.1354
    112  NH2       21.3880  -31.2200  -33.2730 N.pl3 243  ARG243      0.1354
    113  N         28.7680  -32.2110  -29.5120 N.3   247  PHE247     -0.1241
    114  CA        29.4570  -32.1580  -30.7960 C.3   247  PHE247      0.1605
    115  C         30.8040  -31.4390  -30.7290 C.2   247  PHE247      0.2264
    116  O         31.7170  -31.7490  -31.4950 O.2   247  PHE247     -0.2867
    117  CB        28.5580  -31.4990  -31.8480 C.3   247  PHE247      0.0534
    118  CG        29.2180  -31.3220  -33.1860 C.ar  247  PHE247     -0.0203
    119  CD1       29.3440  -32.3910  -34.0570 C.ar  247  PHE247     -0.0042
    120  CD2       29.7020  -30.0850  -33.5780 C.ar  247  PHE247     -0.0042
    121  CE1       29.9470  -32.2310  -35.2900 C.ar  247  PHE247     -0.0003
    122  CE2       30.3070  -29.9190  -34.8090 C.ar  247  PHE247     -0.0003
    123  CZ        30.4290  -30.9930  -35.6660 C.ar  247  PHE247     -0.0000
    124  N         36.7880  -38.7140  -29.8230 N.3   255  TRP255     -0.1241
    125  CA        35.8480  -39.1040  -30.8680 C.3   255  TRP255      0.1605
    126  C         36.2180  -40.4450  -31.4920 C.2   255  TRP255      0.2264
    127  O         37.1660  -40.5340  -32.2720 O.2   255  TRP255     -0.2867
    128  CB        35.7810  -38.0380  -31.9630 C.3   255  TRP255      0.0550
    129  CG        34.9320  -36.8560  -31.6260 C.ar  255  TRP255      0.0003
    130  CD1       35.3580  -35.5830  -31.3900 C.ar  255  TRP255      0.0946
    131  CD2       33.5050  -36.8320  -31.4980 C.ar  255  TRP255      0.0152
    132  NE1       34.2860  -34.7670  -31.1200 N.ar  255  TRP255     -0.2442
    133  CE2       33.1370  -35.5100  -31.1810 C.ar  255  TRP255      0.0810
    134  CE3       32.5030  -37.8010  -31.6190 C.ar  255  TRP255      0.0012
    135  CZ2       31.8100  -35.1310  -30.9850 C.ar  255  TRP255      0.0191
    136  CZ3       31.1860  -37.4220  -31.4230 C.ar  255  TRP255      0.0001
    137  CH2       30.8520  -36.0990  -31.1070 C.ar  255  TRP255      0.0015
    138  N         30.7370  -41.8640  -32.6670 N.3   260  PHE260     -0.1241
    139  CA        30.3180  -41.3450  -33.9640 C.3   260  PHE260      0.1605
    140  C         28.9010  -41.8160  -34.2930 C.2   260  PHE260      0.2264
    141  O         27.9620  -41.0090  -34.3980 O.2   260  PHE260     -0.2867
    142  CB        31.3050  -41.8240  -35.0320 C.3   260  PHE260      0.0534
    143  CG        31.0990  -41.2110  -36.3850 C.ar  260  PHE260     -0.0203
    144  CD1       31.5610  -39.9340  -36.6580 C.ar  260  PHE260     -0.0042
    145  CD2       30.4780  -41.9250  -37.3950 C.ar  260  PHE260     -0.0042
    146  CE1       31.3860  -39.3720  -37.9080 C.ar  260  PHE260     -0.0003
    147  CE2       30.3010  -41.3700  -38.6490 C.ar  260  PHE260     -0.0003
    148  CZ        30.7560  -40.0910  -38.9050 C.ar  260  PHE260     -0.0000
    149  N         26.4420  -40.7030  -31.8990 N.3   263  TYR263     -0.1227
    150  CA        26.1070  -39.3030  -32.1330 C.3   263  TYR263      0.1736
    151  C         25.0670  -39.1890  -33.2350 C.2   263  TYR263      0.2595
    152  O         24.2200  -38.2980  -33.2080 O.2   263  TYR263     -0.2718
    153  CB        27.3520  -38.4920  -32.5050 C.3   263  TYR263      0.0548
    154  CG        27.0710  -37.0380  -32.8150 C.ar  263  TYR263     -0.0200
    155  CD1       26.9910  -36.0970  -31.7970 C.ar  263  TYR263     -0.0009
    156  CD2       26.8870  -36.6060  -34.1230 C.ar  263  TYR263     -0.0009
    157  CE1       26.7350  -34.7670  -32.0720 C.ar  263  TYR263      0.0417
    158  CE2       26.6290  -35.2780  -34.4070 C.ar  263  TYR263      0.0417
    159  CZ        26.5540  -34.3630  -33.3770 C.ar  263  TYR263      0.1957
    160  OH        26.2970  -33.0400  -33.6510 O.3   263  TYR263     -0.2866
    161  N         25.1360  -40.0910  -34.2080 N.am  264  HIS264     -0.1975
    162  CA        24.1820  -40.0620  -35.3160 C.3   264  HIS264      0.1656
    163  C         22.7860  -40.5650  -34.9360 C.2   264  HIS264      0.2291
    164  O         21.7750  -39.9580  -35.3040 O.2   264  HIS264     -0.2864
    165  CB        24.7400  -40.8180  -36.5210 C.3   264  HIS264      0.0771
    166  CG        25.9390  -40.1600  -37.1290 C.ar  264  HIS264      0.0820
    167  ND1       27.1530  -40.0900  -36.4820 N.ar  264  HIS264     -0.2267
    168  CD2       26.1060  -39.5290  -38.3140 C.ar  264  HIS264      0.1154
    169  CE1       28.0180  -39.4460  -37.2450 C.ar  264  HIS264      0.1986
    170  NE2       27.4090  -39.0980  -38.3640 N.ar  264  HIS264     -0.2212
    171  N         21.3540  -38.0590  -32.9180 N.3   267  TYR267     -0.1241
    172  CA        20.9400  -36.9640  -33.7820 C.3   267  TYR267      0.1605
    173  C         19.5260  -37.2300  -34.2750 C.2   267  TYR267      0.2264
    174  O         18.6520  -36.3620  -34.1910 O.2   267  TYR267     -0.2867
    175  CB        21.9050  -36.8150  -34.9610 C.3   267  TYR267      0.0534
    176  CG        21.5470  -35.7030  -35.9210 C.ar  267  TYR267     -0.0201
    177  CD1       21.9680  -34.4010  -35.6890 C.ar  267  TYR267     -0.0009
    178  CD2       20.7970  -35.9560  -37.0630 C.ar  267  TYR267     -0.0009
    179  CE1       21.6470  -33.3790  -36.5620 C.ar  267  TYR267      0.0417
    180  CE2       20.4710  -34.9400  -37.9420 C.ar  267  TYR267      0.0417
    181  CZ        20.8990  -33.6540  -37.6860 C.ar  267  TYR267      0.1957
    182  OH        20.5780  -32.6390  -38.5570 O.3   267  TYR267     -0.2866
@<TRIPOS>BOND
     1    48    47    2
     2    47    46    1
     3    52    54   ar
     4    52    50   ar
     5    54    53   ar
     6    46    49    1
     7    46    45    1
     8    75    76    1
     9    50    49    1
    10    50    51   ar
    11    67    68    1
    12    45    37   am
    13    69    68    1
    14    69    70    2
    15    53    51   ar
    16    16    14    1
    17    76    77    1
    18    76    79    1
    19    68    71    1
    20    35    36    1
    21    37    38    2
    22    37    36    1
    23    77    78    2
    24    77    82   am
    25     1     2    1
    26    81    79    1
    27    15    14    1
    28    82    83    1
    29    14    13    1
    30    13    10    1
    31    79    80    1
    32    71    72    1
    33    36    39    1
    34    86    83    1
    35    86    87    1
    36    83    84    1
    37     9    10    1
    38     9     3   am
    39    39    40    1
    40    72    74    1
    41    72    73    1
    42     7     6   ar
    43    10    11    1
    44     8     6   ar
    45     2     5    1
    46     2     3    1
    47     6     5    1
    48    11    12    2
    49    42    40   ar
    50    42    44   ar
    51    40    41   ar
    52    24    25    1
    53     3     4    2
    54    84    88   am
    55    84    85    2
    56    44    43   ar
    57    88    89    1
    58    17    18    1
    59    41    43   ar
    60    25    26    1
    61    25    28    1
    62    94    92    1
    63    91    90    2
    64    26    27    2
    65    20    19    2
    66    32    30   ar
    67    32    34   ar
    68    30    29   ar
    69    92    89    1
    70    92    93    1
    71    89    90    1
    72    34    33   ar
    73    29    28    1
    74    29    31   ar
    75    18    19    1
    76    18    21    1
    77    90    95   am
    78    33    31   ar
    79    55    56    1
    80    23    21    1
    81    63    61   ar
    82    63    65   ar
    83    21    22    1
    84    61    60   ar
    85    66    65    1
    86    65    64   ar
    87    95    96    1
    88    95   101    1
    89    97    98    2
    90    97    96    1
    91    56    59    1
    92    56    57    1
    93    60    59    1
    94    60    62   ar
    95    96    99    1
    96    57    58    2
    97   101   100    1
    98    64    62   ar
    99   148   147   ar
   100   148   146   ar
   101   147   145   ar
   102   182   181    1
   103   170   168   ar
   104   170   169   ar
   105   168   166   ar
   106    99   100    1
   107   180   181   ar
   108   180   178   ar
   109   146   144   ar
   110   181   179   ar
   111   145   143   ar
   112   169   167   ar
   113   166   165    1
   114   166   167   ar
   115   178   176   ar
   116   144   143   ar
   117   179   177   ar
   118   165   162    1
   119   143   142    1
   120   176   177   ar
   121   176   175    1
   122   123   121   ar
   123   123   122   ar
   124   162   163    1
   125   162   161    1
   126   164   163    2
   127   121   119   ar
   128   142   139    1
   129   175   172    1
   130   122   120   ar
   131   158   156   ar
   132   158   159   ar
   133   141   140    2
   134   140   139    1
   135   173   174    2
   136   173   172    1
   137   161   151   am
   138   156   154   ar
   139   119   118   ar
   140   139   138    1
   141   172   171    1
   142   160   159    1
   143   111   110    1
   144   120   118   ar
   145   159   157   ar
   146   112   110    1
   147   151   152    2
   148   151   150    1
   149   118   117    1
   150   110   109    2
   151   154   153    1
   152   154   155   ar
   153   153   150    1
   154   127   126    2
   155   109   108    1
   156   150   149    1
   157   157   155   ar
   158   128   129    1
   159   128   125    1
   160   117   114    1
   161   108   107    1
   162   129   131   ar
   163   129   130   ar
   164   134   131   ar
   165   134   136   ar
   166   131   133   ar
   167   116   115    2
   168   126   125    1
   169   136   137   ar
   170   130   132   ar
   171   133   132   ar
   172   133   135   ar
   173   137   135   ar
   174   125   124    1
   175   107   106    1
   176   114   115    1
   177   114   113    1
   178   105   104    2
   179   106   103    1
   180   104   103    1
   181   103   102    1
