@<TRIPOS>MOLECULE
tmp/4bwcB00.pdb
 83 80 0 0 0
SMALL
GASTEIGER

@<TRIPOS>ATOM
      1  N         67.2120   35.4720   -1.4990 N.3    80  ASN80      -0.1240
      2  CA        68.2050   34.5340   -1.8950 C.3    80  ASN80       0.1653
      3  C         67.4140   33.3920   -2.5660 C.2    80  ASN80       0.2266
      4  O         66.6330   32.6350   -1.9460 O.2    80  ASN80      -0.2867
      5  CB        69.0630   34.1800   -0.7000 C.3    80  ASN80       0.1155
      6  CG        70.0720   33.0860   -0.9890 C.2    80  ASN80       0.2627
      7  OD1       69.9230   32.3110   -1.9220 O.2    80  ASN80      -0.2716
      8  ND2       71.0860   33.0240   -0.1760 N.am   80  ASN80      -0.0877
      9  N         68.4420   30.7350   -4.3480 N.3    82  THR82      -0.1203
     10  CA        68.9580   29.4090   -4.0150 C.3    82  THR82       0.1994
     11  C         68.3610   28.9040   -2.7130 C.2    82  THR82       0.2617
     12  O         67.9640   27.7270   -2.6080 O.2    82  THR82      -0.2717
     13  CB        70.4740   29.4730   -3.8210 C.3    82  THR82       0.1784
     14  OG1       71.0400   29.9690   -5.0200 O.3    82  THR82      -0.2211
     15  CG2       71.1090   28.0810   -3.5210 C.3    82  THR82       0.0376
     16  N         68.3140   29.7960   -1.7060 N.am   83  LEU83      -0.1979
     17  CA        67.7080   29.4080   -0.4580 C.3    83  LEU83       0.1596
     18  C         66.2370   29.0440   -0.6440 C.2    83  LEU83       0.2287
     19  O         65.7900   28.0160   -0.1210 O.2    83  LEU83      -0.2864
     20  CB        67.9230   30.5040    0.6330 C.3    83  LEU83       0.0297
     21  CG        67.5550   30.0650    2.0260 C.3    83  LEU83       0.0022
     22  CD1       68.3690   28.8100    2.5250 C.3    83  LEU83       0.0001
     23  CD2       67.7650   31.2830    2.9030 C.3    83  LEU83       0.0001
     24  N         65.0430   25.4780   -1.4200 N.3    86  HIS86      -0.1241
     25  CA        64.9270   24.4500   -0.4290 C.3    86  HIS86       0.1621
     26  C         63.5250   24.2350    0.1180 C.2    86  HIS86       0.2264
     27  O         63.2920   23.2850    0.8830 O.2    86  HIS86      -0.2867
     28  CB        65.8990   24.6930    0.6880 C.3    86  HIS86       0.0745
     29  CG        67.3260   24.5800    0.2710 C.ar   86  HIS86       0.0817
     30  ND1       68.1030   23.5450    0.6420 N.ar   86  HIS86      -0.2268
     31  CD2       68.1200   25.4100   -0.5310 C.ar   86  HIS86       0.1154
     32  CE1       69.3410   23.7110    0.1170 C.ar   86  HIS86       0.1986
     33  NE2       69.3360   24.8490   -0.6120 N.ar   86  HIS86      -0.2212
     34  N         73.1510   36.6530   10.9050 N.3   180  LYS180     -0.1245
     35  CA        73.1790   35.5040   10.0120 C.3   180  LYS180      0.1561
     36  C         71.9510   35.4770    9.1350 C.2   180  LYS180      0.2260
     37  O         72.0620   35.2520    7.9330 O.2   180  LYS180     -0.2867
     38  CB        73.2850   34.2170   10.8140 C.3   180  LYS180      0.0271
     39  CG        73.2700   32.9140   10.0000 C.3   180  LYS180      0.0035
     40  CD        74.6390   32.6820    9.3380 C.3   180  LYS180      0.0206
     41  CE        74.9290   31.1970    9.1160 C.3   180  LYS180      0.1093
     42  NZ        76.1170   31.0660    8.1940 N.3   180  LYS180     -0.1314
     43  N         72.1210   38.3600    6.4840 N.3   183  ASN183     -0.1225
     44  CA        73.1190   38.0370    5.4210 C.3   183  ASN183      0.1785
     45  C         72.6320   36.9860    4.4440 C.2   183  ASN183      0.2597
     46  O         72.6120   37.1950    3.2350 O.2   183  ASN183     -0.2718
     47  CB        74.3730   37.4770    6.0820 C.3   183  ASN183      0.1169
     48  CG        75.2530   38.5470    6.6110 C.2   183  ASN183      0.2627
     49  OD1       74.8970   39.7290    6.6190 O.2   183  ASN183     -0.2716
     50  ND2       76.4140   38.1520    7.0670 N.am  183  ASN183     -0.0877
     51  N         72.1550   35.8820    4.9990 N.am  184  TRP184     -0.1976
     52  CA        71.6890   34.7190    4.2260 C.3   184  TRP184      0.1640
     53  C         70.4500   35.0460    3.4090 C.2   184  TRP184      0.2290
     54  O         70.2580   34.5420    2.2700 O.2   184  TRP184     -0.2864
     55  CB        71.5360   33.5830    5.2280 C.3   184  TRP184      0.0576
     56  CG        71.5070   32.1360    4.7610 C.ar  184  TRP184      0.0006
     57  CD1       71.3780   31.6230    3.4520 C.ar  184  TRP184      0.0946
     58  CD2       71.5040   30.9220    5.6510 C.ar  184  TRP184      0.0152
     59  NE1       71.3150   30.2170    3.4770 N.ar  184  TRP184     -0.2442
     60  CE2       71.3720   29.7450    4.7530 C.ar  184  TRP184      0.0810
     61  CE3       71.4910   30.7230    7.0430 C.ar  184  TRP184      0.0012
     62  CZ2       71.2860   28.4310    5.2560 C.ar  184  TRP184      0.0191
     63  CZ3       71.4530   29.3920    7.5300 C.ar  184  TRP184      0.0001
     64  CH2       71.3800   28.2770    6.6400 C.ar  184  TRP184      0.0015
     65  N         70.0190   37.8560    1.9620 N.3   186  GLY186     -0.1225
     66  CA        70.4530   38.6710    0.8420 C.3   186  GLY186      0.1811
     67  C         70.3320   40.1750    1.0140 C.2   186  GLY186      0.2280
     68  O         70.3560   40.9380    0.0160 O.2   186  GLY186     -0.2866
     69  N         72.4020   42.3380    2.4100 N.3   188  PRO188     -0.2102
     70  CA        73.5910   43.1680    2.1480 C.3   188  PRO188      0.1504
     71  C         73.7520   43.5890    0.6750 C.2   188  PRO188      0.2575
     72  O         74.1440   44.7420    0.4100 O.2   188  PRO188     -0.2718
     73  CB        74.7500   42.2670    2.6010 C.3   188  PRO188      0.0282
     74  CG        74.1260   41.4610    3.7290 C.3   188  PRO188      0.0208
     75  CD        72.8000   41.0900    3.0800 C.3   188  PRO188      0.0893
     76  N         73.4280   42.6980   -0.2530 N.am  189  ILE189     -0.1980
     77  CA        73.4330   43.0380   -1.6940 C.3   189  ILE189      0.1595
     78  C         72.2940   44.0030   -2.0130 C.2   189  ILE189      0.2287
     79  O         72.5260   44.9470   -2.7440 O.2   189  ILE189     -0.2864
     80  CB        73.4240   41.7740   -2.6010 C.3   189  ILE189      0.0276
     81  CG1       73.7180   42.1180   -4.0760 C.3   189  ILE189      0.0022
     82  CG2       72.1140   41.0140   -2.4940 C.3   189  ILE189      0.0022
     83  CD1       74.0580   40.8910   -4.9280 C.3   189  ILE189      0.0001
@<TRIPOS>BOND
     1    14    13    1
     2    83    81    1
     3     9    10    1
     4    81    80    1
     5    10    13    1
     6    10    11    1
     7    13    15    1
     8    79    78    2
     9    11    12    2
    10    11    16   am
    11    80    82    1
    12    80    77    1
    13     3     4    2
    14     3     2    1
    15    78    77    1
    16     7     6    2
    17     2     1    1
    18     2     5    1
    19    16    17    1
    20    77    76    1
    21    24    25    1
    22     6     5    1
    23     6     8   am
    24    18    17    1
    25    18    19    2
    26    33    31   ar
    27    33    32   ar
    28    31    29   ar
    29    17    20    1
    30    25    26    1
    31    25    28    1
    32    76    71   am
    33    68    67    2
    34    32    30   ar
    35    26    27    2
    36    29    30   ar
    37    29    28    1
    38    72    71    2
    39    20    21    1
    40    71    70    1
    41    66    67    1
    42    66    65    1
    43    21    22    1
    44    21    23    1
    45    70    69    1
    46    70    73    1
    47    54    53    2
    48    69    75    1
    49    73    74    1
    50    75    74    1
    51    46    45    2
    52    53    52    1
    53    57    59   ar
    54    57    56   ar
    55    59    60   ar
    56    52    51    1
    57    52    55    1
    58    45    51   am
    59    45    44    1
    60    60    62   ar
    61    60    58   ar
    62    56    55    1
    63    56    58   ar
    64    62    64   ar
    65    44    47    1
    66    44    43    1
    67    58    61   ar
    68    47    48    1
    69    48    49    2
    70    48    50   am
    71    64    63   ar
    72    61    63   ar
    73    37    36    2
    74    42    41    1
    75    41    40    1
    76    36    35    1
    77    40    39    1
    78    39    38    1
    79    35    38    1
    80    35    34    1
