@<TRIPOS>MOLECULE
tmp/4bwcB01.pdb
 86 81 0 0 0
SMALL
GASTEIGER

@<TRIPOS>ATOM
      1  N         48.0300   35.1610   24.6900 N.3    65  LEU65      -0.1231
      2  CA        47.8860   33.7650   25.0090 C.3    65  LEU65       0.1693
      3  C         47.6730   33.6180   26.5360 C.2    65  LEU65       0.2592
      4  O         48.2800   34.3140   27.3350 O.2    65  LEU65      -0.2718
      5  CB        49.0960   32.9350   24.5770 C.3    65  LEU65       0.0284
      6  CG        49.4720   33.2070   23.0880 C.3    65  LEU65       0.0019
      7  CD1       50.8090   32.5900   22.7300 C.3    65  LEU65       0.0001
      8  CD2       48.3400   32.6780   22.1750 C.3    65  LEU65       0.0001
      9  N         46.9250   32.5930   26.9130 N.am   66  SER66      -0.1952
     10  CA        46.6150   32.3320   28.3540 C.3    66  SER66       0.1924
     11  C         47.9050   31.8510   29.0750 C.2    66  SER66       0.2314
     12  O         47.9240   31.8370   30.3150 O.2    66  SER66      -0.2863
     13  CB        45.5930   31.2100   28.4420 C.3    66  SER66       0.2116
     14  OG        46.1970   29.9840   28.0100 O.3    66  SER66      -0.2180
     15  N         50.3910   33.5450   29.2800 N.3    68  GLY68      -0.1225
     16  CA        51.0410   34.8620   29.6260 C.3    68  GLY68       0.1811
     17  C         52.0260   35.3340   28.5250 C.2    68  GLY68       0.2280
     18  O         52.6450   36.4110   28.6460 O.2    68  GLY68      -0.2866
     19  N         55.0120   37.9190   29.5810 N.3   132  LEU132     -0.1231
     20  CA        54.5930   38.8250   30.6070 C.3   132  LEU132      0.1693
     21  C         54.7320   38.2440   32.0060 C.2   132  LEU132      0.2591
     22  O         54.7410   38.9930   32.9720 O.2   132  LEU132     -0.2718
     23  CB        53.1120   39.2310   30.3840 C.3   132  LEU132      0.0284
     24  CG        52.8490   39.9940   29.0540 C.3   132  LEU132      0.0019
     25  CD1       51.3440   40.2200   28.8330 C.3   132  LEU132      0.0001
     26  CD2       53.6380   41.2520   28.8880 C.3   132  LEU132      0.0001
     27  N         54.9090   36.9370   32.1280 N.am  133  LYS133     -0.1980
     28  CA        55.1420   36.3400   33.4560 C.3   133  LYS133      0.1596
     29  C         56.4740   36.8360   33.9670 C.2   133  LYS133      0.2287
     30  O         56.7010   36.7590   35.1670 O.2   133  LYS133     -0.2864
     31  CB        55.2320   34.8140   33.3470 C.3   133  LYS133      0.0298
     32  CG        53.8130   34.2610   32.9030 C.3   133  LYS133      0.0038
     33  CD        53.7150   32.7170   33.0450 C.3   133  LYS133      0.0206
     34  CE        54.7200   31.9280   32.1660 C.3   133  LYS133      0.1093
     35  NZ        54.7700   32.3600   30.7080 N.3   133  LYS133     -0.1314
     36  N         56.3360   45.0280   37.2220 N.3   137  LEU137     -0.1245
     37  CA        56.2950   46.5060   37.0510 C.3   137  LEU137      0.1561
     38  C         56.9780   47.2180   38.2350 C.2   137  LEU137      0.2260
     39  O         56.8840   46.7020   39.3640 O.2   137  LEU137     -0.2867
     40  CB        54.8350   46.9950   36.8810 C.3   137  LEU137      0.0270
     41  CG        54.1400   46.4240   35.6040 C.3   137  LEU137      0.0019
     42  CD1       52.7300   46.9760   35.5930 C.3   137  LEU137      0.0001
     43  CD2       54.8320   46.8490   34.2910 C.3   137  LEU137      0.0001
     44  N         50.3600   45.4390   29.9590 N.3   269  ILE269     -0.1231
     45  CA        50.3140   44.1840   30.7140 C.3   269  ILE269      0.1692
     46  C         48.9880   44.0650   31.5250 C.2   269  ILE269      0.2592
     47  O         48.4500   42.9760   31.6870 O.2   269  ILE269     -0.2718
     48  CB        51.5710   44.0100   31.6560 C.3   269  ILE269      0.0266
     49  CG1       51.5210   42.6850   32.4020 C.3   269  ILE269      0.0019
     50  CG2       51.7500   45.3230   32.4870 C.3   269  ILE269      0.0020
     51  CD1       52.8410   42.2060   33.0540 C.3   269  ILE269      0.0001
     52  N         48.4430   45.1640   31.9710 N.am  270  TYR270     -0.1976
     53  CA        47.1270   45.1220   32.7150 C.3   270  TYR270      0.1639
     54  C         45.9970   44.6540   31.7720 C.2   270  TYR270      0.2290
     55  O         45.2260   43.7340   32.1140 O.2   270  TYR270     -0.2864
     56  CB        46.7210   46.5400   33.2060 C.3   270  TYR270      0.0560
     57  CG        47.6410   47.0950   34.2790 C.ar  270  TYR270     -0.0198
     58  CD1       47.4000   46.8280   35.6560 C.ar  270  TYR270     -0.0009
     59  CD2       48.7710   47.8970   33.9160 C.ar  270  TYR270     -0.0009
     60  CE1       48.2540   47.3470   36.6440 C.ar  270  TYR270      0.0417
     61  CE2       49.6260   48.4070   34.9120 C.ar  270  TYR270      0.0417
     62  CZ        49.3450   48.1270   36.2760 C.ar  270  TYR270      0.1957
     63  OH        50.2060   48.6070   37.2380 O.3   270  TYR270     -0.2866
     64  N         46.2320   42.9460   28.9730 N.3   272  ALA272     -0.1231
     65  CA        46.4540   41.5680   28.5600 C.3   272  ALA272      0.1694
     66  C         46.0820   40.5130   29.5820 C.2   272  ALA272      0.2592
     67  O         45.6650   39.4190   29.1660 O.2   272  ALA272     -0.2718
     68  CB        47.9060   41.3080   28.0760 C.3   272  ALA272      0.0304
     69  N         46.2240   40.7900   30.8790 N.am  273  SER273     -0.1952
     70  CA        45.9020   39.8090   31.8890 C.3   273  SER273      0.1924
     71  C         44.4060   39.5520   31.9090 C.2   273  SER273      0.2314
     72  O         44.0050   38.5540   32.3910 O.2   273  SER273     -0.2863
     73  CB        46.4290   40.1860   33.2920 C.3   273  SER273      0.2116
     74  OG        45.8470   41.4060   33.7210 O.3   273  SER273     -0.2180
     75  N         42.8550   39.4440   28.8610 N.3   275  TYR275     -0.1241
     76  CA        42.6520   39.2340   27.3960 C.3   275  TYR275      0.1605
     77  C         42.0100   40.4410   26.6330 C.2   275  TYR275      0.2264
     78  O         41.3200   40.2660   25.6270 O.2   275  TYR275     -0.2867
     79  CB        41.7900   37.9840   27.1440 C.3   275  TYR275      0.0534
     80  CG        42.3180   36.7440   27.7760 C.ar  275  TYR275     -0.0201
     81  CD1       43.3070   35.9890   27.1460 C.ar  275  TYR275     -0.0009
     82  CD2       41.8420   36.3120   29.0320 C.ar  275  TYR275     -0.0009
     83  CE1       43.8380   34.8610   27.7430 C.ar  275  TYR275      0.0417
     84  CE2       42.3330   35.1600   29.6210 C.ar  275  TYR275      0.0417
     85  CZ        43.3240   34.4540   28.9920 C.ar  275  TYR275      0.1957
     86  OH        43.8140   33.3210   29.6010 O.3   275  TYR275     -0.2866
@<TRIPOS>BOND
     1     8     6    1
     2     7     6    1
     3     6     5    1
     4     5     2    1
     5     1     2    1
     6     2     3    1
     7    78    77    2
     8     3     9   am
     9     3     4    2
    10    77    76    1
    11     9    10    1
    12    79    76    1
    13    79    80    1
    14    81    83   ar
    15    81    80   ar
    16    76    75    1
    17    83    85   ar
    18    80    82   ar
    19    14    13    1
    20    68    65    1
    21    10    13    1
    22    10    11    1
    23    17    18    2
    24    17    16    1
    25    65    64    1
    26    65    66    1
    27    25    24    1
    28    26    24    1
    29    85    86    1
    30    85    84   ar
    31    82    84   ar
    32    24    23    1
    33    11    12    2
    34    67    66    2
    35    15    16    1
    36    19    20    1
    37    66    69   am
    38    44    45    1
    39    23    20    1
    40    20    21    1
    41    35    34    1
    42    45    46    1
    43    45    48    1
    44    69    70    1
    45    46    47    2
    46    46    52   am
    47    48    49    1
    48    48    50    1
    49    54    55    2
    50    54    53    1
    51    70    71    1
    52    70    73    1
    53    71    72    2
    54    52    53    1
    55    21    27   am
    56    21    22    2
    57    27    28    1
    58    34    33    1
    59    49    51    1
    60    53    56    1
    61    32    33    1
    62    32    31    1
    63    56    57    1
    64    73    74    1
    65    31    28    1
    66    28    29    1
    67    59    57   ar
    68    59    61   ar
    69    29    30    2
    70    57    58   ar
    71    43    41    1
    72    61    62   ar
    73    42    41    1
    74    41    40    1
    75    58    60   ar
    76    62    60   ar
    77    62    63    1
    78    40    37    1
    79    37    36    1
    80    37    38    1
    81    38    39    2
