@<TRIPOS>MOLECULE
tmp/4bwkA00.pdb
 224 216 0 0 0
SMALL
GASTEIGER

@<TRIPOS>ATOM
      1  N        -18.8050   37.9760  -36.7810 N.3    14  HIS14      -0.1241
      2  CA       -18.3490   37.2120  -37.9340 C.3    14  HIS14       0.1621
      3  C        -19.3750   37.2340  -39.0600 C.2    14  HIS14       0.2264
      4  O        -19.0130   37.1310  -40.2350 O.2    14  HIS14      -0.2867
      5  CB       -18.0510   35.7760  -37.5120 C.3    14  HIS14       0.0745
      6  CG       -17.4180   34.9420  -38.5810 C.ar   14  HIS14       0.0817
      7  ND1      -16.4130   35.4110  -39.4030 N.ar   14  HIS14      -0.2268
      8  CD2      -17.6320   33.6540  -38.9430 C.ar   14  HIS14       0.1154
      9  CE1      -16.0440   34.4500  -40.2320 C.ar   14  HIS14       0.1986
     10  NE2      -16.7700   33.3760  -39.9750 N.ar   14  HIS14      -0.2212
     11  N        -13.4330   32.6680  -46.3390 N.3    36  LEU36      -0.1231
     12  CA       -13.4460   31.8390  -45.1300 C.3    36  LEU36       0.1693
     13  C        -12.2760   30.8480  -45.0300 C.2    36  LEU36       0.2592
     14  O        -12.0310   30.2930  -43.9590 O.2    36  LEU36      -0.2718
     15  CB       -14.7590   31.0690  -45.0490 C.3    36  LEU36       0.0284
     16  CG       -15.8820   32.0480  -44.7010 C.3    36  LEU36       0.0019
     17  CD1      -17.2320   31.3610  -44.6270 C.3    36  LEU36       0.0001
     18  CD2      -15.5600   32.7540  -43.3920 C.3    36  LEU36       0.0001
     19  N        -11.5850   30.5980  -46.1420 N.am   37  ASP37      -0.1960
     20  CA       -10.4730   29.6420  -46.1580 C.3    37  ASP37       0.1840
     21  C         -9.4210   30.1700  -45.1960 C.2    37  ASP37       0.2623
     22  O         -9.0220   31.3310  -45.2790 O.2    37  ASP37      -0.2715
     23  CB        -9.9010   29.4370  -47.5590 C.3    37  ASP37       0.1450
     24  CG       -10.8450   28.6680  -48.4720 C.2    37  ASP37       0.3671
     25  OD1      -11.7460   27.9760  -47.9540 O.co2  37  ASP37      -0.2456
     26  OD2      -10.6710   28.7340  -49.7070 O.co2  37  ASP37      -0.2456
     27  N         -8.9770   29.3200  -44.2790 N.am   38  THR38      -0.1937
     28  CA        -8.0430   29.7540  -43.2510 C.3    38  THR38       0.2028
     29  C         -6.6010   29.4050  -43.5890 C.2    38  THR38       0.2642
     30  O         -5.6720   29.7900  -42.8720 O.2    38  THR38      -0.2714
     31  CB        -8.4050   29.1040  -41.8910 C.3    38  THR38       0.1808
     32  OG1       -7.3710   29.3560  -40.9340 O.3    38  THR38      -0.2208
     33  CG2       -8.5830   27.5900  -42.0450 C.3    38  THR38       0.0379
     34  N         -6.4250   28.6930  -44.6930 N.am   39  LYS39      -0.1977
     35  CA        -5.1030   28.2450  -45.1020 C.3    39  LYS39       0.1596
     36  C         -4.8070   28.8360  -46.4850 C.2    39  LYS39       0.2287
     37  O         -5.7200   29.1780  -47.2340 O.2    39  LYS39      -0.2864
     38  CB        -5.0350   26.7190  -45.1270 C.3    39  LYS39       0.0298
     39  CG        -3.5940   26.2320  -45.1190 C.3    39  LYS39       0.0038
     40  CD        -3.4600   24.7300  -45.0380 C.3    39  LYS39       0.0206
     41  CE        -1.9910   24.3330  -45.0330 C.3    39  LYS39       0.1093
     42  NZ        -1.8210   22.8610  -44.9460 N.3    39  LYS39      -0.1314
     43  N         -3.2540   27.3430  -48.9620 N.3    41  THR41      -0.1203
     44  CA        -3.0430   26.2390  -49.9040 C.3    41  THR41       0.1994
     45  C         -4.3200   25.4450  -50.2310 C.2    41  THR41       0.2618
     46  O         -5.1670   25.2380  -49.3660 O.2    41  THR41      -0.2717
     47  CB        -2.0020   25.2600  -49.3580 C.3    41  THR41       0.1784
     48  OG1       -2.3730   24.8720  -48.0340 O.3    41  THR41      -0.2211
     49  CG2       -0.6380   25.9210  -49.3120 C.3    41  THR41       0.0376
     50  N         -4.4400   25.0340  -51.4960 N.am   42  ARG42      -0.1965
     51  CA        -5.5510   24.2290  -52.0480 C.3    42  ARG42       0.1729
     52  C         -5.1840   22.9960  -52.8550 C.2    42  ARG42       0.2616
     53  O         -4.4020   23.0770  -53.8000 O.2    42  ARG42      -0.2715
     54  CB        -6.4310   25.0610  -52.9980 C.3    42  ARG42       0.0348
     55  CG        -7.3730   26.1240  -52.5030 C.3    42  ARG42       0.0492
     56  CD        -6.7970   27.4320  -52.1170 C.3    42  ARG42       0.2205
     57  NE        -7.8630   28.1750  -51.4600 N.pl3  42  ARG42      -0.0865
     58  CZ        -7.7400   29.4040  -50.9840 C.cat  42  ARG42       0.5346
     59  NH1       -6.5790   30.0300  -51.0740 N.pl3  42  ARG42       0.1354
     60  NH2       -8.7720   29.9970  -50.4050 N.pl3  42  ARG42       0.1354
     61  N         -5.7250   21.8450  -52.4700 N.am   43  ASN43      -0.1972
     62  CA        -5.4820   20.6570  -53.2640 C.3    43  ASN43       0.1688
     63  C         -6.8300   20.2000  -53.8020 C.2    43  ASN43       0.2292
     64  O         -7.8830   20.5870  -53.2900 O.2    43  ASN43      -0.2864
     65  CB        -4.7900   19.5540  -52.4590 C.3    43  ASN43       0.1181
     66  CG        -5.5030   19.2530  -51.1560 C.2    43  ASN43       0.2629
     67  OD1       -6.4090   19.9820  -50.7480 O.2    43  ASN43      -0.2716
     68  ND2       -5.1020   18.1730  -50.4960 N.am   43  ASN43      -0.0877
     69  N        -10.3240   16.5840  -52.4250 N.3    46  CYS46      -0.1235
     70  CA       -11.6930   16.4840  -51.9370 C.3    46  CYS46       0.1677
     71  C        -12.7160   16.4730  -53.0730 C.2    46  CYS46       0.2270
     72  O        -13.6420   15.6680  -53.0800 O.2    46  CYS46      -0.2867
     73  CB       -11.9980   17.6110  -50.9470 C.3    46  CYS46       0.0956
     74  SG       -11.6470   19.2800  -51.5340 S.3    46  CYS46      -0.0801
     75  N        -11.0380   24.3760  -54.6000 N.3    51  SER51      -0.1202
     76  CA       -12.2360   24.8250  -53.8960 C.3    51  SER51       0.2020
     77  C        -11.9720   26.1240  -53.1390 C.2    51  SER51       0.2619
     78  O        -10.8740   26.3480  -52.6330 O.2    51  SER51      -0.2717
     79  CB       -12.7150   23.7430  -52.9250 C.3    51  SER51       0.2103
     80  OG       -13.9690   24.0870  -52.3600 O.3    51  SER51      -0.2182
     81  N        -12.9800   26.9860  -53.0890 N.am   52  TRP52      -0.1961
     82  CA       -12.9070   28.2440  -52.3510 C.3    52  TRP52       0.1771
     83  C        -14.1600   28.4240  -51.4900 C.2    52  TRP52       0.2619
     84  O        -15.2550   28.0150  -51.8800 O.2    52  TRP52      -0.2715
     85  CB       -12.7550   29.4230  -53.3180 C.3    52  TRP52       0.0590
     86  CG       -11.5250   29.3530  -54.1900 C.ar   52  TRP52       0.0006
     87  CD1      -11.2980   28.5030  -55.2340 C.ar   52  TRP52       0.0946
     88  CD2      -10.3650   30.1950  -54.1010 C.ar   52  TRP52       0.0152
     89  NE1      -10.0640   28.7510  -55.7860 N.ar   52  TRP52      -0.2442
     90  CE2       -9.4730   29.7860  -55.1100 C.ar   52  TRP52       0.0810
     91  CE3       -9.9950   31.2490  -53.2620 C.ar   52  TRP52       0.0012
     92  CZ2       -8.2320   30.3950  -55.3010 C.ar   52  TRP52       0.0191
     93  CZ3       -8.7640   31.8520  -53.4540 C.ar   52  TRP52       0.0001
     94  CH2       -7.8970   31.4230  -54.4640 C.ar   52  TRP52       0.0015
     95  N        -13.9930   29.0310  -50.3150 N.am   53  MET53      -0.1977
     96  CA       -15.1160   29.2620  -49.4050 C.3    53  MET53       0.1605
     97  C        -15.3610   30.7340  -49.1370 C.2    53  MET53       0.2287
     98  O        -14.4360   31.4950  -48.8590 O.2    53  MET53      -0.2864
     99  CB       -14.8740   28.5540  -48.0700 C.3    53  MET53       0.0413
    100  CG       -15.3730   27.1290  -47.9890 C.3    53  MET53       0.0598
    101  SD       -17.1080   26.9960  -48.4440 S.3    53  MET53      -0.1393
    102  CE       -17.8710   27.9430  -47.1360 C.3    53  MET53       0.0692
    103  N        -23.2250   30.8870  -46.8750 N.3    66  ALA66      -0.1245
    104  CA       -21.8860   30.4730  -47.2570 C.3    66  ALA66       0.1562
    105  C        -21.8980   29.9300  -48.6770 C.2    66  ALA66       0.2260
    106  O        -22.7760   29.1410  -49.0340 O.2    66  ALA66      -0.2867
    107  CB       -21.3620   29.4160  -46.2890 C.3    66  ALA66       0.0290
    108  N        -19.5860   27.8910  -51.4640 N.3    68  ARG68      -0.1245
    109  CA       -18.4320   27.0640  -51.7870 C.3    68  ARG68       0.1563
    110  C        -18.2210   27.1390  -53.2910 C.2    68  ARG68       0.2260
    111  O        -19.0890   26.7490  -54.0710 O.2    68  ARG68      -0.2867
    112  CB       -18.6330   25.6140  -51.3450 C.3    68  ARG68       0.0307
    113  CG       -17.4710   24.7250  -51.7740 C.3    68  ARG68       0.0489
    114  CD       -17.4240   23.4240  -50.9900 C.3    68  ARG68       0.2205
    115  NE       -16.9780   23.6210  -49.6070 N.pl3  68  ARG68      -0.0865
    116  CZ       -15.7000   23.7270  -49.2360 C.cat  68  ARG68       0.5346
    117  NH1      -14.7300   23.6660  -50.1400 N.pl3  68  ARG68       0.1354
    118  NH2      -15.3850   23.9050  -47.9590 N.pl3  68  ARG68       0.1354
    119  N        -25.5170   20.7980  -43.2280 N.3    97  VAL97      -0.1245
    120  CA       -25.5840   22.1930  -43.6270 C.3    97  VAL97       0.1561
    121  C        -26.5620   22.1880  -44.7880 C.2    97  VAL97       0.2260
    122  O        -26.2880   21.6100  -45.8390 O.2    97  VAL97      -0.2867
    123  CB       -24.2280   22.7760  -44.0480 C.3    97  VAL97       0.0252
    124  CG1      -24.3560   24.2670  -44.3060 C.3    97  VAL97       0.0019
    125  CG2      -23.1880   22.5150  -42.9720 C.3    97  VAL97       0.0019
    126  N        -24.9350   27.4560  -49.0960 N.3   117  TYR117     -0.1227
    127  CA       -25.2920   26.6800  -47.9320 C.3   117  TYR117      0.1736
    128  C        -25.7560   27.6550  -46.8710 C.2   117  TYR117      0.2595
    129  O        -25.5420   28.8590  -47.0070 O.2   117  TYR117     -0.2718
    130  CB       -24.0860   25.9080  -47.4130 C.3   117  TYR117      0.0548
    131  CG       -23.6650   24.7590  -48.2950 C.ar  117  TYR117     -0.0200
    132  CD1      -24.2810   23.5190  -48.2070 C.ar  117  TYR117     -0.0009
    133  CD2      -22.6360   24.9170  -49.2120 C.ar  117  TYR117     -0.0009
    134  CE1      -23.8870   22.4700  -49.0160 C.ar  117  TYR117      0.0417
    135  CE2      -22.2340   23.8770  -50.0230 C.ar  117  TYR117      0.0417
    136  CZ       -22.8640   22.6540  -49.9210 C.ar  117  TYR117      0.1957
    137  OH       -22.4730   21.6070  -50.7230 O.3   117  TYR117     -0.2866
    138  N        -26.3970   27.1460  -45.8240 N.am  118  ASP118     -0.1960
    139  CA       -26.6430   27.9560  -44.6390 C.3   118  ASP118      0.1840
    140  C        -25.2960   28.3810  -44.0660 C.2   118  ASP118      0.2622
    141  O        -24.3430   27.5990  -44.0820 O.2   118  ASP118     -0.2715
    142  CB       -27.4280   27.1610  -43.5930 C.3   118  ASP118      0.1450
    143  CG       -28.9280   27.1860  -43.8500 C.2   118  ASP118      0.3671
    144  OD1      -29.3830   28.0840  -44.5920 O.co2 118  ASP118     -0.2456
    145  OD2      -29.6470   26.3110  -43.3200 O.co2 118  ASP118     -0.2456
    146  N        -25.1970   29.6220  -43.5920 N.am  119  PHE119     -0.1960
    147  CA       -23.9660   30.0610  -42.9340 C.3   119  PHE119      0.1771
    148  C        -23.9650   29.8700  -41.4200 C.2   119  PHE119      0.2619
    149  O        -24.7800   30.4490  -40.6870 O.2   119  PHE119     -0.2715
    150  CB       -23.7070   31.5310  -43.2360 C.3   119  PHE119      0.0574
    151  CG       -22.4910   32.0790  -42.5410 C.ar  119  PHE119     -0.0200
    152  CD1      -21.2120   31.7280  -42.9430 C.ar  119  PHE119     -0.0042
    153  CD2      -22.6370   32.9370  -41.4640 C.ar  119  PHE119     -0.0042
    154  CE1      -20.0990   32.2380  -42.2880 C.ar  119  PHE119     -0.0003
    155  CE2      -21.5340   33.4470  -40.8070 C.ar  119  PHE119     -0.0003
    156  CZ       -20.2630   33.1000  -41.2170 C.ar  119  PHE119     -0.0000
    157  N        -23.0360   29.0340  -40.9700 N.am  120  HIS120     -0.1973
    158  CA       -22.8230   28.7800  -39.5580 C.3   120  HIS120      0.1656
    159  C        -21.5200   29.4090  -39.0100 C.2   120  HIS120      0.2291
    160  O        -20.4280   28.8610  -39.1990 O.2   120  HIS120     -0.2864
    161  CB       -22.8150   27.2660  -39.3300 C.3   120  HIS120      0.0771
    162  CG       -24.1610   26.6400  -39.5440 C.ar  120  HIS120      0.0820
    163  ND1      -24.6390   26.2920  -40.7910 N.ar  120  HIS120     -0.2267
    164  CD2      -25.1830   26.4250  -38.6830 C.ar  120  HIS120      0.1154
    165  CE1      -25.8640   25.8080  -40.6730 C.ar  120  HIS120      0.1986
    166  NE2      -26.2220   25.8900  -39.4050 N.ar  120  HIS120     -0.2212
    167  N        -17.4620   28.3760  -37.3500 N.3   123  SER123     -0.1202
    168  CA       -17.2760   26.9730  -37.7030 C.3   123  SER123      0.2020
    169  C        -15.8370   26.6980  -38.0880 C.2   123  SER123      0.2619
    170  O        -15.1850   27.5390  -38.7020 O.2   123  SER123     -0.2717
    171  CB       -18.1940   26.5860  -38.8650 C.3   123  SER123      0.2103
    172  OG       -19.5600   26.6730  -38.5040 O.3   123  SER123     -0.2182
    173  N        -15.3080   25.5610  -37.6570 N.am  124  GLU124     -0.1965
    174  CA       -13.9880   25.1410  -38.1070 C.3   124  GLU124      0.1733
    175  C        -14.0710   23.6750  -38.5240 C.2   124  GLU124      0.2617
    176  O        -14.8570   22.9200  -37.9600 O.2   124  GLU124     -0.2715
    177  CB       -12.9520   25.3560  -37.0060 C.3   124  GLU124      0.0429
    178  CG       -13.4380   25.0170  -35.6150 C.3   124  GLU124      0.1163
    179  CD       -12.5250   25.5540  -34.5290 C.2   124  GLU124      0.3649
    180  OE1      -12.6040   26.7670  -34.2220 O.co2 124  GLU124     -0.2457
    181  OE2      -11.7600   24.7540  -33.9560 O.co2 124  GLU124     -0.2457
    182  N        -13.2820   23.2770  -39.5170 N.am  125  THR125     -0.1951
    183  CA       -13.3110   21.8970  -40.0000 C.3   125  THR125      0.1897
    184  C        -12.9120   20.9300  -38.8930 C.2   125  THR125      0.2313
    185  O        -12.0340   21.2370  -38.0890 O.2   125  THR125     -0.2863
    186  CB       -12.3730   21.6820  -41.2040 C.3   125  THR125      0.1794
    187  OG1      -11.0150   21.9290  -40.8210 O.3   125  THR125     -0.2208
    188  CG2      -12.7530   22.6150  -42.3450 C.3   125  THR125      0.0378
    189  N         -9.0680   20.5590  -38.7960 N.3   128  ASP128     -0.1239
    190  CA        -8.2480   21.6490  -38.2790 C.3   128  ASP128      0.1674
    191  C         -8.4150   21.7750  -36.7700 C.2   128  ASP128      0.2266
    192  O         -7.5060   22.2280  -36.0700 O.2   128  ASP128     -0.2867
    193  CB        -8.6020   22.9650  -38.9690 C.3   128  ASP128      0.1410
    194  CG        -8.1690   22.9940  -40.4260 C.2   128  ASP128      0.3668
    195  OD1       -7.3400   22.1470  -40.8270 O.co2 128  ASP128     -0.2456
    196  OD2       -8.6660   23.8590  -41.1760 O.co2 128  ASP128     -0.2456
    197  N        -12.1620   17.2330  -43.2940 N.3   168  SER168     -0.1202
    198  CA       -12.0460   18.5960  -43.7890 C.3   168  SER168      0.2020
    199  C        -13.3850   19.1000  -44.3020 C.2   168  SER168      0.2618
    200  O        -13.5640   20.3010  -44.5040 O.2   168  SER168     -0.2717
    201  CB       -10.9860   18.6780  -44.8930 C.3   168  SER168      0.2103
    202  OG       -10.5310   20.0090  -45.0740 O.3   168  SER168     -0.2182
    203  N        -14.3170   18.1840  -44.5430 N.am  169  LYS169     -0.1979
    204  CA       -15.6200   18.5950  -45.0390 C.3   169  LYS169      0.1596
    205  C        -16.7160   18.4260  -43.9790 C.2   169  LYS169      0.2287
    206  O        -17.9000   18.3450  -44.3100 O.2   169  LYS169     -0.2864
    207  CB       -15.9640   17.8370  -46.3210 C.3   169  LYS169      0.0298
    208  CG       -15.0430   18.1830  -47.4870 C.3   169  LYS169      0.0038
    209  CD       -15.1980   19.6340  -47.9140 C.3   169  LYS169      0.0206
    210  CE       -13.8610   20.2740  -48.2910 C.3   169  LYS169      0.1093
    211  NZ       -12.9610   20.5240  -47.1300 N.3   169  LYS169     -0.1314
    212  N        -17.8300   20.5030  -40.4770 N.3   171  ILE171     -0.1245
    213  CA       -17.5040   21.6530  -39.6570 C.3   171  ILE171      0.1561
    214  C        -17.8900   21.4460  -38.1920 C.2   171  ILE171      0.2260
    215  O        -18.9600   20.9220  -37.8700 O.2   171  ILE171     -0.2867
    216  CB       -18.1480   22.9380  -40.1990 C.3   171  ILE171      0.0252
    217  CG1      -19.6360   22.7130  -40.4480 C.3   171  ILE171      0.0019
    218  CG2      -17.5150   23.3150  -41.5200 C.3   171  ILE171      0.0019
    219  CD1      -20.3710   23.9720  -40.7940 C.3   171  ILE171      0.0001
    220  N        -20.7650   19.4910  -44.5090 N.3   180  ALA180     -0.1245
    221  CA       -20.7680   20.7940  -45.1920 C.3   180  ALA180      0.1562
    222  C        -20.4450   20.7440  -46.6840 C.2   180  ALA180      0.2260
    223  O        -20.1010   21.7690  -47.2740 O.2   180  ALA180     -0.2867
    224  CB       -19.8010   21.7340  -44.4990 C.3   180  ALA180      0.0290
@<TRIPOS>BOND
     1    89    87   ar
     2    89    90   ar
     3    92    90   ar
     4    92    94   ar
     5    87    86   ar
     6    90    88   ar
     7    75    76    1
     8    94    93   ar
     9    86    88   ar
    10    86    85    1
    11    88    91   ar
    12   111   110    2
    13    76    77    1
    14    76    79    1
    15    63    64    2
    16    63    62    1
    17    53    52    2
    18    93    91   ar
    19    85    82    1
    20   110   109    1
    21    62    61    1
    22    62    65    1
    23    77    81   am
    24    77    78    2
    25    81    82    1
    26    72    71    2
    27    71    70    1
    28    54    55    1
    29    54    51    1
    30    79    80    1
    31    52    61   am
    32    52    51    1
    33    55    56    1
    34    65    66    1
    35    69    70    1
    36    82    83    1
    37    56    57    1
    38    51    50    1
    39    70    73    1
    40    84    83    2
    41   109   108    1
    42   109   112    1
    43   113   112    1
    44   113   114    1
    45    74    73    1
    46    50    45   am
    47    83    95   am
    48    57    58    2
    49    66    67    2
    50    66    68   am
    51    59    58    1
    52   114   115    1
    53    58    60    1
    54   137   136    1
    55    95    96    1
    56    45    44    1
    57    45    46    2
    58   117   116    1
    59   135   136   ar
    60   135   133   ar
    61   136   134   ar
    62    44    47    1
    63    44    43    1
    64    26    24   ar
    65   115   116    2
    66    96    97    1
    67    96    99    1
    68    47    49    1
    69    47    48    1
    70   116   118    1
    71   133   131   ar
    72    97    98    2
    73   126   127    1
    74   106   105    2
    75   134   132   ar
    76   105   104    1
    77    24    25   ar
    78    24    23    1
    79   101   100    1
    80   101   102    1
    81   131   132   ar
    82   131   130    1
    83   210   209    1
    84   210   211    1
    85    99   100    1
    86   127   130    1
    87   127   128    1
    88   209   208    1
    89    23    20    1
    90   208   207    1
    91   223   222    2
    92   104   103    1
    93   104   107    1
    94    37    36    2
    95   129   128    2
    96   128   138   am
    97   222   221    1
    98    36    35    1
    99    11    12    1
   100   207   204    1
   101    20    19    1
   102    20    21    1
   103    19    13   am
   104   122   121    2
   105   138   139    1
   106    22    21    2
   107    21    27   am
   108   221   220    1
   109   221   224    1
   110    12    15    1
   111    12    13    1
   112    38    39    1
   113    38    35    1
   114    39    40    1
   115    35    34    1
   116   202   201    1
   117    15    16    1
   118   204   203    1
   119   204   205    1
   120    40    41    1
   121    41    42    1
   122    13    14    2
   123   201   198    1
   124   121   120    1
   125    16    17    1
   126    16    18    1
   127    34    29   am
   128   139   140    1
   129   139   142    1
   130   144   143   ar
   131   203   199   am
   132   200   199    2
   133   206   205    2
   134   124   123    1
   135   199   198    1
   136    27    28    1
   137   141   140    2
   138   140   146   am
   139   123   120    1
   140   123   125    1
   141   143   142    1
   142   143   145   ar
   143   198   197    1
   144   120   119    1
   145   146   147    1
   146    29    28    1
   147    29    30    2
   148    28    31    1
   149   150   147    1
   150   150   151    1
   151   152   151   ar
   152   152   154   ar
   153   147   148    1
   154   151   153   ar
   155   188   186    1
   156   154   156   ar
   157    33    31    1
   158    31    32    1
   159   218   216    1
   160   153   155   ar
   161   148   157   am
   162   148   149    2
   163   156   155   ar
   164   186   187    1
   165   186   183    1
   166   196   194   ar
   167   157   158    1
   168   195   194   ar
   169   219   217    1
   170   163   165   ar
   171   163   162   ar
   172   165   166   ar
   173   212   213    1
   174   217   216    1
   175   194   193    1
   176     4     3    2
   177     9    10   ar
   178     9     7   ar
   179   216   213    1
   180   183   182    1
   181   183   184    1
   182    10     8   ar
   183   213   214    1
   184   158   161    1
   185   158   159    1
   186   162   161    1
   187   162   164   ar
   188   182   175   am
   189   166   164   ar
   190     7     6   ar
   191   160   159    2
   192     3     2    1
   193   193   190    1
   194     8     6   ar
   195   184   185    2
   196   171   172    1
   197   171   168    1
   198   189   190    1
   199   170   169    2
   200     6     5    1
   201   175   174    1
   202   175   176    2
   203   190   191    1
   204   214   215    2
   205   174   173    1
   206   174   177    1
   207   169   168    1
   208   169   173   am
   209     2     5    1
   210     2     1    1
   211   168   167    1
   212   177   178    1
   213   191   192    2
   214   178   179    1
   215   179   180   ar
   216   179   181   ar
