@<TRIPOS>MOLECULE
tmp/4bwlA00.pdb
 173 164 0 0 0
SMALL
GASTEIGER

@<TRIPOS>ATOM
      1  N         -0.8410  -25.7620   37.8970 N.3    13  ALA13      -0.1245
      2  CA        -0.7630  -24.5960   38.7880 C.3    13  ALA13       0.1562
      3  C         -1.8350  -24.7270   39.8490 C.2    13  ALA13       0.2260
      4  O         -3.0170  -24.5120   39.5860 O.2    13  ALA13      -0.2867
      5  CB        -0.9460  -23.2920   38.0080 C.3    13  ALA13       0.0290
      6  N          2.5460  -27.3670   40.8070 N.3    45  TYR45      -0.1241
      7  CA         3.2280  -26.0760   41.0190 C.3    45  TYR45       0.1605
      8  C          2.3860  -25.3500   42.0470 C.2    45  TYR45       0.2264
      9  O          1.2350  -24.9820   41.7850 O.2    45  TYR45      -0.2867
     10  CB         3.2900  -25.3190   39.6940 C.3    45  TYR45       0.0534
     11  CG         4.1090  -24.0460   39.6210 C.ar   45  TYR45      -0.0201
     12  CD1        5.4530  -24.0820   39.2410 C.ar   45  TYR45      -0.0009
     13  CD2        3.5280  -22.8020   39.8490 C.ar   45  TYR45      -0.0009
     14  CE1        6.2020  -22.9130   39.1210 C.ar   45  TYR45       0.0417
     15  CE2        4.2760  -21.6100   39.7310 C.ar   45  TYR45       0.0417
     16  CZ         5.6090  -21.6850   39.3670 C.ar   45  TYR45       0.1957
     17  OH         6.3650  -20.5370   39.2300 O.3    45  TYR45      -0.2866
     18  N          1.8140  -20.5260   43.4740 N.3    48  GLY48      -0.1210
     19  CA         1.9550  -19.5610   42.3710 C.3    48  GLY48       0.1956
     20  C          0.8480  -18.5190   42.2860 C.2    48  GLY48       0.2613
     21  O          0.0390  -18.3660   43.2040 O.2    48  GLY48      -0.2717
     22  N          0.8180  -17.7990   41.1620 N.am   49  SER49      -0.1938
     23  CA        -0.2010  -16.7790   40.9000 C.3    49  SER49       0.2055
     24  C         -1.5930  -17.3850   40.8690 C.2    49  SER49       0.2643
     25  O         -2.5310  -16.8330   41.4450 O.2    49  SER49      -0.2714
     26  CB         0.0920  -16.0850   39.5770 C.3    49  SER49       0.2130
     27  OG         1.4480  -15.7040   39.5590 O.3    49  SER49      -0.2179
     28  N         -1.7110  -18.5250   40.2000 N.am   50  THR50      -0.1950
     29  CA        -2.9410  -19.3100   40.1930 C.3    50  THR50       0.1897
     30  C         -3.2270  -19.7690   41.6220 C.2    50  THR50       0.2313
     31  O         -4.3660  -19.8070   42.0470 O.2    50  THR50      -0.2863
     32  CB        -2.8140  -20.5540   39.2800 C.3    50  THR50       0.1794
     33  OG1       -2.4380  -20.1420   37.9650 O.3    50  THR50      -0.2208
     34  CG2       -4.1290  -21.3290   39.2030 C.3    50  THR50       0.0378
     35  N          6.1610  -22.4670   44.6030 N.3    81  HIS81      -0.1241
     36  CA         6.4170  -21.0860   44.2200 C.3    81  HIS81       0.1621
     37  C          6.6040  -20.2300   45.4730 C.2    81  HIS81       0.2264
     38  O          5.6360  -19.9150   46.1990 O.2    81  HIS81      -0.2867
     39  CB         5.3280  -20.4730   43.3370 C.3    81  HIS81       0.0745
     40  CG         5.4670  -18.9840   43.2180 C.ar   81  HIS81       0.0817
     41  ND1        6.5760  -18.3880   42.6460 N.ar   81  HIS81      -0.2268
     42  CD2        4.7020  -17.9740   43.6950 C.ar   81  HIS81       0.1154
     43  CE1        6.4550  -17.0760   42.7320 C.ar   81  HIS81       0.1986
     44  NE2        5.3340  -16.7960   43.3720 N.ar   81  HIS81      -0.2212
     45  N          6.6010  -13.9190   33.9050 N.3   141  ILE141     -0.1245
     46  CA         5.1660  -13.6160   33.8080 C.3   141  ILE141      0.1561
     47  C          4.9340  -12.1140   33.5290 C.2   141  ILE141      0.2260
     48  O          4.3720  -11.3980   34.3670 O.2   141  ILE141     -0.2867
     49  CB         4.4100  -14.0520   35.1070 C.3   141  ILE141      0.0252
     50  CG1        4.7790  -15.4830   35.4970 C.3   141  ILE141      0.0019
     51  CG2        2.8860  -13.9170   34.9230 C.3   141  ILE141      0.0019
     52  CD1        3.9160  -16.1310   36.5810 C.3   141  ILE141      0.0001
     53  N          2.7740  -10.2920   31.7780 N.3   143  ALA143     -0.1231
     54  CA         1.4160   -9.7340   31.8770 C.3   143  ALA143      0.1694
     55  C          1.0820   -9.2910   33.2960 C.2   143  ALA143      0.2591
     56  O          0.5270   -8.2060   33.4810 O.2   143  ALA143     -0.2718
     57  CB         0.3650  -10.7210   31.3610 C.3   143  ALA143      0.0304
     58  N          1.4380  -10.1020   34.2950 N.am  144  LEU144     -0.1980
     59  CA         1.1220   -9.7890   35.6990 C.3   144  LEU144      0.1596
     60  C          2.1700   -8.9180   36.3900 C.2   144  LEU144      0.2287
     61  O          1.8510   -7.8530   36.9170 O.2   144  LEU144     -0.2864
     62  CB         0.8740  -11.0640   36.5090 C.3   144  LEU144      0.0297
     63  CG        -0.3320  -11.9020   36.0540 C.3   144  LEU144      0.0022
     64  CD1       -0.2500  -13.2880   36.6300 C.3   144  LEU144      0.0001
     65  CD2       -1.6600  -11.2620   36.4410 C.3   144  LEU144      0.0001
     66  N          9.5430  -21.2880   33.7590 N.3   167  LYS167     -0.1245
     67  CA         8.1110  -21.1410   33.4300 C.3   167  LYS167      0.1561
     68  C          8.0270  -19.9590   32.5250 C.2   167  LYS167      0.2260
     69  O          8.1340  -18.8070   32.9720 O.2   167  LYS167     -0.2867
     70  CB         7.2770  -20.9390   34.6660 C.3   167  LYS167      0.0271
     71  CG         5.7820  -20.9130   34.4530 C.3   167  LYS167      0.0035
     72  CD         5.1120  -20.1330   35.5620 C.3   167  LYS167      0.0206
     73  CE         3.6970  -20.5790   35.7890 C.3   167  LYS167      0.1093
     74  NZ         2.7830  -19.4940   36.1240 N.3   167  LYS167     -0.1314
     75  N          5.6940  -18.0880   30.6590 N.3   169  THR169     -0.1218
     76  CA         4.3180  -17.6420   30.4460 C.3   169  THR169      0.1862
     77  C          4.3450  -16.4050   29.5430 C.2   169  THR169      0.2287
     78  O          4.3310  -15.2810   29.9950 O.2   169  THR169     -0.2866
     79  CB         3.6510  -17.3310   31.7810 C.3   169  THR169      0.1770
     80  OG1        3.7180  -18.4820   32.6310 O.3   169  THR169     -0.2211
     81  CG2        2.1960  -16.9240   31.5890 C.3   169  THR169      0.0375
     82  N          3.8300  -21.6890   29.6080 N.3   191  GLY191     -0.1210
     83  CA         3.0290  -21.0590   30.6560 C.3   191  GLY191      0.1956
     84  C          1.5970  -20.7100   30.2660 C.2   191  GLY191      0.2612
     85  O          0.7320  -20.6450   31.1380 O.2   191  GLY191     -0.2717
     86  N          1.3560  -20.4730   28.9740 N.am  192  TYR192     -0.1962
     87  CA         0.0490  -20.0600   28.4770 C.3   192  TYR192      0.1771
     88  C         -0.6810  -21.2730   27.8870 C.2   192  TYR192      0.2620
     89  O         -0.2610  -21.8290   26.8670 O.2   192  TYR192     -0.2715
     90  CB         0.1910  -18.9260   27.4410 C.3   192  TYR192      0.0574
     91  CG         0.1880  -17.5200   28.0280 C.ar  192  TYR192     -0.0198
     92  CD1       -0.8370  -17.1040   28.8520 C.ar  192  TYR192     -0.0009
     93  CD2        1.2060  -16.6150   27.7420 C.ar  192  TYR192     -0.0009
     94  CE1       -0.8650  -15.8250   29.3830 C.ar  192  TYR192      0.0417
     95  CE2        1.1910  -15.3060   28.2720 C.ar  192  TYR192      0.0417
     96  CZ         0.1610  -14.9390   29.0920 C.ar  192  TYR192      0.1957
     97  OH         0.1240  -13.6940   29.6260 O.3   192  TYR192     -0.2866
     98  N         -1.7680  -21.6830   28.5370 N.am  193  ASP193     -0.1957
     99  CA        -2.4610  -22.9600   28.2060 C.3   193  ASP193      0.1840
    100  C         -3.0790  -22.9130   26.8270 C.2   193  ASP193      0.2621
    101  O         -3.1860  -23.9270   26.1260 O.2   193  ASP193     -0.2715
    102  CB        -3.5740  -23.2680   29.2170 C.3   193  ASP193      0.1450
    103  CG        -3.0850  -23.2550   30.6560 C.2   193  ASP193      0.3671
    104  OD1       -1.8350  -23.2290   30.8460 O.co2 193  ASP193     -0.2456
    105  OD2       -3.9590  -23.2480   31.5730 O.co2 193  ASP193     -0.2456
    106  N         -3.4990  -21.7160   26.4530 N.am  194  GLU194     -0.1977
    107  CA        -4.1570  -21.4800   25.1840 C.3   194  GLU194      0.1602
    108  C         -3.2230  -21.6510   23.9870 C.2   194  GLU194      0.2287
    109  O         -3.6690  -21.5420   22.8580 O.2   194  GLU194     -0.2864
    110  CB        -4.8410  -20.1030   25.1760 C.3   194  GLU194      0.0415
    111  CG        -4.0450  -18.9370   25.8110 C.3   194  GLU194      0.1163
    112  CD        -4.2270  -18.8030   27.3340 C.2   194  GLU194      0.3649
    113  OE1       -3.6850  -19.6420   28.0850 O.co2 194  GLU194     -0.2457
    114  OE2       -4.8890  -17.8500   27.7860 O.co2 194  GLU194     -0.2457
    115  N          3.2170  -25.7150   32.7020 N.3   208  ILE208     -0.1231
    116  CA         2.6720  -25.4310   34.0080 C.3   208  ILE208      0.1692
    117  C          1.4060  -24.6310   33.7550 C.2   208  ILE208      0.2593
    118  O          1.4490  -23.6200   33.0640 O.2   208  ILE208     -0.2718
    119  CB         3.6440  -24.5850   34.8420 C.3   208  ILE208      0.0266
    120  CG1        4.9100  -25.3670   35.1390 C.3   208  ILE208      0.0019
    121  CG2        3.0080  -24.1290   36.1520 C.3   208  ILE208      0.0020
    122  CD1        6.0550  -24.4790   35.5410 C.3   208  ILE208      0.0001
    123  N          0.2740  -25.0490   34.2960 N.am  209  GLY209     -0.1942
    124  CA        -0.9300  -24.2810   34.0110 C.3   209  GLY209      0.2014
    125  C         -2.1020  -24.4040   34.9440 C.2   209  GLY209      0.2640
    126  O         -2.2550  -25.3930   35.6740 O.2   209  GLY209     -0.2714
    127  N         -2.9450  -23.3860   34.8750 N.am  210  SER210     -0.1935
    128  CA        -4.0970  -23.2390   35.7330 C.3   210  SER210      0.2055
    129  C         -5.2940  -24.1080   35.3590 C.2   210  SER210      0.2643
    130  O         -6.0390  -24.5350   36.2410 O.2   210  SER210     -0.2714
    131  CB        -4.5530  -21.7930   35.6710 C.3   210  SER210      0.2130
    132  OG        -4.8600  -21.4490   34.3390 O.3   210  SER210     -0.2179
    133  N         -5.5180  -24.3290   34.0640 N.am  211  THR211     -0.1950
    134  CA        -6.7190  -25.0590   33.6250 C.3   211  THR211      0.1897
    135  C         -6.5130  -26.5550   33.7790 C.2   211  THR211      0.2313
    136  O         -7.4790  -27.3110   33.8600 O.2   211  THR211     -0.2863
    137  CB        -7.1860  -24.6710   32.1980 C.3   211  THR211      0.1794
    138  OG1       -6.1610  -24.9380   31.2410 O.3   211  THR211     -0.2208
    139  CG2       -7.5700  -23.2030   32.1440 C.3   211  THR211      0.0378
    140  N        -11.0760  -22.3170   27.9440 N.3   245  ILE245     -0.1245
    141  CA       -10.3030  -21.1120   28.3070 C.3   245  ILE245      0.1561
    142  C        -11.0460  -19.8440   27.8590 C.2   245  ILE245      0.2260
    143  O        -11.0990  -18.8780   28.5910 O.2   245  ILE245     -0.2867
    144  CB        -8.8640  -21.1200   27.7420 C.3   245  ILE245      0.0252
    145  CG1       -7.9600  -22.0350   28.5770 C.3   245  ILE245      0.0019
    146  CG2       -8.2830  -19.7230   27.7560 C.3   245  ILE245      0.0019
    147  CD1       -6.5900  -22.3040   27.9250 C.3   245  ILE245      0.0001
    148  N        -11.8570  -17.1180   30.7630 N.3   249  ILE249     -0.1245
    149  CA       -11.5530  -15.7010   30.5490 C.3   249  ILE249      0.1561
    150  C        -12.7900  -14.8150   30.7450 C.2   249  ILE249      0.2260
    151  O        -12.7140  -13.7550   31.3760 O.2   249  ILE249     -0.2867
    152  CB       -10.9580  -15.4540   29.1530 C.3   249  ILE249      0.0252
    153  CG1       -9.4950  -15.8910   29.1370 C.3   249  ILE249      0.0019
    154  CG2      -11.0570  -13.9720   28.7720 C.3   249  ILE249      0.0019
    155  CD1       -8.7820  -15.5370   27.8720 C.3   249  ILE249      0.0001
    156  N        -10.5750  -16.3580   35.2660 N.3   253  VAL253     -0.1231
    157  CA        -9.9170  -17.6550   35.1500 C.3   253  VAL253      0.1692
    158  C         -9.8680  -18.4090   36.4810 C.2   253  VAL253      0.2592
    159  O        -10.4290  -19.5060   36.5730 O.2   253  VAL253     -0.2718
    160  CB        -8.5120  -17.5540   34.5200 C.3   253  VAL253      0.0266
    161  CG1       -7.7850  -18.8670   34.6530 C.3   253  VAL253      0.0020
    162  CG2       -8.6250  -17.1960   33.0520 C.3   253  VAL253      0.0020
    163  N         -9.2450  -17.8280   37.5150 N.am  254  PHE254     -0.1976
    164  CA        -9.0150  -18.5780   38.7570 C.3   254  PHE254      0.1639
    165  C        -10.3320  -18.9070   39.4650 C.2   254  PHE254      0.2290
    166  O        -10.5490  -20.0610   39.8640 O.2   254  PHE254     -0.2864
    167  CB        -8.0360  -17.8680   39.6940 C.3   254  PHE254      0.0560
    168  CG        -6.7010  -17.5300   39.0510 C.ar  254  PHE254     -0.0200
    169  CD1       -6.0970  -18.3930   38.1460 C.ar  254  PHE254     -0.0042
    170  CD2       -6.0610  -16.3470   39.3540 C.ar  254  PHE254     -0.0042
    171  CE1       -4.8760  -18.0730   37.5540 C.ar  254  PHE254     -0.0003
    172  CE2       -4.8470  -16.0170   38.7590 C.ar  254  PHE254     -0.0003
    173  CZ        -4.2510  -16.8730   37.8750 C.ar  254  PHE254     -0.0000
@<TRIPOS>BOND
     1   109   108    2
     2   108   107    1
     3   110   107    1
     4   110   111    1
     5   107   106    1
     6   111   112    1
     7   101   100    2
     8   106   100   am
     9   100    99    1
    10    89    88    2
    11   112   114   ar
    12   112   113   ar
    13    90    91    1
    14    90    87    1
    15   144   146    1
    16   144   141    1
    17   144   145    1
    18    93    91   ar
    19    93    95   ar
    20   142   141    1
    21   142   143    2
    22   155   153    1
    23    88    87    1
    24    88    98   am
    25   147   145    1
    26   140   141    1
    27    91    92   ar
    28    99    98    1
    29    99   102    1
    30    95    96   ar
    31    87    86    1
    32   154   152    1
    33    92    94   ar
    34    86    84   am
    35    96    94   ar
    36    96    97    1
    37   153   152    1
    38   152   149    1
    39   102   103    1
    40    77    78    2
    41    77    76    1
    42    82    83    1
    43    84    83    1
    44    84    85    2
    45    76    75    1
    46    76    79    1
    47   149   150    1
    48   149   148    1
    49   103   104   ar
    50   103   105   ar
    51   150   151    2
    52   138   137    1
    53    57    54    1
    54    81    79    1
    55    53    54    1
    56    79    80    1
    57    54    55    1
    58   139   137    1
    59   137   134    1
    60    68    69    2
    61    68    67    1
    62   115   116    1
    63   162   160    1
    64   118   117    2
    65    55    56    2
    66    55    58   am
    67    67    66    1
    68    67    70    1
    69    47    46    1
    70    47    48    2
    71   134   135    1
    72   134   133    1
    73   117   116    1
    74   117   123   am
    75   135   136    2
    76    46    45    1
    77    46    49    1
    78   116   119    1
    79   124   123    1
    80   124   125    1
    81   133   129   am
    82    58    59    1
    83   132   131    1
    84    71    70    1
    85    71    72    1
    86   160   161    1
    87   160   157    1
    88   119   120    1
    89   119   121    1
    90   127   125   am
    91   127   128    1
    92    51    49    1
    93   125   126    2
    94    49    50    1
    95   120   122    1
    96   157   156    1
    97   157   158    1
    98   129   128    1
    99   129   130    2
   100    50    52    1
   101    72    73    1
   102   131   128    1
   103    59    60    1
   104    59    62    1
   105    73    74    1
   106    63    65    1
   107    63    62    1
   108    63    64    1
   109    60    61    2
   110   158   159    2
   111   158   163   am
   112   163   164    1
   113   171   173   ar
   114   171   169   ar
   115   173   172   ar
   116     1     2    1
   117    33    32    1
   118     5     2    1
   119   169   168   ar
   120   164   165    1
   121   164   167    1
   122   172   170   ar
   123     2     3    1
   124   168   170   ar
   125   168   167    1
   126    14    12   ar
   127    14    16   ar
   128    34    32    1
   129    17    16    1
   130    12    11   ar
   131    32    29    1
   132    16    15   ar
   133   165   166    2
   134    27    26    1
   135    26    23    1
   136     4     3    2
   137    11    10    1
   138    11    13   ar
   139    10     7    1
   140    15    13   ar
   141    29    28    1
   142    29    30    1
   143    28    24   am
   144     6     7    1
   145    24    23    1
   146    24    25    2
   147    23    22    1
   148     7     8    1
   149    22    20   am
   150    30    31    2
   151     9     8    2
   152    20    19    1
   153    20    21    2
   154    19    18    1
   155    41    43   ar
   156    41    40   ar
   157    43    44   ar
   158    40    39    1
   159    40    42   ar
   160    39    36    1
   161    44    42   ar
   162    36    35    1
   163    36    37    1
   164    37    38    2
