@<TRIPOS>MOLECULE
tmp/4bwlC00.pdb
 138 130 0 0 0
SMALL
GASTEIGER

@<TRIPOS>ATOM
      1  N          6.2600  -11.9580    0.6780 N.3    11  ALA11      -0.1245
      2  CA         6.2710  -10.4990    0.7810 C.3    11  ALA11       0.1562
      3  C          7.4510   -9.9850    0.0000 C.2    11  ALA11       0.2260
      4  O          8.5900   -9.9440    0.5030 O.2    11  ALA11      -0.2867
      5  CB         6.3640  -10.0380    2.2520 C.3    11  ALA11       0.0290
      6  N          4.4080   -3.8350    3.4860 N.3    47  SER47      -0.1202
      7  CA         5.4170   -3.2280    4.3650 C.3    47  SER47       0.2020
      8  C          6.8010   -3.7460    4.0480 C.2    47  SER47       0.2619
      9  O          7.7670   -2.9950    4.1020 O.2    47  SER47      -0.2717
     10  CB         5.0780   -3.4970    5.8240 C.3    47  SER47       0.2103
     11  OG         3.7490   -3.0580    6.0680 O.3    47  SER47      -0.2182
     12  N          6.9050   -5.0100    3.6660 N.am   48  THR48      -0.1952
     13  CA         8.2230   -5.5760    3.2930 C.3    48  THR48       0.1897
     14  C          8.7240   -4.9160    2.0310 C.2    48  THR48       0.2313
     15  O          9.9260   -4.6530    1.8960 O.2    48  THR48      -0.2863
     16  CB         8.1740   -7.0770    3.1130 C.3    48  THR48       0.1794
     17  OG1        8.0770   -7.6880    4.4030 O.3    48  THR48      -0.2208
     18  CG2        9.4220   -7.6110    2.3760 C.3    48  THR48       0.0378
     19  N         -1.2570   -5.6110   11.3160 N.3   139  ILE139     -0.1245
     20  CA         0.1540   -5.5530   11.7650 C.3   139  ILE139      0.1561
     21  C          0.4130   -4.5440   12.8780 C.2   139  ILE139      0.2260
     22  O          0.9640   -3.4740   12.6460 O.2   139  ILE139     -0.2867
     23  CB         1.1650   -5.3460   10.6120 C.3   139  ILE139      0.0252
     24  CG1        2.5780   -5.8010   11.0580 C.3   139  ILE139      0.0019
     25  CG2        1.2340   -3.9320   10.2100 C.3   139  ILE139      0.0019
     26  CD1        3.4840   -6.2560    9.9110 C.3   139  ILE139      0.0001
     27  N          2.6880   -4.2440   15.3900 N.3   141  ALA141     -0.1231
     28  CA         4.0470   -3.7180   15.6640 C.3   141  ALA141      0.1694
     29  C          4.3810   -2.4580   14.8840 C.2   141  ALA141      0.2591
     30  O          5.0010   -1.5320   15.4220 O.2   141  ALA141     -0.2718
     31  CB         5.1140   -4.7800   15.4090 C.3   141  ALA141      0.0304
     32  N          3.9960   -2.4350   13.6090 N.am  142  LEU142     -0.1980
     33  CA         4.2310   -1.3030   12.7320 C.3   142  LEU142      0.1596
     34  C          3.0570   -0.3230   12.7200 C.2   142  LEU142      0.2287
     35  O          3.2620    0.8680   12.8830 O.2   142  LEU142     -0.2864
     36  CB         4.5410   -1.7610   11.2940 C.3   142  LEU142      0.0297
     37  CG         5.7100   -2.7360   11.0750 C.3   142  LEU142      0.0022
     38  CD1        5.9420   -2.9460    9.5790 C.3   142  LEU142      0.0001
     39  CD2        6.9760   -2.2510   11.7560 C.3   142  LEU142      0.0001
     40  N         -0.2690  -10.7260   11.1860 N.3   166  THR166     -0.1218
     41  CA         1.0620  -10.5000   11.7150 C.3   166  THR166      0.1862
     42  C          0.8520  -10.0410   13.1360 C.2   166  THR166      0.2287
     43  O          0.9640   -8.8530   13.4710 O.2   166  THR166     -0.2866
     44  CB         1.8940   -9.5310   10.8620 C.3   166  THR166      0.1770
     45  OG1        1.8500   -9.9500    9.4910 O.3   166  THR166     -0.2211
     46  CG2        3.3690   -9.4970   11.3420 C.3   166  THR166      0.0375
     47  N          1.8460  -14.2700    9.5710 N.3   188  GLY188     -0.1210
     48  CA         2.5880  -13.0940    9.1790 C.3   188  GLY188      0.1956
     49  C          3.9720  -13.0540    9.7450 C.2   188  GLY188      0.2612
     50  O          4.8400  -12.4820    9.1400 O.2   188  GLY188     -0.2717
     51  N          4.1620  -13.6430   10.9210 N.am  189  TYR189     -0.1962
     52  CA         5.4870  -13.7670   11.5040 C.3   189  TYR189      0.1771
     53  C          6.1280  -15.1250   11.1720 C.2   189  TYR189      0.2620
     54  O          5.6730  -16.1980   11.6170 O.2   189  TYR189     -0.2715
     55  CB         5.4370  -13.5490   13.0010 C.3   189  TYR189      0.0574
     56  CG         5.3960  -12.0990   13.4340 C.ar  189  TYR189     -0.0198
     57  CD1        6.3790  -11.1990   13.0300 C.ar  189  TYR189     -0.0009
     58  CD2        4.3870  -11.6300   14.2600 C.ar  189  TYR189     -0.0009
     59  CE1        6.3550   -9.8920   13.4410 C.ar  189  TYR189      0.0417
     60  CE2        4.3620  -10.3210   14.6810 C.ar  189  TYR189      0.0417
     61  CZ         5.3540   -9.4630   14.2700 C.ar  189  TYR189      0.1957
     62  OH         5.3500   -8.1660   14.6780 O.3   189  TYR189     -0.2866
     63  N          7.2180  -15.0350   10.4120 N.am  190  ASP190     -0.1957
     64  CA         7.9170  -16.1850    9.8220 C.3   190  ASP190      0.1840
     65  C          8.6400  -16.9900   10.8720 C.2   190  ASP190      0.2621
     66  O          8.9970  -18.1560   10.6720 O.2   190  ASP190     -0.2715
     67  CB         8.9450  -15.6870    8.7940 C.3   190  ASP190      0.1450
     68  CG         8.3380  -14.7500    7.7580 C.2   190  ASP190      0.3671
     69  OD1        7.1120  -14.4820    7.8070 O.co2 190  ASP190     -0.2456
     70  OD2        9.0800  -14.2910    6.8750 O.co2 190  ASP190     -0.2456
     71  N          8.8570  -16.3580   12.0070 N.am  191  GLU191     -0.1977
     72  CA         9.6670  -16.9420   13.0480 C.3   191  GLU191      0.1602
     73  C          8.8210  -17.8640   13.9160 C.2   191  GLU191      0.2287
     74  O          9.3770  -18.6290   14.7050 O.2   191  GLU191     -0.2864
     75  CB        10.3820  -15.8560   13.8740 C.3   191  GLU191      0.0415
     76  CG         9.5610  -14.6170   14.2280 C.3   191  GLU191      0.1163
     77  CD         9.6690  -13.5180   13.1800 C.2   191  GLU191      0.3649
     78  OE1        9.3220  -13.7850   11.9980 O.co2 191  GLU191     -0.2457
     79  OE2       10.1290  -12.4080   13.5290 O.co2 191  GLU191     -0.2457
     80  N          2.3950  -15.3630    4.7630 N.3   205  ILE205     -0.1231
     81  CA         2.9810  -14.2680    3.9970 C.3   205  ILE205      0.1696
     82  C          4.2160  -13.7870    4.7660 C.2   205  ILE205      0.2632
     83  O          4.1320  -13.5270    5.9690 O.2   205  ILE205     -0.2714
     84  CB         2.0020  -13.0740    3.8260 C.3   205  ILE205      0.0266
     85  CG1        0.7210  -13.4830    3.1030 C.3   205  ILE205      0.0019
     86  CG2        2.6620  -11.9590    3.0280 C.3   205  ILE205      0.0020
     87  CD1       -0.4070  -12.4150    3.1560 C.3   205  ILE205      0.0001
     88  N          5.3580  -13.6450    4.0850 N.am  206  GLY206     -0.1718
     89  CA         6.5640  -13.2390    4.8060 C.2   206  GLY206      0.1480
     90  C          7.7630  -12.8010    4.0040 C.2   206  GLY206      0.2821
     91  O          8.0310  -13.2880    2.9140 O.2   206  GLY206     -0.2669
     92  N          8.4930  -11.8580    4.5810 N.am  207  SER207     -0.1901
     93  CA         9.6820  -11.2970    3.9860 C.3   207  SER207      0.2058
     94  C         10.7810  -12.3390    3.7050 C.2   207  SER207      0.2643
     95  O         11.4910  -12.2340    2.7200 O.2   207  SER207     -0.2714
     96  CB        10.2290  -10.2370    4.9330 C.3   207  SER207      0.2130
     97  OG        10.5960  -10.8130    6.1910 O.3   207  SER207     -0.2179
     98  N         10.9540  -13.3270    4.5730 N.am  208  THR208     -0.1950
     99  CA        12.0150  -14.3050    4.3530 C.3   208  THR208      0.1897
    100  C         11.6960  -15.3550    3.2760 C.2   208  THR208      0.2313
    101  O         12.6190  -15.9970    2.7650 O.2   208  THR208     -0.2863
    102  CB        12.5010  -14.9560    5.6670 C.3   208  THR208      0.1794
    103  OG1       11.4230  -15.6230    6.3380 O.3   208  THR208     -0.2208
    104  CG2       13.1010  -13.8900    6.5950 C.3   208  THR208      0.0378
    105  N         16.5100  -15.9430   10.5230 N.3   242  ILE242     -0.1245
    106  CA        15.7860  -14.7580   10.9860 C.3   242  ILE242      0.1561
    107  C         16.5240  -14.0570   12.1200 C.2   242  ILE242      0.2260
    108  O         16.5380  -12.8340   12.1810 O.2   242  ILE242     -0.2867
    109  CB        14.3370  -15.0770   11.4280 C.3   242  ILE242      0.0252
    110  CG1       13.4170  -15.1270   10.2000 C.3   242  ILE242      0.0019
    111  CG2       13.8550  -14.0090   12.4410 C.3   242  ILE242      0.0019
    112  CD1       12.1180  -15.9430   10.4120 C.3   242  ILE242      0.0001
    113  N         17.4720  -10.0000   11.7920 N.3   246  ILE246     -0.1245
    114  CA        17.1480   -8.9420   12.7620 C.3   246  ILE246      0.1561
    115  C         18.4170   -8.2070   13.2700 C.2   246  ILE246      0.2260
    116  O         18.3990   -7.0090   13.5420 O.2   246  ILE246     -0.2867
    117  CB        16.2340   -9.4840   13.8900 C.3   246  ILE246      0.0252
    118  CG1       14.8910   -9.9310   13.2760 C.3   246  ILE246      0.0019
    119  CG2       16.0010   -8.4290   14.9490 C.3   246  ILE246      0.0019
    120  CD1       14.1030  -10.8960   14.1030 C.3   246  ILE246      0.0001
    121  N         16.0660   -6.6750    8.8440 N.3   250  VAL250     -0.1231
    122  CA        15.5680   -7.7370    7.9710 C.3   250  VAL250      0.1692
    123  C         15.4880   -7.3650    6.4870 C.2   250  VAL250      0.2592
    124  O         15.9190   -8.1300    5.6370 O.2   250  VAL250     -0.2718
    125  CB        14.2010   -8.2660    8.4620 C.3   250  VAL250      0.0266
    126  CG1       13.5760   -9.1580    7.4250 C.3   250  VAL250      0.0020
    127  CG2       14.4160   -9.0660    9.7600 C.3   250  VAL250      0.0020
    128  N         14.9770   -6.1860    6.1620 N.am  251  PHE251     -0.1976
    129  CA        14.7810   -5.8730    4.7460 C.3   251  PHE251      0.1639
    130  C         16.1070   -5.7270    3.9850 C.2   251  PHE251      0.2290
    131  O         16.2670   -6.3130    2.9220 O.2   251  PHE251     -0.2864
    132  CB        13.8750   -4.6650    4.5810 C.3   251  PHE251      0.0560
    133  CG        12.5050   -4.8490    5.2120 C.ar  251  PHE251     -0.0200
    134  CD1       11.9110   -6.1080    5.2960 C.ar  251  PHE251     -0.0042
    135  CD2       11.8200   -3.7650    5.7280 C.ar  251  PHE251     -0.0042
    136  CE1       10.6580   -6.2740    5.8840 C.ar  251  PHE251     -0.0003
    137  CE2       10.5670   -3.9270    6.2990 C.ar  251  PHE251     -0.0003
    138  CZ         9.9950   -5.1770    6.3800 C.ar  251  PHE251     -0.0000
@<TRIPOS>BOND
     1     3     4    2
     2     3     2    1
     3     1     2    1
     4     2     5    1
     5    15    14    2
     6    14    13    1
     7    18    16    1
     8    95    94    2
     9   101   100    2
    10    91    90    2
    11   131   130    2
    12    86    84    1
    13    85    87    1
    14    85    84    1
    15    16    13    1
    16    16    17    1
    17   100    99    1
    18    13    12    1
    19     6     7    1
    20    12     8   am
    21    94    93    1
    22    94    98   am
    23    84    81    1
    24   130   129    1
    25    93    92    1
    26    93    96    1
    27    81    80    1
    28    81    82    1
    29    90    92   am
    30    90    89    1
    31     8     9    2
    32     8     7    1
    33    88    82    1
    34    88    89    2
    35    99    98    1
    36    99   102    1
    37     7    10    1
    38   132   129    1
    39   132   133    1
    40   129   128    1
    41    82    83    2
    42    96    97    1
    43   133   134   ar
    44   133   135   ar
    45   134   136   ar
    46   124   123    2
    47   102   103    1
    48   102   104    1
    49   135   137   ar
    50    10    11    1
    51   136   138   ar
    52   128   123   am
    53   137   138   ar
    54   123   122    1
    55    70    68   ar
    56   126   125    1
    57    68    69   ar
    58    68    67    1
    59   122   125    1
    60   122   121    1
    61   125   127    1
    62    67    64    1
    63    50    49    2
    64    48    47    1
    65    48    49    1
    66    45    44    1
    67    38    37    1
    68    49    51   am
    69    64    63    1
    70    64    65    1
    71    26    24    1
    72   110   112    1
    73   110   109    1
    74    25    23    1
    75    63    53   am
    76   105   106    1
    77    23    24    1
    78    23    20    1
    79    66    65    2
    80    44    46    1
    81    44    41    1
    82    65    71   am
    83    51    52    1
    84   106   109    1
    85   106   107    1
    86    37    36    1
    87    37    39    1
    88    53    52    1
    89    53    54    2
    90    40    41    1
    91    36    33    1
    92    19    20    1
    93   109   111    1
    94    52    55    1
    95    41    42    1
    96    20    21    1
    97   113   114    1
    98    78    77   ar
    99    71    72    1
   100   107   108    2
   101    22    21    2
   102    34    33    1
   103    34    35    2
   104    33    32    1
   105   114   115    1
   106   114   117    1
   107    55    56    1
   108    57    56   ar
   109    57    59   ar
   110    72    75    1
   111    72    73    1
   112    42    43    2
   113    77    79   ar
   114    77    76    1
   115   115   116    2
   116   118   117    1
   117   118   120    1
   118    56    58   ar
   119    59    61   ar
   120    32    29   am
   121    75    76    1
   122   117   119    1
   123    73    74    2
   124    58    60   ar
   125    61    62    1
   126    61    60   ar
   127    29    30    2
   128    29    28    1
   129    27    28    1
   130    31    28    1
