@<TRIPOS>MOLECULE
tmp/4bwmA00.pdb
 158 152 0 0 0
SMALL
GASTEIGER

@<TRIPOS>ATOM
      1  N        -26.9480   10.7930   -5.9990 N.3   279  ARG279     -0.1245
      2  CA       -26.8420    9.4560   -5.4070 C.3   279  ARG279      0.1563
      3  C        -25.4280    9.1940   -4.8790 C.2   279  ARG279      0.2260
      4  O        -24.4440    9.6230   -5.4850 O.2   279  ARG279     -0.2867
      5  CB       -27.1830    8.3740   -6.4360 C.3   279  ARG279      0.0307
      6  CG       -28.6640    8.1810   -6.7190 C.3   279  ARG279      0.0489
      7  CD       -28.9030    6.8240   -7.3900 C.3   279  ARG279      0.2205
      8  NE       -28.3940    5.7450   -6.5500 N.pl3 279  ARG279     -0.0865
      9  CZ       -29.1470    4.9630   -5.7810 C.cat 279  ARG279      0.5346
     10  NH1      -30.4660    5.1010   -5.7510 N.pl3 279  ARG279      0.1354
     11  NH2      -28.5720    4.0360   -5.0420 N.pl3 279  ARG279      0.1354
     12  N        -35.1630   -0.7060    4.0000 N.3   316  ASP316     -0.1225
     13  CA       -35.2970   -0.3730    2.5690 C.3   316  ASP316      0.1805
     14  C        -36.4660    0.5790    2.3650 C.2   316  ASP316      0.2598
     15  O        -37.5810    0.2730    2.7780 O.2   316  ASP316     -0.2718
     16  CB       -35.5410   -1.6580    1.7640 C.3   316  ASP316      0.1424
     17  CG       -35.3450   -1.4740    0.2570 C.2   316  ASP316      0.3668
     18  OD1      -34.5760   -0.5840   -0.1530 O.co2 316  ASP316     -0.2456
     19  OD2      -35.9390   -2.2480   -0.5170 O.co2 316  ASP316     -0.2456
     20  N        -36.2370    1.7200    1.7140 N.am  317  TYR317     -0.1962
     21  CA       -37.3640    2.5850    1.3780 C.3   317  TYR317      0.1771
     22  C        -38.1880    1.9200    0.2790 C.2   317  TYR317      0.2620
     23  O        -37.6660    1.6000   -0.7870 O.2   317  TYR317     -0.2715
     24  CB       -36.8930    3.9580    0.8920 C.3   317  TYR317      0.0574
     25  CG       -36.6180    5.0000    1.9570 C.ar  317  TYR317     -0.0198
     26  CD1      -37.6520    5.5690    2.7040 C.ar  317  TYR317     -0.0009
     27  CD2      -35.3300    5.4620    2.1700 C.ar  317  TYR317     -0.0009
     28  CE1      -37.3860    6.5550    3.6650 C.ar  317  TYR317      0.0417
     29  CE2      -35.0590    6.4290    3.1180 C.ar  317  TYR317      0.0417
     30  CZ       -36.0850    6.9770    3.8510 C.ar  317  TYR317      0.1957
     31  OH       -35.7880    7.9440    4.7850 O.3   317  TYR317     -0.2866
     32  N        -39.4720    1.7000    0.5350 N.am  318  SER318     -0.1936
     33  CA       -40.3310    1.0660   -0.4580 C.3   318  SER318      0.2055
     34  C        -40.7550    2.0710   -1.5330 C.2   318  SER318      0.2642
     35  O        -41.4210    3.0600   -1.2240 O.2   318  SER318     -0.2714
     36  CB       -41.5790    0.4980    0.2070 C.3   318  SER318      0.2130
     37  OG       -41.2190   -0.3320    1.2960 O.3   318  SER318     -0.2179
     38  N        -40.3630    1.8080   -2.7790 N.am  319  GLN319     -0.1976
     39  CA       -40.7830    2.6170   -3.9260 C.3   319  GLN319      0.1601
     40  C        -40.6360    4.1260   -3.7070 C.2   319  GLN319      0.2287
     41  O        -41.5150    4.9160   -4.0920 O.2   319  GLN319     -0.2864
     42  CB       -42.2170    2.2540   -4.3430 C.3   319  GLN319      0.0394
     43  CG       -42.2740    0.8480   -4.8930 C.3   319  GLN319      0.0908
     44  CD       -43.6610    0.2270   -4.9640 C.2   319  GLN319      0.2608
     45  OE1      -44.6890    0.9060   -4.8820 O.2   319  GLN319     -0.2717
     46  NE2      -43.6870   -1.0950   -5.1230 N.am  319  GLN319     -0.0878
     47  N        -38.7680    6.4850   -5.1000 N.3   321  GLU321     -0.1231
     48  CA       -38.7900    7.3640   -6.2710 C.3   321  GLU321      0.1699
     49  C        -40.2040    7.6160   -6.8010 C.2   321  GLU321      0.2592
     50  O        -40.5210    8.7440   -7.2030 O.2   321  GLU321     -0.2718
     51  CB       -37.8930    6.8560   -7.3910 C.3   321  GLU321      0.0402
     52  CG       -36.4250    7.0500   -7.1150 C.3   321  GLU321      0.1161
     53  CD       -35.5920    6.9370   -8.3760 C.2   321  GLU321      0.3649
     54  OE1      -36.1080    7.2930   -9.4620 O.co2 321  GLU321     -0.2457
     55  OE2      -34.4290    6.4900   -8.2790 O.co2 321  GLU321     -0.2457
     56  N        -41.0490    6.5890   -6.7900 N.am  322  LEU322     -0.1980
     57  CA       -42.4480    6.7620   -7.1980 C.3   322  LEU322      0.1596
     58  C        -43.2250    7.6430   -6.2160 C.2   322  LEU322      0.2287
     59  O        -44.0820    8.4270   -6.6200 O.2   322  LEU322     -0.2864
     60  CB       -43.1420    5.4110   -7.3780 C.3   322  LEU322      0.0297
     61  CG       -42.6350    4.5900   -8.5680 C.3   322  LEU322      0.0022
     62  CD1      -42.9820    3.1240   -8.4020 C.3   322  LEU322      0.0001
     63  CD2      -43.2060    5.1490   -9.8810 C.3   322  LEU322      0.0001
     64  N        -46.3590   -1.3060   -8.6720 N.3   345  HIS345     -0.1241
     65  CA       -46.0040   -2.1780   -9.7810 C.3   345  HIS345      0.1621
     66  C        -47.0110   -3.3090   -9.9330 C.2   345  HIS345      0.2264
     67  O        -47.2420   -3.7960  -11.0320 O.2   345  HIS345     -0.2867
     68  CB       -44.5920   -2.7290   -9.6080 C.3   345  HIS345      0.0745
     69  CG       -43.5330   -1.6730   -9.5850 C.ar  345  HIS345      0.0817
     70  ND1      -43.2740   -0.8490  -10.6630 N.ar  345  HIS345     -0.2268
     71  CD2      -42.6620   -1.3080   -8.6160 C.ar  345  HIS345      0.1154
     72  CE1      -42.2970   -0.0160  -10.3520 C.ar  345  HIS345      0.1986
     73  NE2      -41.9050   -0.2760   -9.1150 N.ar  345  HIS345     -0.2212
     74  N        -44.6150   -9.1410  -12.3800 N.3   365  ARG365     -0.1245
     75  CA       -44.3080   -7.8860  -11.6930 C.3   365  ARG365      0.1563
     76  C        -42.9950   -7.2780  -12.1840 C.2   365  ARG365      0.2260
     77  O        -42.8920   -6.0560  -12.3520 O.2   365  ARG365     -0.2867
     78  CB       -44.2730   -8.0860  -10.1760 C.3   365  ARG365      0.0307
     79  CG       -44.2120   -6.7760   -9.3850 C.3   365  ARG365      0.0489
     80  CD       -44.2950   -7.0350   -7.8840 C.3   365  ARG365      0.2205
     81  NE       -44.3020   -5.7990   -7.1000 N.pl3 365  ARG365     -0.0865
     82  CZ       -43.2050   -5.1270   -6.7700 C.cat 365  ARG365      0.5346
     83  NH1      -42.0250   -5.5650   -7.1680 N.pl3 365  ARG365      0.1354
     84  NH2      -43.2900   -4.0100   -6.0540 N.pl3 365  ARG365      0.1354
     85  N        -42.5240   -3.6950  -14.0210 N.3   369  LYS369     -0.1231
     86  CA       -41.6060   -2.6800  -13.4980 C.3   369  LYS369      0.1693
     87  C        -40.7570   -2.0800  -14.6020 C.2   369  LYS369      0.2592
     88  O        -40.5600   -0.8610  -14.6540 O.2   369  LYS369     -0.2718
     89  CB       -40.6740   -3.2650  -12.4350 C.3   369  LYS369      0.0285
     90  CG       -41.3280   -3.5460  -11.1090 C.3   369  LYS369      0.0035
     91  CD       -40.3220   -4.1250  -10.1170 C.3   369  LYS369      0.0206
     92  CE       -39.1530   -3.1690   -9.8620 C.3   369  LYS369      0.1093
     93  NZ       -38.1640   -3.7400   -8.8840 N.3   369  LYS369     -0.1314
     94  N        -40.2560   -2.9410  -15.4800 N.am  370  THR370     -0.1953
     95  CA       -39.4070   -2.5250  -16.5830 C.3   370  THR370      0.1897
     96  C        -40.1830   -1.6190  -17.5270 C.2   370  THR370      0.2313
     97  O        -39.6560   -0.6190  -18.0120 O.2   370  THR370     -0.2863
     98  CB       -38.8520   -3.7470  -17.3540 C.3   370  THR370      0.1794
     99  OG1      -39.9280   -4.6390  -17.6670 O.3   370  THR370     -0.2208
    100  CG2      -37.8400   -4.4930  -16.5010 C.3   370  THR370      0.0378
    101  N        -40.9170    1.9550  -15.5430 N.3   373  PHE373     -0.1241
    102  CA       -39.7790    2.8570  -15.4870 C.3   373  PHE373      0.1605
    103  C        -39.4450    3.3950  -16.8790 C.2   373  PHE373      0.2264
    104  O        -39.1850    4.5870  -17.0430 O.2   373  PHE373     -0.2867
    105  CB       -38.5610    2.1550  -14.8890 C.3   373  PHE373      0.0534
    106  CG       -38.7400    1.7380  -13.4510 C.ar  373  PHE373     -0.0203
    107  CD1      -39.4400    2.5230  -12.5590 C.ar  373  PHE373     -0.0042
    108  CD2      -38.2070    0.5440  -13.0010 C.ar  373  PHE373     -0.0042
    109  CE1      -39.5930    2.1270  -11.2280 C.ar  373  PHE373     -0.0003
    110  CE2      -38.3490    0.1600  -11.6830 C.ar  373  PHE373     -0.0003
    111  CZ       -39.0560    0.9500  -10.8010 C.ar  373  PHE373     -0.0000
    112  N        -40.2900    7.3920  -17.5110 N.3   377  TYR377     -0.1241
    113  CA       -39.0790    8.2020  -17.5750 C.3   377  TYR377      0.1605
    114  C        -38.5300    8.4320  -18.9830 C.2   377  TYR377      0.2264
    115  O        -37.3940    8.8690  -19.1290 O.2   377  TYR377     -0.2867
    116  CB       -38.0120    7.6480  -16.6160 C.3   377  TYR377      0.0534
    117  CG       -38.5140    7.5540  -15.1790 C.ar  377  TYR377     -0.0201
    118  CD1      -39.1110    8.6480  -14.5600 C.ar  377  TYR377     -0.0009
    119  CD2      -38.4230    6.3650  -14.4590 C.ar  377  TYR377     -0.0009
    120  CE1      -39.5850    8.5720  -13.2540 C.ar  377  TYR377      0.0417
    121  CE2      -38.8960    6.2770  -13.1460 C.ar  377  TYR377      0.0417
    122  CZ       -39.4800    7.3870  -12.5530 C.ar  377  TYR377      0.1957
    123  OH       -39.9540    7.3210  -11.2560 O.3   377  TYR377     -0.2866
    124  N        -35.7440   13.5490  -15.3260 N.3   456  ASN456     -0.1240
    125  CA       -35.3740   12.4160  -14.4610 C.3   456  ASN456      0.1653
    126  C        -34.6450   12.8730  -13.1960 C.2   456  ASN456      0.2266
    127  O        -34.8290   12.3120  -12.1090 O.2   456  ASN456     -0.2867
    128  CB       -34.5060   11.4120  -15.2240 C.3   456  ASN456      0.1155
    129  CG       -35.3190   10.3110  -15.8800 C.2   456  ASN456      0.2627
    130  OD1      -35.5900    9.2820  -15.2590 O.2   456  ASN456     -0.2716
    131  ND2      -35.7000   10.5100  -17.1460 N.am  456  ASN456     -0.0877
    132  N        -34.9850   11.3110   -9.0940 N.3   460  GLN460     -0.1245
    133  CA       -33.8710   10.5160   -8.5520 C.3   460  GLN460      0.1566
    134  C        -33.0820   11.2840   -7.5020 C.2   460  GLN460      0.2260
    135  O        -32.7200   10.7170   -6.4650 O.2   460  GLN460     -0.2867
    136  CB       -32.9120   10.0600   -9.6590 C.3   460  GLN460      0.0367
    137  CG       -33.5440    9.2620  -10.7660 C.3   460  GLN460      0.0905
    138  CD       -32.5140    8.8020  -11.7890 C.2   460  GLN460      0.2608
    139  OE1      -31.6550    9.5770  -12.2180 O.2   460  GLN460     -0.2717
    140  NE2      -32.5930    7.5360  -12.1750 N.am  460  GLN460     -0.0878
    141  N        -28.5730    1.2880   -3.3140 N.3   490  HIS490     -0.1226
    142  CA       -29.9370    1.3750   -3.8410 C.3   490  HIS490      0.1752
    143  C        -30.7590    2.2980   -2.9250 C.2   490  HIS490      0.2596
    144  O        -30.3580    3.4340   -2.6810 O.2   490  HIS490     -0.2718
    145  CB       -30.5690   -0.0160   -3.9560 C.3   490  HIS490      0.0759
    146  CG       -29.7260   -1.0170   -4.6930 C.ar  490  HIS490      0.0818
    147  ND1      -29.7090   -2.3590   -4.3690 N.ar  490  HIS490     -0.2268
    148  CD2      -28.8780   -0.8740   -5.7420 C.ar  490  HIS490      0.1154
    149  CE1      -28.8860   -2.9980   -5.1820 C.ar  490  HIS490      0.1986
    150  NE2      -28.3670   -2.1210   -6.0230 N.ar  490  HIS490     -0.2212
    151  N        -31.8740    1.7940   -2.3890 N.am  491  ASP491     -0.1974
    152  CA       -32.7340    2.5550   -1.4650 C.3   491  ASP491      0.1709
    153  C        -32.6360    1.9940   -0.0330 C.2   491  ASP491      0.2293
    154  O        -33.5290    2.2000    0.8080 O.2   491  ASP491     -0.2864
    155  CB       -34.1930    2.4630   -1.9230 C.3   491  ASP491      0.1436
    156  CG       -34.4230    3.1000   -3.2980 C.2   491  ASP491      0.3671
    157  OD1      -33.6840    4.0380   -3.6650 O.co2 491  ASP491     -0.2456
    158  OD2      -35.3440    2.6560   -4.0090 O.co2 491  ASP491     -0.2456
@<TRIPOS>BOND
     1   115   114    2
     2   114   113    1
     3    97    96    2
     4    99    98    1
     5   113   112    1
     6   113   116    1
     7    96    95    1
     8    98    95    1
     9    98   100    1
    10   131   129   am
    11   104   103    2
    12   103   102    1
    13   116   117    1
    14    95    94    1
    15   129   130    2
    16   129   128    1
    17   101   102    1
    18   102   105    1
    19    94    87   am
    20   124   125    1
    21   128   125    1
    22   117   118   ar
    23   117   119   ar
    24   105   106    1
    25    88    87    2
    26    87    86    1
    27   118   120   ar
    28   125   126    1
    29   119   121   ar
    30    85    86    1
    31    86    89    1
    32   106   108   ar
    33   106   107   ar
    34   120   122   ar
    35   126   127    2
    36   121   122   ar
    37   108   110   ar
    38   107   109   ar
    39   122   123    1
    40    89    90    1
    41    74    75    1
    42    77    76    2
    43   139   138    2
    44    76    75    1
    45   140   138   am
    46   138   137    1
    47    75    78    1
    48   110   111   ar
    49   109   111   ar
    50    90    91    1
    51    67    66    2
    52   137   136    1
    53    70    72   ar
    54    70    69   ar
    55    72    73   ar
    56    78    79    1
    57    91    92    1
    58    66    65    1
    59    63    61    1
    60    92    93    1
    61    65    68    1
    62    65    64    1
    63   136   133    1
    64    68    69    1
    65    69    71   ar
    66    54    53   ar
    67    79    80    1
    68    73    71   ar
    69   132   133    1
    70    61    62    1
    71    61    60    1
    72   133   134    1
    73    53    55   ar
    74    53    52    1
    75    80    81    1
    76   134   135    2
    77    51    52    1
    78    51    48    1
    79     7     6    1
    80     7     8    1
    81    60    57    1
    82    50    49    2
    83    57    56    1
    84    57    58    1
    85    83    82    1
    86    81    82    2
    87    49    56   am
    88    49    48    1
    89    82    84    1
    90     6     5    1
    91    59    58    2
    92     8     9    2
    93     5     2    1
    94    48    47    1
    95   150   148   ar
    96   150   149   ar
    97     1     2    1
    98     9    10    1
    99     9    11    1
   100   148   146   ar
   101     4     3    2
   102     2     3    1
   103   149   147   ar
   104    46    44   am
   105    44    43    1
   106    44    45    2
   107    43    42    1
   108   146   147   ar
   109   146   145    1
   110    42    39    1
   111    41    40    2
   112   158   156   ar
   113   145   142    1
   114    39    40    1
   115    39    38    1
   116   142   141    1
   117   142   143    1
   118   157   156   ar
   119   156   155    1
   120   143   144    2
   121   143   151   am
   122    38    34   am
   123   151   152    1
   124   155   152    1
   125    34    35    2
   126    34    33    1
   127   152   153    1
   128    23    22    2
   129    19    17   ar
   130    33    36    1
   131    33    32    1
   132    18    17   ar
   133   153   154    2
   134    36    37    1
   135    17    16    1
   136    22    32   am
   137    22    21    1
   138    24    21    1
   139    24    25    1
   140    21    20    1
   141    20    14   am
   142    16    13    1
   143    25    27   ar
   144    25    26   ar
   145    27    29   ar
   146    14    13    1
   147    14    15    2
   148    13    12    1
   149    26    28   ar
   150    29    30   ar
   151    28    30   ar
   152    30    31    1
