@<TRIPOS>MOLECULE
tmp/4bwpA00.pdb
 180 173 0 0 0
SMALL
GASTEIGER

@<TRIPOS>ATOM
      1  N         38.8240   11.7340   -1.6250 N.3    13  LEU13      -0.1231
      2  CA        39.8800   12.4190   -2.3280 C.3    13  LEU13       0.1693
      3  C         40.6550   13.3190   -1.3800 C.2    13  LEU13       0.2592
      4  O         40.0770   13.9600   -0.5020 O.2    13  LEU13      -0.2718
      5  CB        39.3030   13.2270   -3.4840 C.3    13  LEU13       0.0284
      6  CG        39.0190   12.4440   -4.7690 C.3    13  LEU13       0.0019
      7  CD1       39.9420   11.2400   -4.9630 C.3    13  LEU13       0.0001
      8  CD2       37.5570   12.0470   -4.7880 C.3    13  LEU13       0.0001
      9  N         41.9710   13.3610   -1.5510 N.am   14  GLU14      -0.1966
     10  CA        42.7720   14.3180   -0.8000 C.3    14  GLU14       0.1718
     11  C         43.6210   15.2630   -1.6770 C.2    14  GLU14       0.2458
     12  O         44.0770   14.8740   -2.7550 O.2    14  GLU14      -0.2730
     13  CB        43.5850   13.6180    0.3020 C.3    14  GLU14       0.0428
     14  CG        44.6660   12.6540   -0.1550 C.3    14  GLU14       0.1163
     15  CD        45.5260   12.1650    1.0100 C.2    14  GLU14       0.3649
     16  OE1       45.5860   12.8510    2.0620 O.co2  14  GLU14      -0.2457
     17  OE2       46.1480   11.0870    0.8770 O.co2  14  GLU14      -0.2457
     18  N         43.8290   16.5100   -1.2060 N.am   15  PRO15      -0.2716
     19  CA        43.3770   17.0150    0.1040 C.3    15  PRO15       0.1521
     20  C         41.8700   17.2170    0.2020 C.2    15  PRO15       0.2440
     21  O         41.2040   17.3380   -0.8290 O.2    15  PRO15      -0.2731
     22  CB        44.0910   18.3540    0.2280 C.3    15  PRO15       0.0310
     23  CG        44.2860   18.7820   -1.1830 C.3    15  PRO15       0.0237
     24  CD        44.5960   17.5260   -1.9380 C.3    15  PRO15       0.0939
     25  N         41.3330   17.2450    1.4400 N.am   16  PRO16      -0.2716
     26  CA        39.8830   17.1950    1.6030 C.3    16  PRO16       0.1536
     27  C         39.2050   18.3720    0.9390 C.2    16  PRO16       0.2598
     28  O         39.7470   19.4840    0.9320 O.2    16  PRO16      -0.2715
     29  CB        39.6900   17.2770    3.1240 C.3    16  PRO16       0.0310
     30  CG        40.9070   17.9710    3.6190 C.3    16  PRO16       0.0237
     31  CD        42.0130   17.4690    2.7300 C.3    16  PRO16       0.0939
     32  N         38.0260   18.1260    0.3800 N.am   17  ALA17      -0.1964
     33  CA        37.2010   19.2200   -0.1120 C.3    17  ALA17       0.1728
     34  C         37.0830   20.3470    0.9130 C.2    17  ALA17       0.2616
     35  O         36.9190   20.1100    2.1110 O.2    17  ALA17      -0.2715
     36  CB        35.8260   18.7330   -0.5050 C.3    17  ALA17       0.0334
     37  N         37.1990   21.5730    0.4200 N.am   18  GLN18      -0.1977
     38  CA        37.0050   22.7720    1.2140 C.3    18  GLN18       0.1601
     39  C         35.5070   22.9470    1.5080 C.2    18  GLN18       0.2287
     40  O         34.6680   22.5200    0.7130 O.2    18  GLN18      -0.2864
     41  CB        37.5560   23.9690    0.4350 C.3    18  GLN18       0.0394
     42  CG        37.6270   25.2900    1.1950 C.3    18  GLN18       0.0908
     43  CD        38.2750   26.3980    0.3560 C.2    18  GLN18       0.2608
     44  OE1       38.2920   26.3280   -0.8760 O.2    18  GLN18      -0.2717
     45  NE2       38.7970   27.4320    1.0240 N.am   18  GLN18      -0.0878
     46  N         31.7740   19.9100    3.1620 N.3    28  ALA28      -0.1245
     47  CA        31.6820   19.0990    1.9650 C.3    28  ALA28       0.1562
     48  C         32.8820   18.1730    1.8130 C.2    28  ALA28       0.2260
     49  O         33.9910   18.5010    2.2400 O.2    28  ALA28      -0.2867
     50  CB        31.5060   19.9750    0.7370 C.3    28  ALA28       0.0290
     51  N         34.5890   15.3170   -1.2920 N.3    30  THR30      -0.1218
     52  CA        34.4340   14.8140   -2.6590 C.3    30  THR30       0.1862
     53  C         34.9770   13.3960   -2.7590 C.2    30  THR30       0.2287
     54  O         35.9550   13.0660   -2.1160 O.2    30  THR30      -0.2866
     55  CB        35.0480   15.7420   -3.7320 C.3    30  THR30       0.1770
     56  OG1       36.4760   15.6930   -3.6760 O.3    30  THR30      -0.2211
     57  CG2       34.5730   17.1590   -3.5350 C.3    30  THR30       0.0375
     58  N         33.4900   10.7370  -10.2080 N.3    43  CYS43      -0.1235
     59  CA        33.7570   11.6280   -9.0780 C.3    43  CYS43       0.1677
     60  C         32.4680   12.2820   -8.6400 C.2    43  CYS43       0.2270
     61  O         31.7580   12.8530   -9.4530 O.2    43  CYS43      -0.2867
     62  CB        34.7400   12.7270   -9.4610 C.3    43  CYS43       0.0956
     63  SG        34.8060   14.0930   -8.2750 S.3    43  CYS43      -0.0801
     64  N         30.5240   14.8030   -5.5620 N.3    45  ARG45      -0.1245
     65  CA        30.6930   15.7760   -4.4770 C.3    45  ARG45       0.1563
     66  C         29.4940   15.7320   -3.5760 C.2    45  ARG45       0.2260
     67  O         28.3870   15.8260   -4.0690 O.2    45  ARG45      -0.2867
     68  CB        30.8080   17.1890   -5.0410 C.3    45  ARG45       0.0307
     69  CG        31.9730   17.3470   -5.9760 C.3    45  ARG45       0.0489
     70  CD        32.1180   18.7240   -6.5630 C.3    45  ARG45       0.2205
     71  NE        33.2510   18.6660   -7.4730 N.pl3  45  ARG45      -0.0865
     72  CZ        34.4600   19.1230   -7.1890 C.cat  45  ARG45       0.5346
     73  NH1       34.6730   19.7260   -6.0270 N.pl3  45  ARG45       0.1354
     74  NH2       35.4390   18.9950   -8.0790 N.pl3  45  ARG45       0.1354
     75  N         35.1640   19.6330  -16.7880 N.3    73  VAL73      -0.1245
     76  CA        34.8140   18.3760  -16.1800 C.3    73  VAL73       0.1561
     77  C         33.3200   18.2090  -16.3680 C.2    73  VAL73       0.2260
     78  O         32.5420   19.0630  -15.9610 O.2    73  VAL73      -0.2867
     79  CB        35.1010   18.4310  -14.6810 C.3    73  VAL73       0.0252
     80  CG1       34.6850   17.1350  -14.0200 C.3    73  VAL73       0.0019
     81  CG2       36.5600   18.7190  -14.4260 C.3    73  VAL73       0.0019
     82  N         30.4250   13.8200  -11.3280 N.3    93  TYR93      -0.1227
     83  CA        31.2360   14.2760  -12.4380 C.3    93  TYR93       0.1736
     84  C         32.0950   13.1510  -12.9290 C.2    93  TYR93       0.2595
     85  O         32.3900   12.2410  -12.1870 O.2    93  TYR93      -0.2718
     86  CB        32.1980   15.3310  -11.9470 C.3    93  TYR93       0.0548
     87  CG        31.5380   16.5820  -11.5320 C.ar   93  TYR93      -0.0200
     88  CD1       31.2660   17.5650  -12.4500 C.ar   93  TYR93      -0.0009
     89  CD2       31.1680   16.7730  -10.2180 C.ar   93  TYR93      -0.0009
     90  CE1       30.6430   18.7230  -12.0600 C.ar   93  TYR93       0.0417
     91  CE2       30.5500   17.9210   -9.8110 C.ar   93  TYR93       0.0417
     92  CZ        30.3010   18.8970  -10.7280 C.ar   93  TYR93       0.1957
     93  OH        29.6680   20.0170  -10.2930 O.3    93  TYR93      -0.2866
     94  N         32.5520   13.2330  -14.1640 N.am   94  ASP94      -0.1960
     95  CA        33.6390   12.3860  -14.6160 C.3    94  ASP94       0.1840
     96  C         34.8890   12.4150  -13.7380 C.2    94  ASP94       0.2622
     97  O         35.3370   13.4740  -13.3030 O.2    94  ASP94      -0.2715
     98  CB        34.0130   12.7550  -16.0400 C.3    94  ASP94       0.1450
     99  CG        33.2950   11.9260  -17.0330 C.2    94  ASP94       0.3671
    100  OD1       32.5860   10.9970  -16.5630 O.co2  94  ASP94      -0.2456
    101  OD2       33.4610   12.1690  -18.2520 O.co2  94  ASP94      -0.2456
    102  N         35.4550   11.2420  -13.4950 N.am   95  TYR95      -0.1960
    103  CA        36.6410   11.1650  -12.6600 C.3    95  TYR95       0.1771
    104  C         37.8750   11.1450  -13.5010 C.2    95  TYR95       0.2619
    105  O         38.0340   10.3050  -14.3910 O.2    95  TYR95      -0.2715
    106  CB        36.6090    9.9600  -11.7570 C.3    95  TYR95       0.0574
    107  CG        37.8270    9.6970  -10.9400 C.ar   95  TYR95      -0.0198
    108  CD1       38.1130   10.4440   -9.8080 C.ar   95  TYR95      -0.0009
    109  CD2       38.6670    8.6640  -11.2640 C.ar   95  TYR95      -0.0009
    110  CE1       39.2250   10.1890   -9.0350 C.ar   95  TYR95       0.0417
    111  CE2       39.7640    8.3650  -10.4700 C.ar   95  TYR95       0.0417
    112  CZ        40.0460    9.1490   -9.3650 C.ar   95  TYR95       0.1957
    113  OH        41.1590    8.9120   -8.5920 O.3    95  TYR95      -0.2866
    114  N         38.7190   12.1360  -13.2390 N.am   96  HIS96      -0.1973
    115  CA        39.9870   12.3020  -13.9290 C.3    96  HIS96       0.1656
    116  C         40.9880   12.0140  -12.8700 C.2    96  HIS96       0.2291
    117  O         40.9860   12.6630  -11.8120 O.2    96  HIS96      -0.2864
    118  CB        40.1660   13.7120  -14.4710 C.3    96  HIS96       0.0771
    119  CG        39.0140   14.1850  -15.3360 C.ar   96  HIS96       0.0820
    120  ND1       38.8420   13.7590  -16.5940 N.ar   96  HIS96      -0.2267
    121  CD2       37.9710   15.0920  -15.0800 C.ar   96  HIS96       0.1154
    122  CE1       37.7460   14.3530  -17.1280 C.ar   96  HIS96       0.1986
    123  NE2       37.2190   15.1680  -16.2010 N.ar   96  HIS96      -0.2212
    124  N         44.7010   13.9270  -11.1260 N.3    99  SER99      -0.1202
    125  CA        44.5230   15.3530  -11.3440 C.3    99  SER99       0.2020
    126  C         44.6210   16.1270  -10.0230 C.2    99  SER99       0.2619
    127  O         44.2570   15.6220   -8.9530 O.2    99  SER99      -0.2717
    128  CB        43.1690   15.5880  -11.9980 C.3    99  SER99       0.2103
    129  OG        42.1170   15.1520  -11.1760 O.3    99  SER99      -0.2182
    130  N         45.1150   17.3550  -10.1020 N.am  100  GLN100     -0.1965
    131  CA        45.1840   18.2400   -8.9260 C.3   100  GLN100      0.1733
    132  C         44.6450   19.6350   -9.2230 C.2   100  GLN100      0.2617
    133  O         44.6320   20.0830  -10.3910 O.2   100  GLN100     -0.2715
    134  CB        46.6120   18.3370   -8.3940 C.3   100  GLN100      0.0408
    135  CG        47.6050   18.9030   -9.4070 C.3   100  GLN100      0.0908
    136  CD        49.0260   18.9600   -8.8870 C.2   100  GLN100      0.2608
    137  OE1       49.9750   18.8210   -9.6670 O.2   100  GLN100     -0.2717
    138  NE2       49.1850   19.1600   -7.5690 N.am  100  GLN100     -0.0878
    139  N         44.2170   20.3160   -8.1600 N.am  101  THR101     -0.1951
    140  CA        43.6690   21.6530   -8.3240 C.3   101  THR101      0.1897
    141  C         44.7750   22.5660   -8.7260 C.2   101  THR101      0.2313
    142  O         45.9450   22.3560   -8.3870 O.2   101  THR101     -0.2863
    143  CB        43.0710   22.2540   -7.0490 C.3   101  THR101      0.1794
    144  OG1       44.0660   22.2580   -6.0190 O.3   101  THR101     -0.2208
    145  CG2       41.8850   21.4760   -6.6210 C.3   101  THR101      0.0378
    146  N         46.6890   24.0520   -5.9480 N.3   104  ALA104     -0.1245
    147  CA        47.7030   23.1990   -5.3710 C.3   104  ALA104      0.1562
    148  C         48.9410   23.1840   -6.2430 C.2   104  ALA104      0.2260
    149  O         50.0570   23.2260   -5.7230 O.2   104  ALA104     -0.2867
    150  CB        47.1670   21.7870   -5.1800 C.3   104  ALA104      0.0290
    151  N         41.0030   27.1820   -6.7110 N.3   151  THR151     -0.1203
    152  CA        40.4200   25.9180   -6.2350 C.3   151  THR151      0.1994
    153  C         39.4550   25.2530   -7.2250 C.2   151  THR151      0.2617
    154  O         39.4390   24.0250   -7.3610 O.2   151  THR151     -0.2717
    155  CB        39.7050   26.0910   -4.9110 C.3   151  THR151      0.1784
    156  OG1       38.6740   27.0570   -5.0810 O.3   151  THR151     -0.2211
    157  CG2       40.6770   26.5580   -3.8630 C.3   151  THR151      0.0376
    158  N         38.6740   26.0560   -7.9370 N.am  152  LYS152     -0.1979
    159  CA        37.6740   25.4990   -8.8490 C.3   152  LYS152      0.1596
    160  C         38.1770   24.9440  -10.1800 C.2   152  LYS152      0.2287
    161  O         37.4070   24.3420  -10.9380 O.2   152  LYS152     -0.2864
    162  CB        36.6000   26.5020   -9.1740 C.3   152  LYS152      0.0298
    163  CG        35.9540   27.1310   -7.9720 C.3   152  LYS152      0.0038
    164  CD        35.3410   26.1220   -7.0400 C.3   152  LYS152      0.0206
    165  CE        35.0610   26.8570   -5.7680 C.3   152  LYS152      0.1093
    166  NZ        35.5290   25.9440   -4.7130 N.3   152  LYS152     -0.1314
    167  N         40.8980   22.3660  -12.0750 N.3   154  ILE154     -0.1245
    168  CA        41.8360   21.2720  -11.8580 C.3   154  ILE154      0.1561
    169  C         42.6960   21.0040  -13.0670 C.2   154  ILE154      0.2260
    170  O         42.2320   21.0900  -14.2060 O.2   154  ILE154     -0.2867
    171  CB        41.1340   19.9750  -11.4510 C.3   154  ILE154      0.0252
    172  CG1       40.1550   19.5250  -12.5440 C.3   154  ILE154      0.0019
    173  CG2       40.4480   20.1690  -10.1020 C.3   154  ILE154      0.0019
    174  CD1       39.6710   18.1090  -12.3840 C.3   154  ILE154      0.0001
    175  N         36.4540   22.4280  -12.7620 N.3   163  SER163     -0.1217
    176  CA        36.1270   21.2610  -11.9430 C.3   163  SER163      0.1889
    177  C         34.6720   21.0270  -11.5010 C.2   163  SER163      0.2288
    178  O         34.1980   19.8740  -11.5600 O.2   163  SER163     -0.2866
    179  CB        37.0540   21.2030  -10.7220 C.3   163  SER163      0.2089
    180  OG        37.0580   22.4180  -10.0110 O.3   163  SER163     -0.2183
@<TRIPOS>BOND
     1   101    99   ar
     2   122   120   ar
     3   122   123   ar
     4    99   100   ar
     5    99    98    1
     6    75    76    1
     7   120   119   ar
     8    77    76    1
     9    77    78    2
    10   123   121   ar
    11    76    79    1
    12    98    95    1
    13   119   121   ar
    14   119   118    1
    15    79    81    1
    16    79    80    1
    17    95    94    1
    18    95    96    1
    19   118   115    1
    20   105   104    2
    21   170   169    2
    22    94    84   am
    23   115   114    1
    24   115   116    1
    25    96   102   am
    26    96    97    2
    27   104   114   am
    28   104   103    1
    29   102   103    1
    30   169   168    1
    31    84    83    1
    32    84    85    2
    33   116   117    2
    34   175   176    1
    35   103   106    1
    36   172   174    1
    37   172   171    1
    38    88    90   ar
    39    88    87   ar
    40    83    86    1
    41    83    82    1
    42   167   168    1
    43    90    92   ar
    44   128   125    1
    45   128   129    1
    46    86    87    1
    47   176   177    1
    48   176   179    1
    49   168   171    1
    50   106   107    1
    51   178   177    2
    52    87    89   ar
    53   171   173    1
    54   125   124    1
    55   125   126    1
    56   109   107   ar
    57   109   111   ar
    58   107   108   ar
    59   161   160    2
    60    92    93    1
    61    92    91   ar
    62   179   180    1
    63   111   112   ar
    64   133   132    2
    65    89    91   ar
    66    58    59    1
    67   160   159    1
    68   130   126   am
    69   130   131    1
    70   126   127    2
    71   108   110   ar
    72   137   136    2
    73    62    59    1
    74    62    63    1
    75    61    60    2
    76   135   136    1
    77   135   134    1
    78   112   110   ar
    79   112   113    1
    80   132   131    1
    81   132   139   am
    82   162   159    1
    83   162   163    1
    84    59    60    1
    85   131   134    1
    86   136   138   am
    87   159   158    1
    88   141   142    2
    89   141   140    1
    90   140   139    1
    91   140   143    1
    92    74    72    1
    93   163   164    1
    94   158   153   am
    95    71    72    2
    96    71    70    1
    97   154   153    2
    98   153   152    1
    99    72    73    1
   100   143   145    1
   101   143   144    1
   102   164   165    1
   103   151   152    1
   104    70    69    1
   105   148   149    2
   106   148   147    1
   107   152   155    1
   108    69    68    1
   109   146   147    1
   110   165   166    1
   111    64    65    1
   112   147   150    1
   113   156   155    1
   114    68    65    1
   115     7     6    1
   116   155   157    1
   117     8     6    1
   118     6     5    1
   119    65    66    1
   120    67    66    2
   121    55    56    1
   122    55    57    1
   123    55    52    1
   124     5     2    1
   125    53    52    1
   126    53    54    2
   127    12    11    2
   128    52    51    1
   129     2     1    1
   130     2     3    1
   131    24    18    1
   132    24    23    1
   133    11    18   am
   134    11    10    1
   135     9     3   am
   136     9    10    1
   137     3     4    2
   138    18    19    1
   139    23    22    1
   140    44    43    2
   141    21    20    2
   142    10    13    1
   143    36    33    1
   144    14    13    1
   145    14    15    1
   146    33    32    1
   147    33    34    1
   148    19    20    1
   149    19    22    1
   150    20    25   am
   151    43    45   am
   152    43    42    1
   153    32    27   am
   154    37    34   am
   155    37    38    1
   156    41    42    1
   157    41    38    1
   158    40    39    2
   159    50    47    1
   160    17    15   ar
   161    34    35    2
   162    28    27    2
   163    27    26    1
   164    15    16   ar
   165    38    39    1
   166    25    26    1
   167    25    31    1
   168    26    29    1
   169    48    47    1
   170    48    49    2
   171    47    46    1
   172    31    30    1
   173    29    30    1
