@<TRIPOS>MOLECULE
tmp/4bx5B00.pdb
 154 145 0 0 0
SMALL
GASTEIGER

@<TRIPOS>ATOM
      1  N         -8.1780   17.3460  -16.6350 N.3     8  ASN8       -0.1240
      2  CA        -8.1820   16.1020  -17.3980 C.3     8  ASN8        0.1653
      3  C         -8.6550   16.3440  -18.8220 C.2     8  ASN8        0.2266
      4  O         -8.9670   17.4720  -19.2140 O.2     8  ASN8       -0.2867
      5  CB        -8.9470   14.9490  -16.7240 C.3     8  ASN8        0.1155
      6  CG       -10.4460   15.0760  -16.8100 C.2     8  ASN8        0.2627
      7  OD1      -10.9860   15.9870  -17.4350 O.2     8  ASN8       -0.2716
      8  ND2      -11.1450   14.1470  -16.1500 N.am    8  ASN8       -0.0877
      9  N        -11.2330   15.7520  -20.3790 N.3    10  LEU10      -0.1245
     10  CA       -12.6190   16.1560  -20.5580 C.3    10  LEU10       0.1561
     11  C        -12.8720   17.5530  -20.0220 C.2    10  LEU10       0.2260
     12  O        -13.9990   18.0480  -20.1160 O.2    10  LEU10      -0.2867
     13  CB       -13.5320   15.1860  -19.8320 C.3    10  LEU10       0.0270
     14  CG       -13.3330   13.7220  -20.2080 C.3    10  LEU10       0.0019
     15  CD1      -14.2670   12.8460  -19.3700 C.3    10  LEU10       0.0001
     16  CD2      -13.5480   13.5190  -21.7170 C.3    10  LEU10       0.0001
     17  N        -12.3530   18.5630  -16.7540 N.3    12  SER12      -0.1217
     18  CA       -12.5760   18.6070  -15.3050 C.3    12  SER12       0.1889
     19  C        -11.3540   19.2380  -14.6500 C.2    12  SER12       0.2288
     20  O        -10.2390   19.0650  -15.1300 O.2    12  SER12      -0.2866
     21  CB       -12.7710   17.1950  -14.7420 C.3    12  SER12       0.2089
     22  OG       -13.8330   16.5150  -15.3900 O.3    12  SER12      -0.2183
     23  N        -12.2910   19.1090   -6.5460 N.3    28  TYR28      -0.1241
     24  CA       -12.4620   18.5670   -7.8690 C.3    28  TYR28       0.1605
     25  C        -13.7620   19.1130   -8.4320 C.2    28  TYR28       0.2264
     26  O        -14.7770   19.1250   -7.7430 O.2    28  TYR28      -0.2867
     27  CB       -12.5210   17.0360   -7.7900 C.3    28  TYR28       0.0534
     28  CG       -12.2910   16.3650   -9.1300 C.ar   28  TYR28      -0.0201
     29  CD1      -13.3260   16.2120  -10.0590 C.ar   28  TYR28      -0.0009
     30  CD2      -11.0300   15.9160   -9.4860 C.ar   28  TYR28      -0.0009
     31  CE1      -13.0990   15.6080  -11.2820 C.ar   28  TYR28       0.0417
     32  CE2      -10.8000   15.3030  -10.7130 C.ar   28  TYR28       0.0417
     33  CZ       -11.8250   15.1720  -11.6060 C.ar   28  TYR28       0.1957
     34  OH       -11.5890   14.5610  -12.8370 O.3    28  TYR28      -0.2866
     35  N        -16.0960   18.3720  -11.7760 N.3    30  SER30      -0.1217
     36  CA       -16.1730   17.4400  -12.9070 C.3    30  SER30       0.1889
     37  C        -16.8270   18.1340  -14.0960 C.2    30  SER30       0.2288
     38  O        -17.6600   19.0270  -13.9240 O.2    30  SER30      -0.2866
     39  CB       -16.9270   16.1480  -12.5340 C.3    30  SER30       0.2089
     40  OG       -16.7140   15.1160  -13.5020 O.3    30  SER30      -0.2183
     41  N        -18.2820   16.1350  -16.3230 N.3    32  VAL32      -0.1231
     42  CA       -19.2800   15.1290  -16.7100 C.3    32  VAL32       0.1692
     43  C        -19.8940   14.4080  -15.5000 C.2    32  VAL32       0.2593
     44  O        -19.3950   14.5110  -14.3820 O.2    32  VAL32      -0.2718
     45  CB       -18.6610   14.0520  -17.6430 C.3    32  VAL32       0.0266
     46  CG1      -18.1880   14.6750  -18.9620 C.3    32  VAL32       0.0020
     47  CG2      -17.5120   13.3130  -16.9290 C.3    32  VAL32       0.0020
     48  N        -20.9740   13.6640  -15.7400 N.am   33  GLY33      -0.1942
     49  CA       -21.5880   12.8360  -14.7130 C.3    33  GLY33       0.2014
     50  C        -22.5910   13.6020  -13.8720 C.2    33  GLY33       0.2639
     51  O        -22.8330   14.7750  -14.1350 O.2    33  GLY33      -0.2714
     52  N        -23.1860   12.9330  -12.8830 N.am   34  ASN34      -0.1958
     53  CA       -24.1410   13.5530  -11.9670 C.3    34  ASN34       0.1819
     54  C        -23.4030   14.3770  -10.9190 C.2    34  ASN34       0.2621
     55  O        -23.2340   13.9560   -9.7660 O.2    34  ASN34      -0.2715
     56  CB       -25.0100   12.4800  -11.2980 C.3    34  ASN34       0.1195
     57  CG       -26.0660   13.0720  -10.3860 C.2    34  ASN34       0.2630
     58  OD1      -26.3000   14.2790  -10.4020 O.2    34  ASN34      -0.2716
     59  ND2      -26.7130   12.2210   -9.5820 N.am   34  ASN34      -0.0877
     60  N        -22.9520   15.5540  -11.3310 N.am   35  ALA35      -0.1977
     61  CA       -22.0970   16.3660  -10.4780 C.3    35  ALA35       0.1597
     62  C        -22.1780   17.8370  -10.8590 C.2    35  ALA35       0.2287
     63  O        -22.2110   18.1830  -12.0460 O.2    35  ALA35      -0.2864
     64  CB       -20.6610   15.8720  -10.5680 C.3    35  ALA35       0.0319
     65  N        -19.2040   12.0320   -4.2530 N.3    64  TRP64      -0.1241
     66  CA       -19.9880   12.9810   -5.0590 C.3    64  TRP64       0.1605
     67  C        -21.2020   13.5510   -4.3030 C.2    64  TRP64       0.2264
     68  O        -22.3520   13.5080   -4.7880 O.2    64  TRP64      -0.2867
     69  CB       -20.4030   12.3150   -6.3630 C.3    64  TRP64       0.0550
     70  CG       -19.1750   11.9220   -7.1620 C.ar   64  TRP64       0.0003
     71  CD1      -18.7150   10.6600   -7.3890 C.ar   64  TRP64       0.0946
     72  CD2      -18.2870   12.8110   -7.8540 C.ar   64  TRP64       0.0152
     73  NE1      -17.5680   10.7080   -8.1730 N.ar   64  TRP64      -0.2442
     74  CE2      -17.2930   12.0160   -8.4840 C.ar   64  TRP64       0.0810
     75  CE3      -18.2290   14.2040   -7.9920 C.ar   64  TRP64       0.0012
     76  CZ2      -16.2390   12.5720   -9.2270 C.ar   64  TRP64       0.0191
     77  CZ3      -17.1850   14.7540   -8.7210 C.ar   64  TRP64       0.0001
     78  CH2      -16.2010   13.9390   -9.3330 C.ar   64  TRP64       0.0015
     79  N        -24.9260   12.2430   -5.4940 N.3    71  ALA71      -0.1245
     80  CA       -25.0500   11.1700   -6.4510 C.3    71  ALA71       0.1562
     81  C        -24.9260    9.8010   -5.8060 C.2    71  ALA71       0.2260
     82  O        -24.9790    8.7980   -6.5100 O.2    71  ALA71      -0.2867
     83  CB       -23.9690   11.3230   -7.5290 C.3    71  ALA71       0.0290
     84  N        -22.3270    8.2180   -4.6830 N.3    73  SER73      -0.1217
     85  CA       -21.2520    7.5760   -5.4120 C.3    73  SER73       0.1889
     86  C        -19.9140    8.2300   -5.0970 C.2    73  SER73       0.2288
     87  O        -19.8460    9.3690   -4.6390 O.2    73  SER73      -0.2866
     88  CB       -21.5140    7.6520   -6.9130 C.3    73  SER73       0.2089
     89  OG       -21.5220    8.9980   -7.3470 O.3    73  SER73      -0.2183
     90  N        -15.5990    8.3250   -6.5560 N.3    75  THR75      -0.1218
     91  CA       -14.5370    7.9230   -7.5020 C.3    75  THR75       0.1862
     92  C        -13.1950    7.9460   -6.8260 C.2    75  THR75       0.2287
     93  O        -12.8900    8.8540   -6.0420 O.2    75  THR75      -0.2866
     94  CB       -14.4720    8.8710   -8.7280 C.3    75  THR75       0.1770
     95  OG1      -15.7570    8.8850   -9.3780 O.3    75  THR75      -0.2211
     96  CG2      -13.4010    8.4450   -9.7180 C.3    75  THR75       0.0375
     97  N         -9.1140    7.7460   -7.9860 N.3    77  TRP77      -0.1241
     98  CA        -8.1070    7.7680   -9.0370 C.3    77  TRP77       0.1605
     99  C         -6.7910    7.2340   -8.4770 C.2    77  TRP77       0.2264
    100  O         -6.3510    7.6640   -7.4390 O.2    77  TRP77      -0.2867
    101  CB        -7.8400    9.2010   -9.5160 C.3    77  TRP77       0.0550
    102  CG        -8.9270    9.8760  -10.3330 C.ar   77  TRP77       0.0003
    103  CD1       -8.9470   10.0460  -11.6890 C.ar   77  TRP77       0.0946
    104  CD2      -10.1140   10.5240   -9.8350 C.ar   77  TRP77       0.0152
    105  NE1      -10.0890   10.7280  -12.0670 N.ar   77  TRP77      -0.2442
    106  CE2      -10.7900   11.0760  -10.9420 C.ar   77  TRP77       0.0810
    107  CE3      -10.6320   10.7420   -8.5570 C.ar   77  TRP77       0.0012
    108  CZ2      -12.0010   11.7650  -10.8110 C.ar   77  TRP77       0.0191
    109  CZ3      -11.8390   11.4370   -8.4310 C.ar   77  TRP77       0.0001
    110  CH2      -12.4940   11.9480   -9.5510 C.ar   77  TRP77       0.0015
    111  N         -9.2460    5.0270  -12.9130 N.3    93  TRP93      -0.1241
    112  CA       -10.2050    5.3290  -11.8670 C.3    93  TRP93       0.1605
    113  C        -11.2910    4.2890  -11.7690 C.2    93  TRP93       0.2264
    114  O        -11.5660    3.5500  -12.7350 O.2    93  TRP93      -0.2867
    115  CB       -10.8020    6.7330  -12.0460 C.3    93  TRP93       0.0550
    116  CG       -11.4000    7.0300  -13.3770 C.ar   93  TRP93       0.0003
    117  CD1      -10.8100    7.7400  -14.3870 C.ar   93  TRP93       0.0946
    118  CD2      -12.7060    6.6900  -13.8350 C.ar   93  TRP93       0.0152
    119  NE1      -11.6820    7.8520  -15.4490 N.ar   93  TRP93      -0.2442
    120  CE2      -12.8560    7.2320  -15.1270 C.ar   93  TRP93       0.0810
    121  CE3      -13.7760    5.9890  -13.2760 C.ar   93  TRP93       0.0012
    122  CZ2      -14.0230    7.0630  -15.8810 C.ar   93  TRP93       0.0191
    123  CZ3      -14.9330    5.8410  -14.0020 C.ar   93  TRP93       0.0001
    124  CH2      -15.0420    6.3590  -15.3150 C.ar   93  TRP93       0.0015
    125  N        -15.3430    4.2400  -10.2680 N.3    95  LEU95      -0.1245
    126  CA       -16.4800    5.0060   -9.7570 C.3    95  LEU95       0.1561
    127  C        -17.5240    4.0210   -9.2450 C.2    95  LEU95       0.2260
    128  O        -18.0680    3.2550  -10.0480 O.2    95  LEU95      -0.2867
    129  CB       -17.0080    5.9240  -10.8630 C.3    95  LEU95       0.0270
    130  CG       -18.3940    6.5450  -10.7400 C.3    95  LEU95       0.0019
    131  CD1      -18.5820    7.2490   -9.4420 C.3    95  LEU95       0.0001
    132  CD2      -18.6640    7.5350  -11.8980 C.3    95  LEU95       0.0001
    133  N        -21.0850    3.3650   -7.2950 N.3    97  SER97      -0.1217
    134  CA       -22.3570    3.8900   -6.7970 C.3    97  SER97       0.1889
    135  C        -22.9470    2.9490   -5.7770 C.2    97  SER97       0.2288
    136  O        -22.8350    1.7290   -5.9040 O.2    97  SER97      -0.2866
    137  CB       -23.3450    4.0430   -7.9580 C.3    97  SER97       0.2089
    138  OG       -22.8990    4.9780   -8.9280 O.3    97  SER97      -0.2183
    139  N        -17.9660    1.6220  -12.3850 N.3   109  LEU109     -0.1245
    140  CA       -17.3780    1.9900  -13.6680 C.3   109  LEU109      0.1561
    141  C        -15.8630    2.1010  -13.5510 C.2   109  LEU109      0.2260
    142  O        -15.3310    2.4670  -12.5060 O.2   109  LEU109     -0.2867
    143  CB       -17.9440    3.3310  -14.1000 C.3   109  LEU109      0.0270
    144  CG       -19.4380    3.3600  -14.4420 C.3   109  LEU109      0.0019
    145  CD1      -19.9420    4.7740  -14.5210 C.3   109  LEU109      0.0001
    146  CD2      -19.6720    2.6480  -15.7730 C.3   109  LEU109      0.0001
    147  N         -7.8870    8.6260  -16.9000 N.3   113  ASP113     -0.1239
    148  CA        -7.8030   10.0740  -17.0940 C.3   113  ASP113      0.1674
    149  C         -6.3410   10.4820  -17.0930 C.2   113  ASP113      0.2266
    150  O         -5.5480   10.0010  -16.2800 O.2   113  ASP113     -0.2867
    151  CB        -8.5040   10.8490  -15.9680 C.3   113  ASP113      0.1410
    152  CG       -10.0330   10.7780  -15.9820 C.2   113  ASP113      0.3668
    153  OD1      -10.6410   10.2640  -16.9650 O.co2 113  ASP113     -0.2456
    154  OD2      -10.6290   11.2950  -14.9830 O.co2 113  ASP113     -0.2456
@<TRIPOS>BOND
     1    16    14    1
     2    10     9    1
     3    10    11    1
     4    10    13    1
     5    14    13    1
     6    14    15    1
     7    12    11    2
     8     4     3    2
     9    46    45    1
    10     3     2    1
    11    45    47    1
    12    45    42    1
    13     7     6    2
    14     2     5    1
    15     2     1    1
    16   148   149    1
    17   148   147    1
    18   148   151    1
    19   149   150    2
    20   153   152   ar
    21     6     5    1
    22     6     8   am
    23    17    18    1
    24    42    41    1
    25    42    43    1
    26   152   151    1
    27   152   154   ar
    28   122   124   ar
    29   122   120   ar
    30   146   144    1
    31    48    43   am
    32    48    49    1
    33    43    44    2
    34   119   120   ar
    35   119   117   ar
    36    22    21    1
    37   124   123   ar
    38    18    21    1
    39    18    19    1
    40    20    19    2
    41   120   118   ar
    42    49    50    1
    43   145   144    1
    44   144   143    1
    45   117   116   ar
    46    51    50    2
    47   143   140    1
    48    37    38    2
    49    37    36    1
    50   123   121   ar
    51    50    52   am
    52   118   116   ar
    53   118   121   ar
    54   140   141    1
    55   140   139    1
    56   141   142    2
    57    40    39    1
    58   116   115    1
    59   111   112    1
    60    36    39    1
    61    36    35    1
    62    52    53    1
    63    34    33    1
    64   114   113    2
    65   105   103   ar
    66   105   106   ar
    67    63    62    2
    68   115   112    1
    69    53    56    1
    70    53    54    1
    71   132   130    1
    72   112   113    1
    73   103   102   ar
    74    33    31   ar
    75    33    32   ar
    76    60    54   am
    77    60    61    1
    78    56    57    1
    79    31    29   ar
    80   106   108   ar
    81   106   104   ar
    82    54    55    2
    83   129   130    1
    84   129   126    1
    85    62    61    1
    86   108   110   ar
    87   130   131    1
    88    32    30   ar
    89    64    61    1
    90    58    57    2
    91    57    59   am
    92   102   104   ar
    93   102   101    1
    94   125   126    1
    95    29    28   ar
    96   128   127    2
    97   104   107   ar
    98   126   127    1
    99    96    94    1
   100   110   109   ar
   101   101    98    1
   102    30    28   ar
   103    95    94    1
   104    78    76   ar
   105    78    77   ar
   106    76    74   ar
   107    28    27    1
   108    98    99    1
   109    98    97    1
   110   138   137    1
   111    94    91    1
   112    77    75   ar
   113   107   109   ar
   114    74    73   ar
   115    74    72   ar
   116    99   100    2
   117    25    24    1
   118    25    26    2
   119    73    71   ar
   120    75    72   ar
   121   137   134    1
   122    24    27    1
   123    24    23    1
   124    72    70   ar
   125    83    80    1
   126    91    92    1
   127    91    90    1
   128    71    70   ar
   129    89    88    1
   130   133   134    1
   131    70    69    1
   132    88    85    1
   133    92    93    2
   134   134   135    1
   135    82    81    2
   136    80    81    1
   137    80    79    1
   138    69    66    1
   139   136   135    2
   140    85    86    1
   141    85    84    1
   142    86    87    2
   143    66    67    1
   144    66    65    1
   145    68    67    2
