@<TRIPOS>MOLECULE
tmp/4bx7B00.pdb
 183 175 0 0 0
SMALL
GASTEIGER

@<TRIPOS>ATOM
      1  N         44.0440   59.0370   16.0920 N.3     8  ASN8       -0.1240
      2  CA        43.0280   58.0780   16.5310 C.3     8  ASN8        0.1653
      3  C         42.2430   58.5730   17.7370 C.2     8  ASN8        0.2266
      4  O         42.4650   59.6820   18.2210 O.2     8  ASN8       -0.2867
      5  CB        43.6380   56.7000   16.8100 C.3     8  ASN8        0.1155
      6  CG        44.6320   56.7080   17.9590 C.2     8  ASN8        0.2627
      7  OD1       44.8420   57.7290   18.6150 O.2     8  ASN8       -0.2716
      8  ND2       45.2490   55.5520   18.2130 N.am    8  ASN8       -0.0877
      9  N         42.4200   57.6560   20.7120 N.3    10  LEU10      -0.1245
     10  CA        43.2770   57.7540   21.8920 C.3    10  LEU10       0.1561
     11  C         44.0980   59.0410   21.8770 C.2    10  LEU10       0.2260
     12  O         44.7420   59.3880   22.8680 O.2    10  LEU10      -0.2867
     13  CB        44.2270   56.5540   21.9600 C.3    10  LEU10       0.0270
     14  CG        43.5920   55.1670   22.0550 C.3    10  LEU10       0.0019
     15  CD1       44.6720   54.0990   22.0340 C.3    10  LEU10       0.0001
     16  CD2       42.7390   55.0370   23.3170 C.3    10  LEU10       0.0001
     17  N         46.5610   59.4840   19.7650 N.3    12  SER12      -0.1217
     18  CA        47.8800   59.1270   19.2400 C.3    12  SER12       0.1889
     19  C         48.0350   59.6740   17.8220 C.2    12  SER12       0.2288
     20  O         47.0530   59.8260   17.0950 O.2    12  SER12      -0.2866
     21  CB        48.0830   57.6030   19.2660 C.3    12  SER12       0.2089
     22  OG        48.0530   57.0980   20.5950 O.3    12  SER12      -0.2183
     23  N         55.0550   57.1850   14.4360 N.3    28  TYR28      -0.1241
     24  CA        53.8740   57.0040   15.2660 C.3    28  TYR28       0.1605
     25  C         54.1740   57.4960   16.6720 C.2    28  TYR28       0.2264
     26  O         55.2260   57.1850   17.2310 O.2    28  TYR28      -0.2867
     27  CB        53.4950   55.5270   15.3080 C.3    28  TYR28       0.0534
     28  CG        52.0700   55.2720   15.7420 C.ar   28  TYR28      -0.0201
     29  CD1       51.7270   55.2370   17.0830 C.ar   28  TYR28      -0.0009
     30  CD2       51.0670   55.0680   14.8090 C.ar   28  TYR28      -0.0009
     31  CE1       50.4250   55.0030   17.4860 C.ar   28  TYR28       0.0417
     32  CE2       49.7600   54.8310   15.2010 C.ar   28  TYR28       0.0417
     33  CZ        49.4450   54.8010   16.5440 C.ar   28  TYR28       0.1957
     34  OH        48.1520   54.5710   16.9460 O.3    28  TYR28      -0.2866
     35  N         52.4140   57.4590   20.3980 N.3    30  SER30      -0.1217
     36  CA        51.3330   56.8850   21.1800 C.3    30  SER30       0.1889
     37  C         51.0120   57.7880   22.3630 C.2    30  SER30       0.2288
     38  O         51.9130   58.3350   23.0030 O.2    30  SER30      -0.2866
     39  CB        51.7190   55.4910   21.6700 C.3    30  SER30       0.2089
     40  OG        50.6030   54.8020   22.2070 O.3    30  SER30      -0.2183
     41  N         49.0500   56.5300   24.8280 N.3    32  VAL32      -0.1231
     42  CA        48.9730   55.5670   25.9210 C.3    32  VAL32       0.1692
     43  C         50.1380   54.5790   25.9640 C.2    32  VAL32       0.2593
     44  O         50.8680   54.3970   24.9880 O.2    32  VAL32      -0.2718
     45  CB        47.6780   54.7420   25.8220 C.3    32  VAL32       0.0266
     46  CG1       46.4660   55.6430   25.9630 C.3    32  VAL32       0.0020
     47  CG2       47.6160   53.9750   24.4950 C.3    32  VAL32       0.0020
     48  N         50.2950   53.9370   27.1150 N.am   33  GLY33      -0.1942
     49  CA        51.2280   52.8350   27.2580 C.3    33  GLY33       0.2014
     50  C         52.6790   53.2520   27.3710 C.2    33  GLY33       0.2639
     51  O         53.0120   54.4430   27.3960 O.2    33  GLY33      -0.2714
     52  N         53.5480   52.2490   27.4350 N.am   34  ASN34      -0.1958
     53  CA        54.9680   52.4880   27.6180 C.3    34  ASN34       0.1819
     54  C         55.5900   53.0040   26.3350 C.2    34  ASN34       0.2621
     55  O         56.2970   52.2800   25.6290 O.2    34  ASN34      -0.2715
     56  CB        55.6690   51.2130   28.0760 C.3    34  ASN34       0.1195
     57  CG        57.0900   51.4680   28.5410 C.2    34  ASN34       0.2630
     58  OD1       57.5680   52.6040   28.5190 O.2    34  ASN34      -0.2716
     59  ND2       57.7690   50.4120   28.9830 N.am   34  ASN34      -0.0877
     60  N         55.3110   54.2660   26.0390 N.am   35  ALA35      -0.1977
     61  CA        55.8430   54.9010   24.8520 C.3    35  ALA35       0.1597
     62  C         56.1710   56.3560   25.1420 C.2    35  ALA35       0.2287
     63  O         55.4720   57.0110   25.9150 O.2    35  ALA35      -0.2864
     64  CB        54.8420   54.8010   23.7140 C.3    35  ALA35       0.0319
     65  N         58.3420   49.0960   19.4870 N.3    64  TRP64      -0.1241
     66  CA        58.2970   50.1560   20.4780 C.3    64  TRP64       0.1605
     67  C         59.6560   50.3960   21.1070 C.2    64  TRP64       0.2264
     68  O         59.7910   50.4500   22.3330 O.2    64  TRP64      -0.2867
     69  CB        57.2530   49.8310   21.5360 C.3    64  TRP64       0.0550
     70  CG        55.8890   49.7880   20.9340 C.ar   64  TRP64       0.0003
     71  CD1       55.1500   48.6770   20.6460 C.ar   64  TRP64       0.0946
     72  CD2       55.1110   50.9100   20.5040 C.ar   64  TRP64       0.0152
     73  NE1       53.9540   49.0390   20.0790 N.ar   64  TRP64      -0.2442
     74  CE2       53.9070   50.4050   19.9730 C.ar   64  TRP64       0.0810
     75  CE3       55.3130   52.2910   20.5210 C.ar   64  TRP64       0.0012
     76  CZ2       52.9050   51.2360   19.4710 C.ar   64  TRP64       0.0191
     77  CZ3       54.3180   53.1140   20.0200 C.ar   64  TRP64       0.0001
     78  CH2       53.1320   52.5830   19.4990 C.ar   64  TRP64       0.0015
     79  N         60.1050   49.1920   25.0730 N.3    71  ALA71      -0.1245
     80  CA        58.9960   48.5060   25.7140 C.3    71  ALA71       0.1562
     81  C         58.9650   47.0220   25.3530 C.2    71  ALA71       0.2260
     82  O         58.0290   46.3160   25.7180 O.2    71  ALA71      -0.2867
     83  CB        57.6980   49.1610   25.3040 C.3    71  ALA71       0.0290
     84  N         58.2380   45.3340   22.6900 N.3    73  SER73      -0.1217
     85  CA        56.9880   44.9230   22.0800 C.3    73  SER73       0.1889
     86  C         56.8460   45.5060   20.6840 C.2    73  SER73       0.2288
     87  O         57.5980   46.3920   20.2750 O.2    73  SER73      -0.2866
     88  CB        55.8010   45.3400   22.9580 C.3    73  SER73       0.2089
     89  OG        55.9280   46.6780   23.4040 O.3    73  SER73      -0.2183
     90  N         53.6020   46.4280   17.6660 N.3    75  THR75      -0.1218
     91  CA        52.2140   46.4860   17.2650 C.3    75  THR75       0.1862
     92  C         52.1290   46.4500   15.7500 C.2    75  THR75       0.2287
     93  O         52.9040   47.1260   15.0690 O.2    75  THR75      -0.2866
     94  CB        51.5700   47.7890   17.7340 C.3    75  THR75       0.1770
     95  OG1       51.5990   47.8520   19.1650 O.3    75  THR75      -0.2211
     96  CG2       50.1250   47.8640   17.2580 C.3    75  THR75       0.0375
     97  N         49.0970   47.0430   12.7810 N.3    77  TRP77      -0.1241
     98  CA        47.7420   47.4770   12.4800 C.3    77  TRP77       0.1605
     99  C         47.3700   46.9070   11.1280 C.2    77  TRP77       0.2264
    100  O         48.1460   47.0080   10.1830 O.2    77  TRP77      -0.2867
    101  CB        47.6780   48.9980   12.3850 C.3    77  TRP77       0.0550
    102  CG        47.7360   49.7400   13.6920 C.ar   77  TRP77       0.0003
    103  CD1       46.6790   50.2410   14.3880 C.ar   77  TRP77       0.0946
    104  CD2       48.9080   50.0840   14.4430 C.ar   77  TRP77       0.0152
    105  NE1       47.1140   50.8650   15.5290 N.ar   77  TRP77      -0.2442
    106  CE2       48.4810   50.7860   15.5830 C.ar   77  TRP77       0.0810
    107  CE3       50.2730   49.8670   14.2610 C.ar   77  TRP77       0.0012
    108  CZ2       49.3710   51.2730   16.5350 C.ar   77  TRP77       0.0191
    109  CZ3       51.1520   50.3550   15.2020 C.ar   77  TRP77       0.0001
    110  CH2       50.6990   51.0430   16.3280 C.ar   77  TRP77       0.0015
    111  N         44.3220   45.8520   15.5210 N.3    93  TRP93      -0.1241
    112  CA        45.7420   45.7160   15.7930 C.3    93  TRP93       0.1605
    113  C         46.0620   44.6230   16.7940 C.2    93  TRP93       0.2264
    114  O         45.2390   44.2740   17.6500 O.2    93  TRP93      -0.2867
    115  CB        46.3150   47.0510   16.2800 C.3    93  TRP93       0.0550
    116  CG        45.5920   47.6600   17.4760 C.ar   93  TRP93       0.0003
    117  CD1       44.6390   48.6370   17.4460 C.ar   93  TRP93       0.0946
    118  CD2       45.7890   47.3380   18.8590 C.ar   93  TRP93       0.0152
    119  NE1       44.2260   48.9410   18.7220 N.ar   93  TRP93      -0.2442
    120  CE2       44.9130   48.1550   19.6090 C.ar   93  TRP93       0.0810
    121  CE3       46.6150   46.4410   19.5360 C.ar   93  TRP93       0.0012
    122  CZ2       44.8460   48.0980   21.0040 C.ar   93  TRP93       0.0191
    123  CZ3       46.5430   46.3840   20.9230 C.ar   93  TRP93       0.0001
    124  CH2       45.6640   47.2060   21.6380 C.ar   93  TRP93       0.0015
    125  N         49.1550   43.6450   19.4930 N.3    95  LEU95      -0.1245
    126  CA        50.3150   44.1590   20.1990 C.3    95  LEU95       0.1561
    127  C         50.9620   43.0320   20.9950 C.2    95  LEU95       0.2260
    128  O         50.4170   42.5840   22.0050 O.2    95  LEU95      -0.2867
    129  CB        49.8840   45.2880   21.1230 C.3    95  LEU95       0.0270
    130  CG        50.8090   45.7120   22.2640 C.3    95  LEU95       0.0019
    131  CD1       52.2310   45.9620   21.7920 C.3    95  LEU95       0.0001
    132  CD2       50.2400   46.9690   22.8710 C.3    95  LEU95       0.0001
    133  N         54.1910   41.5440   23.1310 N.3    97  SER97      -0.1217
    134  CA        55.3780   41.8030   23.9340 C.3    97  SER97       0.1889
    135  C         56.2050   40.5250   23.9720 C.2    97  SER97       0.2288
    136  O         55.6530   39.4230   23.8940 O.2    97  SER97      -0.2866
    137  CB        54.9810   42.2350   25.3500 C.3    97  SER97       0.2089
    138  OG        54.1170   43.3620   25.3060 O.3    97  SER97      -0.2183
    139  N         50.8640   33.0930   26.6860 N.3   105  TRP105     -0.1227
    140  CA        49.4070   33.2030   26.6640 C.3   105  TRP105      0.1737
    141  C         48.9410   34.6320   26.9400 C.2   105  TRP105      0.2595
    142  O         47.8760   35.0400   26.4770 O.2   105  TRP105     -0.2718
    143  CB        48.7550   32.2120   27.6460 C.3   105  TRP105      0.0564
    144  CG        49.0020   32.5100   29.1110 C.ar  105  TRP105      0.0003
    145  CD1       50.0100   32.0140   29.8930 C.ar  105  TRP105      0.0946
    146  CD2       48.2220   33.3610   29.9650 C.ar  105  TRP105      0.0152
    147  NE1       49.9110   32.5100   31.1680 N.ar  105  TRP105     -0.2442
    148  CE2       48.8220   33.3380   31.2410 C.ar  105  TRP105      0.0810
    149  CE3       47.0780   34.1420   29.7740 C.ar  105  TRP105      0.0012
    150  CZ2       48.3120   34.0660   32.3190 C.ar  105  TRP105      0.0191
    151  CZ3       46.5770   34.8650   30.8410 C.ar  105  TRP105      0.0001
    152  CH2       47.1940   34.8220   32.0980 C.ar  105  TRP105      0.0015
    153  N         49.7460   35.3950   27.6740 N.am  106  LYS106     -0.1966
    154  CA        49.4240   36.7910   27.9410 C.3   106  LYS106      0.1728
    155  C         50.3630   37.7420   27.1910 C.2   106  LYS106      0.2616
    156  O         50.6070   38.8480   27.6440 O.2   106  LYS106     -0.2715
    157  CB        49.4730   37.0700   29.4460 C.3   106  LYS106      0.0311
    158  CG        50.8190   36.8380   30.0830 C.3   106  LYS106      0.0038
    159  CD        50.7120   36.9880   31.5730 C.3   106  LYS106      0.0206
    160  CE        52.0440   36.7460   32.2470 C.3   106  LYS106      0.1093
    161  NZ        51.9010   36.7430   33.7350 N.3   106  LYS106     -0.1314
    162  N         50.8620   37.3120   26.0340 N.am  107  SER107     -0.1950
    163  CA        51.8290   38.1010   25.2780 C.3   107  SER107      0.1924
    164  C         51.1620   39.1120   24.3620 C.2   107  SER107      0.2314
    165  O         51.7800   40.1160   23.9980 O.2   107  SER107     -0.2863
    166  CB        52.7020   37.1900   24.4200 C.3   107  SER107      0.2116
    167  OG        51.9460   36.6420   23.3530 O.3   107  SER107     -0.2180
    168  N         47.9760   41.5860   23.0860 N.3   109  LEU109     -0.1245
    169  CA        46.7460   42.3590   23.2300 C.3   109  LEU109      0.1561
    170  C         46.1240   42.5840   21.8560 C.2   109  LEU109      0.2260
    171  O         46.8300   42.5920   20.8400 O.2   109  LEU109     -0.2867
    172  CB        47.0290   43.7100   23.8820 C.3   109  LEU109      0.0270
    173  CG        47.3790   43.7300   25.3710 C.3   109  LEU109      0.0019
    174  CD1       47.8110   45.1230   25.7570 C.3   109  LEU109      0.0001
    175  CD2       46.2020   43.2980   26.2360 C.3   109  LEU109      0.0001
    176  N         41.4540   50.5840   16.2620 N.3   113  ASP113     -0.1239
    177  CA        41.7280   52.0170   16.1990 C.3   113  ASP113      0.1674
    178  C         41.1120   52.5770   14.9240 C.2   113  ASP113      0.2266
    179  O         41.2570   51.9830   13.8460 O.2   113  ASP113     -0.2867
    180  CB        43.2350   52.2840   16.1660 C.3   113  ASP113      0.1410
    181  CG        43.9130   52.0450   17.4960 C.2   113  ASP113      0.3668
    182  OD1       43.2130   51.7760   18.4970 O.co2 113  ASP113     -0.2456
    183  OD2       45.1620   52.1330   17.5300 O.co2 113  ASP113     -0.2456
@<TRIPOS>BOND
     1   100    99    2
     2    99    98    1
     3   101    98    1
     4   101   102    1
     5    98    97    1
     6   102   103   ar
     7   102   104   ar
     8   179   178    2
     9   107   104   ar
    10   107   109   ar
    11   103   105   ar
    12    23    24    1
    13   104   106   ar
    14    30    32   ar
    15    30    28   ar
    16   178   177    1
    17    93    92    2
    18    32    33   ar
    19   109   110   ar
    20    24    27    1
    21    24    25    1
    22    27    28    1
    23   111   112    1
    24   105   106   ar
    25   106   108   ar
    26    28    29   ar
    27    92    91    1
    28   112   115    1
    29   112   113    1
    30     1     2    1
    31   180   177    1
    32   180   181    1
    33   177   176    1
    34   115   116    1
    35   110   108   ar
    36     2     5    1
    37     2     3    1
    38    33    34    1
    39    33    31   ar
    40    25    26    2
    41   113   114    2
    42     5     6    1
    43    29    31   ar
    44    20    19    2
    45    96    94    1
    46    91    90    1
    47    91    94    1
    48   117   116   ar
    49   117   119   ar
    50   116   118   ar
    51   181   183   ar
    52   181   182   ar
    53    94    95    1
    54     3     4    2
    55    19    18    1
    56     6     8   am
    57     6     7    2
    58   119   120   ar
    59   118   121   ar
    60   118   120   ar
    61    18    21    1
    62    18    17    1
    63    21    22    1
    64    76    78   ar
    65    76    74   ar
    66    65    66    1
    67   125   126    1
    68    78    77   ar
    69   121   123   ar
    70   120   122   ar
    71    74    73   ar
    72    74    72   ar
    73    77    75   ar
    74    73    71   ar
    75   126   127    1
    76   126   129    1
    77    87    86    2
    78    35    36    1
    79    66    67    1
    80    66    69    1
    81    72    75   ar
    82    72    70   ar
    83    71    70   ar
    84    86    85    1
    85     9    10    1
    86   171   170    2
    87   123   124   ar
    88    70    69    1
    89   127   128    2
    90   122   124   ar
    91    67    68    2
    92   129   130    1
    93    36    39    1
    94    36    37    1
    95    39    40    1
    96   131   130    1
    97   170   169    1
    98    11    10    1
    99    11    12    2
   100    10    13    1
   101    13    14    1
   102    15    14    1
   103    14    16    1
   104    85    84    1
   105    85    88    1
   106   130   132    1
   107    37    38    2
   108    88    89    1
   109   168   169    1
   110   133   134    1
   111   169   172    1
   112   167   166    1
   113    64    61    1
   114   172   173    1
   115   136   135    2
   116   134   135    1
   117   134   137    1
   118   165   164    2
   119   164   163    1
   120   166   163    1
   121    47    45    1
   122    41    42    1
   123    61    62    1
   124    61    60    1
   125    44    43    2
   126    79    80    1
   127    62    63    2
   128   163   162    1
   129    83    80    1
   130   138   137    1
   131    81    80    1
   132    81    82    2
   133   173   174    1
   134   173   175    1
   135    55    54    2
   136    45    42    1
   137    45    46    1
   138    42    43    1
   139    43    48   am
   140   162   155   am
   141    60    54   am
   142    54    53    1
   143   142   141    2
   144   140   139    1
   145   140   141    1
   146   140   143    1
   147   141   153   am
   148    48    49    1
   149   155   156    2
   150   155   154    1
   151    49    50    1
   152    50    51    2
   153    50    52   am
   154    52    53    1
   155    53    56    1
   156   143   144    1
   157   153   154    1
   158   154   157    1
   159    56    57    1
   160    58    57    2
   161    57    59   am
   162   144   145   ar
   163   144   146   ar
   164   157   158    1
   165   149   146   ar
   166   149   151   ar
   167   145   147   ar
   168   146   148   ar
   169   158   159    1
   170   151   152   ar
   171   147   148   ar
   172   148   150   ar
   173   159   160    1
   174   152   150   ar
   175   160   161    1
