@<TRIPOS>MOLECULE
tmp/4bxcB00.pdb
 140 129 0 0 0
SMALL
GASTEIGER

@<TRIPOS>ATOM
      1  N         12.7570  -24.3410  112.2780 N.3   161  THR161     -0.1218
      2  CA        14.0250  -24.5650  112.9730 C.3   161  THR161      0.1862
      3  C         14.8250  -23.3010  112.8920 C.2   161  THR161      0.2287
      4  O         14.5520  -22.4410  112.0360 O.2   161  THR161     -0.2866
      5  CB        14.8680  -25.7070  112.3590 C.3   161  THR161      0.1770
      6  OG1       15.2750  -25.3700  111.0180 O.3   161  THR161     -0.2211
      7  CG2       14.0830  -26.9990  112.3620 C.3   161  THR161      0.0375
      8  N         11.3460  -25.5480  117.0680 N.3   271  TRP271     -0.1241
      9  CA        12.3920  -26.2670  117.7690 C.3   271  TRP271      0.1605
     10  C         13.1420  -25.3430  118.7460 C.2   271  TRP271      0.2264
     11  O         13.9330  -25.7970  119.5720 O.2   271  TRP271     -0.2867
     12  CB        13.3150  -26.9480  116.7280 C.3   271  TRP271      0.0550
     13  CG        12.7750  -28.3020  116.3390 C.ar  271  TRP271      0.0003
     14  CD1       11.4850  -28.7190  116.4510 C.ar  271  TRP271      0.0946
     15  CD2       13.5000  -29.4150  115.8030 C.ar  271  TRP271      0.0152
     16  NE1       11.3580  -30.0130  116.0300 N.ar  271  TRP271     -0.2442
     17  CE2       12.5800  -30.4650  115.6230 C.ar  271  TRP271      0.0810
     18  CE3       14.8420  -29.6380  115.4870 C.ar  271  TRP271      0.0012
     19  CZ2       12.9480  -31.7070  115.1190 C.ar  271  TRP271      0.0191
     20  CZ3       15.2210  -30.8940  115.0100 C.ar  271  TRP271      0.0001
     21  CH2       14.2710  -31.9060  114.8280 C.ar  271  TRP271      0.0015
     22  N         14.7200  -28.0790  121.0160 N.3   275  ASP275     -0.1239
     23  CA        15.7650  -29.0110  120.6050 C.3   275  ASP275      0.1674
     24  C         17.0240  -28.8550  121.4420 C.2   275  ASP275      0.2266
     25  O         17.7100  -27.8630  121.2960 O.2   275  ASP275     -0.2867
     26  CB        16.1160  -28.7470  119.1600 C.3   275  ASP275      0.1410
     27  CG        17.1670  -29.6970  118.6160 C.2   275  ASP275      0.3668
     28  OD1       17.5860  -30.6400  119.3070 O.co2 275  ASP275     -0.2456
     29  OD2       17.5710  -29.4850  117.4670 O.co2 275  ASP275     -0.2456
     30  N         13.4010  -32.1290  121.7740 N.3   434  ARG434     -0.1245
     31  CA        14.1730  -33.1980  121.1930 C.3   434  ARG434      0.1563
     32  C         15.3810  -33.4710  122.0140 C.2   434  ARG434      0.2260
     33  O         16.0760  -32.5550  122.4340 O.2   434  ARG434     -0.2867
     34  CB        14.6310  -32.8230  119.8070 C.3   434  ARG434      0.0307
     35  CG        15.3360  -33.9470  119.0580 C.3   434  ARG434      0.0489
     36  CD        15.4380  -33.6580  117.5720 C.3   434  ARG434      0.2205
     37  NE        16.5710  -32.7850  117.2530 N.pl3 434  ARG434     -0.0865
     38  CZ        17.4720  -33.0210  116.2980 C.cat 434  ARG434      0.5346
     39  NH1       17.4040  -34.0950  115.5300 N.pl3 434  ARG434      0.1354
     40  NH2       18.4600  -32.1670  116.1160 N.pl3 434  ARG434      0.1354
     41  N         13.1010  -40.5350  115.8570 N.3   542  LEU542     -0.1245
     42  CA        13.8130  -40.1280  114.6940 C.3   542  LEU542      0.1561
     43  C         14.8790  -41.1890  114.4310 C.2   542  LEU542      0.2260
     44  O         15.8780  -41.2860  115.1620 O.2   542  LEU542     -0.2867
     45  CB        14.4690  -38.7770  114.9260 C.3   542  LEU542      0.0270
     46  CG        15.5370  -38.4540  113.8870 C.3   542  LEU542      0.0019
     47  CD1       14.8950  -38.2160  112.5230 C.3   542  LEU542      0.0001
     48  CD2       16.3160  -37.2500  114.3640 C.3   542  LEU542      0.0001
     49  N         17.9050  -42.3780  112.2700 N.3   544  GLU544     -0.1245
     50  CA        18.9000  -41.6830  111.5000 C.3   544  GLU544      0.1567
     51  C         19.7640  -42.6010  110.5950 C.2   544  GLU544      0.2260
     52  O         19.7180  -42.5010  109.3470 O.2   544  GLU544     -0.2867
     53  CB        19.7480  -40.8370  112.4370 C.3   544  GLU544      0.0388
     54  CG        18.9140  -39.8280  113.2220 C.3   544  GLU544      0.1160
     55  CD        19.7610  -38.8170  113.9660 C.2   544  GLU544      0.3649
     56  OE1       20.8290  -38.4900  113.4540 O.co2 544  GLU544     -0.2457
     57  OE2       19.3760  -38.3430  115.0590 O.co2 544  GLU544     -0.2457
     58  N          9.6520  -39.6020  112.7880 N.3   576  MET576     -0.1245
     59  CA        10.4800  -38.6070  112.0920 C.3   576  MET576      0.1570
     60  C         11.5320  -39.2860  111.2420 C.2   576  MET576      0.2261
     61  O         12.0100  -40.3670  111.6100 O.2   576  MET576     -0.2867
     62  CB        11.2080  -37.7160  113.0800 C.3   576  MET576      0.0387
     63  CG        11.6440  -36.3910  112.4970 C.3   576  MET576      0.0595
     64  SD        12.7070  -35.4070  113.5500 S.3   576  MET576     -0.1393
     65  CE        13.0660  -34.1040  112.3970 C.3   576  MET576      0.0692
     66  N         15.2120  -37.9910  108.7120 N.3   578  GLY578     -0.1225
     67  CA        16.1300  -36.8860  108.3880 C.3   578  GLY578      0.1811
     68  C         17.1300  -37.1840  107.2710 C.2   578  GLY578      0.2280
     69  O         18.2010  -37.7320  107.5070 O.2   578  GLY578     -0.2866
     70  N         19.2940  -35.3930  105.6140 N.3   580  SER580     -0.1202
     71  CA        20.7110  -35.1240  105.8420 C.3   580  SER580      0.2020
     72  C         21.3530  -36.1270  106.7910 C.2   580  SER580      0.2618
     73  O         22.4320  -36.6270  106.5230 O.2   580  SER580     -0.2717
     74  CB        20.9210  -33.7340  106.3540 C.3   580  SER580      0.2103
     75  OG        20.4480  -32.8300  105.3990 O.3   580  SER580     -0.2182
     76  N         20.6610  -36.4390  107.8740 N.am  581  ASP581     -0.1973
     77  CA        21.1890  -37.3610  108.8630 C.3   581  ASP581      0.1709
     78  C         21.5100  -38.7010  108.2260 C.2   581  ASP581      0.2293
     79  O         22.6530  -39.1320  108.2380 O.2   581  ASP581     -0.2864
     80  CB        20.1970  -37.5700  110.0170 C.3   581  ASP581      0.1436
     81  CG        20.0750  -36.3500  110.9420 C.2   581  ASP581      0.3671
     82  OD1       20.8920  -35.4030  110.8350 O.co2 581  ASP581     -0.2456
     83  OD2       19.1340  -36.3390  111.7730 O.co2 581  ASP581     -0.2456
     84  N         12.0800  -34.2660  108.5650 N.3   618  GLY618     -0.1210
     85  CA        13.1800  -33.5030  109.0460 C.3   618  GLY618      0.1956
     86  C         13.8940  -32.8550  107.9040 C.2   618  GLY618      0.2611
     87  O         13.5150  -33.0430  106.7780 O.2   618  GLY618     -0.2717
     88  N         14.9830  -32.1550  108.1820 N.am  619  ARG619     -0.1979
     89  CA        15.6950  -31.4310  107.1550 C.3   619  ARG619      0.1597
     90  C         16.4560  -32.2830  106.1470 C.2   619  ARG619      0.2287
     91  O         16.9120  -33.3910  106.4080 O.2   619  ARG619     -0.2864
     92  CB        16.5990  -30.3680  107.7670 C.3   619  ARG619      0.0334
     93  CG        17.8310  -30.8410  108.4810 C.3   619  ARG619      0.0492
     94  CD        18.7930  -29.6880  108.6390 C.3   619  ARG619      0.2205
     95  NE        19.6680  -29.6860  107.4660 N.pl3 619  ARG619     -0.0865
     96  CZ        20.0780  -28.6000  106.8120 C.cat 619  ARG619      0.5346
     97  NH1       19.6960  -27.3650  107.2010 N.pl3 619  ARG619      0.1354
     98  NH2       20.8740  -28.7700  105.7460 N.pl3 619  ARG619      0.1354
     99  N          9.7260  -29.8530  108.3960 N.3   649  THR649     -0.1218
    100  CA        10.6810  -28.8650  108.8320 C.3   649  THR649      0.1862
    101  C         10.7580  -27.7830  107.8000 C.2   649  THR649      0.2287
    102  O         10.8460  -28.0800  106.6490 O.2   649  THR649     -0.2866
    103  CB        12.0520  -29.5460  108.8570 C.3   649  THR649      0.1770
    104  OG1       11.9890  -30.6460  109.7490 O.3   649  THR649     -0.2211
    105  CG2       13.1660  -28.6250  109.2990 C.3   649  THR649      0.0375
    106  N         26.2970  -24.2620  118.0510 N.3   733  ARG733     -0.1245
    107  CA        26.2530  -25.3180  119.0550 C.3   733  ARG733      0.1563
    108  C         27.3690  -26.3320  118.7550 C.2   733  ARG733      0.2260
    109  O         27.7250  -26.4990  117.5870 O.2   733  ARG733     -0.2867
    110  CB        24.8690  -25.9930  119.0510 C.3   733  ARG733      0.0307
    111  CG        24.7270  -27.2100  118.1390 C.3   733  ARG733      0.0489
    112  CD        23.2910  -27.4130  117.6820 C.3   733  ARG733      0.2205
    113  NE        23.1640  -28.4920  116.6980 N.pl3 733  ARG733     -0.0865
    114  CZ        23.6200  -28.4560  115.4350 C.cat 733  ARG733      0.5346
    115  NH1       24.2670  -27.3980  114.9430 N.pl3 733  ARG733      0.1354
    116  NH2       23.4430  -29.5030  114.6420 N.pl3 733  ARG733      0.1354
    117  N         28.1240  -33.6810  113.5250 N.3   744  ARG744     -0.1231
    118  CA        26.7070  -33.5090  113.1880 C.3   744  ARG744      0.1694
    119  C         26.5030  -33.1080  111.7180 C.2   744  ARG744      0.2592
    120  O         27.4290  -32.6190  111.0500 O.2   744  ARG744     -0.2718
    121  CB        26.0650  -32.4930  114.1060 C.3   744  ARG744      0.0321
    122  CG        26.0640  -32.9640  115.5370 C.3   744  ARG744      0.0489
    123  CD        25.1700  -32.1100  116.4020 C.3   744  ARG744      0.2205
    124  NE        23.7770  -32.3950  116.1010 N.pl3 744  ARG744     -0.0865
    125  CZ        22.9420  -33.0520  116.8850 C.cat 744  ARG744      0.5346
    126  NH1       23.3320  -33.5060  118.0780 N.pl3 744  ARG744      0.1354
    127  NH2       21.6950  -33.2290  116.4630 N.pl3 744  ARG744      0.1354
    128  N         25.2800  -33.3050  111.2310 N.am  745  ALA745     -0.1966
    129  CA        25.0010  -33.1810  109.8040 C.3   745  ALA745      0.1728
    130  C         25.0190  -31.7530  109.2310 C.2   745  ALA745      0.2616
    131  O         25.5480  -31.4970  108.1350 O.2   745  ALA745     -0.2715
    132  CB        23.6770  -33.8550  109.5100 C.3   745  ALA745      0.0334
    133  N         24.4440  -30.8150  109.9640 N.am  746  ILE746     -0.1977
    134  CA        24.4810  -29.4230  109.5230 C.3   746  ILE746      0.1596
    135  C         25.9150  -28.9800  109.2080 C.2   746  ILE746      0.2287
    136  O         26.1690  -28.5280  108.1000 O.2   746  ILE746     -0.2864
    137  CB        23.7670  -28.4670  110.5150 C.3   746  ILE746      0.0276
    138  CG1       22.2510  -28.5220  110.2650 C.3   746  ILE746      0.0022
    139  CG2       24.2820  -27.0330  110.3770 C.3   746  ILE746      0.0022
    140  CD1       21.3870  -28.0050  111.4050 C.3   746  ILE746      0.0001
@<TRIPOS>BOND
     1    75    74    1
     2    70    71    1
     3    98    96    1
     4    71    74    1
     5    71    72    1
     6    90    91    2
     7    90    89    1
     8    73    72    2
     9   102   101    2
    10    87    86    2
    11    72    76   am
    12    96    97    1
    13    96    95    2
    14    89    92    1
    15    89    88    1
    16    68    69    2
    17    68    67    1
    18    95    94    1
    19    92    93    1
    20   101   100    1
    21    76    77    1
    22    86    88   am
    23    86    85    1
    24   136   135    2
    25   131   130    2
    26    78    79    2
    27    78    77    1
    28    67    66    1
    29    99   100    1
    30    93    94    1
    31    84    85    1
    32   100   103    1
    33   103   105    1
    34   103   104    1
    35    77    80    1
    36   135   134    1
    37   130   129    1
    38   130   133   am
    39    52    51    2
    40   132   129    1
    41   134   133    1
    42   134   137    1
    43   129   128    1
    44    80    81    1
    45   138   137    1
    46   138   140    1
    47   139   137    1
    48    51    50    1
    49    82    81   ar
    50    81    83   ar
    51     6     5    1
    52   120   119    2
    53   128   119   am
    54    60    61    2
    55    60    59    1
    56    50    49    1
    57    50    53    1
    58   119   118    1
    59     4     3    2
    60    59    58    1
    61    59    62    1
    62     1     2    1
    63     5     7    1
    64     5     2    1
    65    65    64    1
    66    53    54    1
    67    63    62    1
    68    63    64    1
    69    47    46    1
    70     3     2    1
    71   118   117    1
    72   118   121    1
    73    54    55    1
    74    56    55   ar
    75    46    48    1
    76    46    45    1
    77    55    57   ar
    78   121   122    1
    79    43    42    1
    80    43    44    2
    81   116   114    1
    82    42    45    1
    83    42    41    1
    84    21    20   ar
    85    21    19   ar
    86   115   114    1
    87    20    18   ar
    88    19    17   ar
    89   114   113    2
    90    18    15   ar
    91    39    38    1
    92   122   123    1
    93    17    15   ar
    94    17    16   ar
    95    15    13   ar
    96    16    14   ar
    97   124   123    1
    98   124   125    2
    99    40    38    1
   100    38    37    2
   101    13    14   ar
   102    13    12    1
   103   127   125    1
   104   113   112    1
   105    12     9    1
   106   125   126    1
   107     8     9    1
   108    37    36    1
   109    29    27   ar
   110    36    35    1
   111   109   108    2
   112   112   111    1
   113     9    10    1
   114   106   107    1
   115   111   110    1
   116    27    26    1
   117    27    28   ar
   118    10    11    2
   119   108   107    1
   120   110   107    1
   121    35    34    1
   122    26    23    1
   123    34    31    1
   124    23    22    1
   125    23    24    1
   126    31    30    1
   127    31    32    1
   128    25    24    2
   129    32    33    2
