@<TRIPOS>MOLECULE
tmp/4bxdA00.pdb
 161 156 0 0 0
SMALL
GASTEIGER

@<TRIPOS>ATOM
      1  N          3.0750  -29.6370   48.8420 N.3    25  HIS25      -0.1226
      2  CA         3.5190  -30.9330   48.5690 C.3    25  HIS25       0.1752
      3  C          4.6090  -31.3390   49.4560 C.2    25  HIS25       0.2596
      4  O          5.2510  -30.5090   50.0240 O.2    25  HIS25      -0.2718
      5  CB         3.8970  -31.1560   47.1110 C.3    25  HIS25       0.0759
      6  CG         3.7200  -29.9890   46.1880 C.ar   25  HIS25       0.0818
      7  ND1        2.9020  -30.0170   45.1820 N.ar   25  HIS25      -0.2268
      8  CD2        4.2900  -28.7780   46.1570 C.ar   25  HIS25       0.1154
      9  CE1        2.9030  -28.8730   44.5660 C.ar   25  HIS25       0.1986
     10  NE2        3.7690  -28.1220   45.1450 N.ar   25  HIS25      -0.2212
     11  N          4.8130  -32.6270   49.5880 N.am   26  TYR26      -0.1962
     12  CA         5.9100  -33.1460   50.3070 C.3    26  TYR26       0.1771
     13  C          6.7850  -33.6520   49.2580 C.2    26  TYR26       0.2620
     14  O          6.3240  -33.9290   48.2120 O.2    26  TYR26      -0.2715
     15  CB         5.4930  -34.2460   51.2640 C.3    26  TYR26       0.0574
     16  CG         4.8080  -35.4620   50.7150 C.ar   26  TYR26      -0.0198
     17  CD1        5.3680  -36.2300   49.7490 C.ar   26  TYR26      -0.0009
     18  CD2        3.6370  -35.8680   51.2190 C.ar   26  TYR26      -0.0009
     19  CE1        4.7620  -37.3440   49.2820 C.ar   26  TYR26       0.0417
     20  CE2        3.0220  -36.9780   50.7400 C.ar   26  TYR26       0.0417
     21  CZ         3.6080  -37.6910   49.7710 C.ar   26  TYR26       0.1957
     22  OH         2.9920  -38.7890   49.3080 O.3    26  TYR26      -0.2866
     23  N          8.0650  -33.7630   49.5240 N.am   27  THR27      -0.1951
     24  CA         8.9980  -34.1770   48.5130 C.3    27  THR27       0.1897
     25  C          9.0960  -35.6600   48.4450 C.2    27  THR27       0.2313
     26  O          9.0220  -36.2450   47.4100 O.2    27  THR27      -0.2863
     27  CB        10.3910  -33.6120   48.7450 C.3    27  THR27       0.1794
     28  OG1       11.0830  -34.3670   49.7290 O.3    27  THR27      -0.2208
     29  CG2       10.3280  -32.2880   49.2000 C.3    27  THR27       0.0378
     30  N         14.6210  -29.7900   42.5330 N.3    38  LEU38      -0.1245
     31  CA        13.7930  -28.6280   42.4070 C.3    38  LEU38       0.1561
     32  C         14.5440  -27.4430   41.9140 C.2    38  LEU38       0.2260
     33  O         13.9820  -26.4060   41.7190 O.2    38  LEU38      -0.2867
     34  CB        13.1920  -28.3040   43.7350 C.3    38  LEU38       0.0270
     35  CG        12.3320  -29.3860   44.3210 C.3    38  LEU38       0.0019
     36  CD1       12.1330  -29.1320   45.7690 C.3    38  LEU38       0.0001
     37  CD2       11.0110  -29.4820   43.6290 C.3    38  LEU38       0.0001
     38  N         13.3190  -31.7850   37.1160 N.3    42  ALA42      -0.1231
     39  CA        12.2560  -31.5530   36.1850 C.3    42  ALA42       0.1694
     40  C         11.0190  -31.0500   36.8410 C.2    42  ALA42       0.2591
     41  O          9.9340  -31.2810   36.3910 O.2    42  ALA42      -0.2718
     42  CB        11.9520  -32.8190   35.4630 C.3    42  ALA42       0.0304
     43  N         11.2100  -30.3580   37.9380 N.am   43  ALA43      -0.1980
     44  CA        10.1470  -29.6200   38.5700 C.3    43  ALA43       0.1597
     45  C         10.6970  -28.7500   39.6050 C.2    43  ALA43       0.2287
     46  O         11.8500  -28.7350   39.7480 O.2    43  ALA43      -0.2864
     47  CB         9.1720  -30.5390   39.1710 C.3    43  ALA43       0.0319
     48  N          6.6330  -18.7750   37.4940 N.3    76  ARG76      -0.1245
     49  CA         5.8410  -19.9600   37.4570 C.3    76  ARG76       0.1563
     50  C          6.7000  -21.1100   37.6500 C.2    76  ARG76       0.2260
     51  O          7.4690  -21.4290   36.8110 O.2    76  ARG76      -0.2867
     52  CB         5.1960  -20.1060   36.1200 C.3    76  ARG76       0.0307
     53  CG         4.3730  -21.3270   35.9180 C.3    76  ARG76       0.0489
     54  CD         4.5190  -21.9030   34.5480 C.3    76  ARG76       0.2205
     55  NE         3.3320  -22.5290   34.0640 N.pl3  76  ARG76      -0.0865
     56  CZ         3.1820  -23.8160   33.9060 C.cat  76  ARG76       0.5346
     57  NH1        4.1290  -24.6210   34.2340 N.pl3  76  ARG76       0.1354
     58  NH2        2.0710  -24.2880   33.4390 N.pl3  76  ARG76       0.1354
     59  N          7.3320  -25.2030   38.5450 N.3    78  TRP78      -0.1227
     60  CA         6.7110  -26.4010   38.1050 C.3    78  TRP78       0.1737
     61  C          6.5480  -27.3520   39.2140 C.2    78  TRP78       0.2595
     62  O          7.3360  -28.2420   39.4390 O.2    78  TRP78      -0.2718
     63  CB         7.5080  -27.0560   37.0300 C.3    78  TRP78       0.0564
     64  CG         7.8610  -26.1970   35.8860 C.ar   78  TRP78       0.0003
     65  CD1        7.3850  -24.9650   35.5920 C.ar   78  TRP78       0.0946
     66  CD2        8.7660  -26.5090   34.8230 C.ar   78  TRP78       0.0152
     67  NE1        7.9290  -24.5040   34.4590 N.ar   78  TRP78      -0.2442
     68  CE2        8.7570  -25.3890   33.9510 C.ar   78  TRP78       0.0810
     69  CE3        9.5500  -27.5620   34.5280 C.ar   78  TRP78       0.0012
     70  CZ2        9.5090  -25.3500   32.8380 C.ar   78  TRP78       0.0191
     71  CZ3       10.2910  -27.5200   33.3890 C.ar   78  TRP78       0.0001
     72  CH2       10.2740  -26.4370   32.5690 C.ar   78  TRP78       0.0015
     73  N          5.4700  -27.1760   39.9300 N.am   79  HIS79      -0.1961
     74  CA         5.1630  -27.9790   41.0350 C.3    79  HIS79       0.1787
     75  C          3.8980  -28.6570   40.8660 C.2    79  HIS79       0.2620
     76  O          3.8140  -29.7880   41.1650 O.2    79  HIS79      -0.2715
     77  CB         5.0840  -27.1340   42.2680 C.3    79  HIS79       0.0785
     78  CG         4.1730  -25.9700   42.1570 C.ar   79  HIS79       0.0821
     79  ND1        3.0540  -25.9200   42.8010 N.ar   79  HIS79      -0.2267
     80  CD2        4.2780  -24.8000   41.4840 C.ar   79  HIS79       0.1154
     81  CE1        2.4520  -24.8050   42.5540 C.ar   79  HIS79       0.1986
     82  NE2        3.2020  -24.1130   41.7370 N.ar   79  HIS79      -0.2212
     83  N          2.8850  -27.9930   40.3940 N.am   80  ALA80      -0.1963
     84  CA         1.5390  -28.4920   40.4910 C.3    80  ALA80       0.1728
     85  C          1.1360  -29.5390   39.5100 C.2    80  ALA80       0.2617
     86  O          0.5360  -30.5000   39.8870 O.2    80  ALA80      -0.2715
     87  CB         0.5750  -27.3680   40.4420 C.3    80  ALA80       0.0334
     88  N          1.4530  -29.3720   38.2540 N.am   81  GLY81      -0.1940
     89  CA         1.2880  -30.4230   37.2980 C.3    81  GLY81       0.2014
     90  C          0.0180  -30.3140   36.5770 C.2    81  GLY81       0.2638
     91  O         -0.5360  -29.2770   36.4970 O.2    81  GLY81      -0.2714
     92  N         -0.4020  -31.4260   36.0370 N.am   82  VAL82      -0.1977
     93  CA        -1.7100  -31.5890   35.4850 C.3    82  VAL82       0.1596
     94  C         -2.6770  -31.5610   36.6090 C.2    82  VAL82       0.2287
     95  O         -2.8870  -32.5320   37.2830 O.2    82  VAL82      -0.2864
     96  CB        -1.8540  -32.9300   34.8200 C.3    82  VAL82       0.0276
     97  CG1       -3.0850  -32.9790   33.9950 C.3    82  VAL82       0.0022
     98  CG2       -0.6530  -33.2470   33.9900 C.3    82  VAL82       0.0022
     99  N         -4.3120  -26.4300   35.0420 N.3    90  ASN90      -0.1240
    100  CA        -2.9480  -26.0110   34.9530 C.3    90  ASN90       0.1653
    101  C         -2.7810  -25.0490   36.0420 C.2    90  ASN90       0.2266
    102  O         -2.6080  -23.8950   35.8530 O.2    90  ASN90      -0.2867
    103  CB        -2.6750  -25.4000   33.6120 C.3    90  ASN90       0.1155
    104  CG        -1.3700  -25.7970   33.0730 C.2    90  ASN90       0.2627
    105  OD1       -0.3650  -25.6680   33.7180 O.2    90  ASN90      -0.2716
    106  ND2       -1.3780  -26.2690   31.8780 N.am   90  ASN90      -0.0877
    107  N         -0.5800  -24.7230   37.9630 N.3    92  ASN92      -0.1240
    108  CA         0.8040  -24.2980   38.0410 C.3    92  ASN92       0.1653
    109  C          1.0370  -22.8700   37.6660 C.2    92  ASN92       0.2266
    110  O          2.0290  -22.2910   38.0050 O.2    92  ASN92      -0.2867
    111  CB         1.6270  -25.1690   37.1590 C.3    92  ASN92       0.1155
    112  CG         2.9100  -25.4700   37.7250 C.2    92  ASN92       0.2627
    113  OD1        3.4400  -24.7160   38.4710 O.2    92  ASN92      -0.2716
    114  ND2        3.4080  -26.5910   37.4020 N.am   92  ASN92      -0.0877
    115  N          6.9850  -26.7550   48.9470 N.3    99  GLU99      -0.1245
    116  CA         7.3480  -28.0900   49.3190 C.3    99  GLU99       0.1567
    117  C          8.1090  -28.2330   50.5880 C.2    99  GLU99       0.2260
    118  O          8.9140  -27.4550   50.9660 O.2    99  GLU99      -0.2867
    119  CB         8.0660  -28.7740   48.1940 C.3    99  GLU99       0.0388
    120  CG         7.3240  -29.9610   47.7140 C.3    99  GLU99       0.1160
    121  CD         7.8770  -30.4730   46.4870 C.2    99  GLU99       0.3649
    122  OE1        8.0180  -29.7140   45.5560 O.co2  99  GLU99      -0.2457
    123  OE2        8.1360  -31.6440   46.4670 O.co2  99  GLU99      -0.2457
    124  N         -1.6190  -30.7990   46.9150 N.3   146  HIS146     -0.1241
    125  CA        -1.5410  -31.4400   45.6530 C.3   146  HIS146      0.1621
    126  C         -2.5990  -32.3930   45.5290 C.2   146  HIS146      0.2264
    127  O         -3.2510  -32.4890   44.5330 O.2   146  HIS146     -0.2867
    128  CB        -0.2900  -32.2280   45.5970 C.3   146  HIS146      0.0745
    129  CG         0.3970  -32.1830   44.2990 C.ar  146  HIS146      0.0817
    130  ND1        1.5340  -32.7750   44.1330 N.ar  146  HIS146     -0.2268
    131  CD2        0.0860  -31.5950   43.1210 C.ar  146  HIS146      0.1154
    132  CE1        1.9740  -32.5640   42.9250 C.ar  146  HIS146      0.1986
    133  NE2        1.0620  -31.8680   42.2860 N.ar  146  HIS146     -0.2212
    134  N         -3.3820  -39.0160   41.5210 N.3   153  ARG153     -0.1231
    135  CA        -2.0270  -39.0240   41.0570 C.3   153  ARG153      0.1694
    136  C         -1.1180  -38.7570   42.1990 C.2   153  ARG153      0.2591
    137  O         -0.0750  -39.3420   42.3270 O.2   153  ARG153     -0.2718
    138  CB        -1.8380  -37.9310   40.0320 C.3   153  ARG153      0.0321
    139  CG        -1.9320  -38.3260   38.6070 C.3   153  ARG153      0.0489
    140  CD        -1.5920  -37.1200   37.7970 C.3   153  ARG153      0.2205
    141  NE        -0.3130  -36.5450   38.1310 N.pl3 153  ARG153     -0.0865
    142  CZ        -0.1140  -35.2630   38.2930 C.cat 153  ARG153      0.5346
    143  NH1       -1.1100  -34.4360   38.2070 N.pl3 153  ARG153      0.1354
    144  NH2        1.0740  -34.8150   38.5600 N.pl3 153  ARG153      0.1354
    145  N         -1.5200  -37.8190   43.0120 N.am  154  LYS154     -0.1980
    146  CA        -0.6850  -37.3370   44.0380 C.3   154  LYS154      0.1596
    147  C         -1.3130  -37.5200   45.3650 C.2   154  LYS154      0.2287
    148  O         -2.4800  -37.3990   45.5070 O.2   154  LYS154     -0.2864
    149  CB        -0.4330  -35.8870   43.8080 C.3   154  LYS154      0.0298
    150  CG         0.2520  -35.5640   42.5020 C.3   154  LYS154      0.0038
    151  CD         1.5520  -36.3010   42.3290 C.3   154  LYS154      0.0206
    152  CE         2.7370  -35.3850   42.3250 C.3   154  LYS154      0.1093
    153  NZ         4.0300  -36.0800   42.2880 N.3   154  LYS154     -0.1314
    154  N          0.1620  -35.9400   48.1570 N.3   156  ASP156     -0.1239
    155  CA         0.8510  -34.9810   48.9630 C.3   156  ASP156      0.1674
    156  C         -0.1950  -34.0360   49.3160 C.2   156  ASP156      0.2266
    157  O         -1.1190  -33.8950   48.5880 O.2   156  ASP156     -0.2867
    158  CB         1.9960  -34.2690   48.2520 C.3   156  ASP156      0.1410
    159  CG         2.1940  -34.6940   46.8780 C.2   156  ASP156      0.3668
    160  OD1        1.7920  -35.7990   46.5620 O.co2 156  ASP156     -0.2456
    161  OD2        2.7230  -33.9390   46.1130 O.co2 156  ASP156     -0.2456
@<TRIPOS>BOND
     1   106   104   am
     2    72    70   ar
     3    72    71   ar
     4    70    68   ar
     5   104   103    1
     6   104   105    2
     7    71    69   ar
     8    58    56    1
     9   103   100    1
    10    56    55    2
    11    56    57    1
    12    68    67   ar
    13    68    66   ar
    14    98    96    1
    15    97    96    1
    16    55    54    1
    17    67    65   ar
    18    69    66   ar
    19    54    53    1
    20    96    93    1
    21    66    64   ar
    22   100    99    1
    23   100   101    1
    24    42    39    1
    25    93    92    1
    26    93    94    1
    27    65    64   ar
    28   102   101    2
    29    64    63    1
    30    53    52    1
    31    92    90   am
    32    52    49    1
    33    39    40    1
    34    39    38    1
    35    41    40    2
    36    91    90    2
    37    90    89    1
    38    94    95    2
    39    51    50    2
    40    40    43   am
    41    63    60    1
    42   111   112    1
    43   111   108    1
    44    89    88    1
    45   114   112   am
    46    49    48    1
    47    49    50    1
    48   109   110    2
    49   109   108    1
    50   112   113    2
    51   140   141    1
    52   140   139    1
    53    43    44    1
    54   107   108    1
    55    60    59    1
    56    60    61    1
    57   141   142    2
    58   143   142    1
    59    88    85   am
    60   142   144    1
    61    44    47    1
    62    44    45    1
    63   139   138    1
    64    61    62    2
    65    61    73   am
    66    85    86    2
    67    85    84    1
    68    45    46    2
    69    73    74    1
    70   138   135    1
    71    83    84    1
    72    83    75   am
    73    87    84    1
    74    75    74    1
    75    75    76    2
    76    74    77    1
    77   135   134    1
    78   135   136    1
    79    80    82   ar
    80    80    78   ar
    81    33    32    2
    82    82    81   ar
    83    32    31    1
    84    78    77    1
    85    78    79   ar
    86   136   137    2
    87   136   145   am
    88   133   132   ar
    89   133   131   ar
    90   153   152    1
    91   152   151    1
    92   151   150    1
    93    31    30    1
    94    31    34    1
    95   150   149    1
    96    81    79   ar
    97   132   130   ar
    98   145   146    1
    99   131   129   ar
   100    37    35    1
   101    34    35    1
   102   149   146    1
   103   146   147    1
   104   130   129   ar
   105   129   128    1
   106    35    36    1
   107   127   126    2
   108     9    10   ar
   109     9     7   ar
   110    10     8   ar
   111     7     6   ar
   112   147   148    2
   113   126   125    1
   114   122   121   ar
   115   128   125    1
   116   125   124    1
   117   161   159   ar
   118     8     6   ar
   119     6     5    1
   120   123   121   ar
   121   121   120    1
   122   160   159   ar
   123   159   158    1
   124     5     2    1
   125    26    25    2
   126   120   119    1
   127   154   155    1
   128   119   116    1
   129    14    13    2
   130   158   155    1
   131    25    24    1
   132    24    27    1
   133    24    23    1
   134     2     1    1
   135     2     3    1
   136   157   156    2
   137    27    29    1
   138    27    28    1
   139   115   116    1
   140   155   156    1
   141    13    23   am
   142    13    12    1
   143    19    17   ar
   144    19    21   ar
   145    22    21    1
   146   116   117    1
   147     3    11   am
   148     3     4    2
   149    11    12    1
   150    17    16   ar
   151    21    20   ar
   152    12    15    1
   153   117   118    2
   154    16    18   ar
   155    16    15    1
   156    20    18   ar
