@<TRIPOS>MOLECULE
tmp/4bxdA01.pdb
 155 148 0 0 0
SMALL
GASTEIGER

@<TRIPOS>ATOM
      1  N          4.8130  -32.6270   49.5880 N.3    26  TYR26      -0.1227
      2  CA         5.9100  -33.1460   50.3070 C.3    26  TYR26       0.1736
      3  C          6.7850  -33.6520   49.2580 C.2    26  TYR26       0.2596
      4  O          6.3240  -33.9290   48.2120 O.2    26  TYR26      -0.2718
      5  CB         5.4930  -34.2460   51.2640 C.3    26  TYR26       0.0548
      6  CG         4.8080  -35.4620   50.7150 C.ar   26  TYR26      -0.0200
      7  CD1        5.3680  -36.2300   49.7490 C.ar   26  TYR26      -0.0009
      8  CD2        3.6370  -35.8680   51.2190 C.ar   26  TYR26      -0.0009
      9  CE1        4.7620  -37.3440   49.2820 C.ar   26  TYR26       0.0417
     10  CE2        3.0220  -36.9780   50.7400 C.ar   26  TYR26       0.0417
     11  CZ         3.6080  -37.6910   49.7710 C.ar   26  TYR26       0.1957
     12  OH         2.9920  -38.7890   49.3080 O.3    26  TYR26      -0.2866
     13  N          8.0650  -33.7630   49.5240 N.am   27  THR27      -0.1939
     14  CA         8.9980  -34.1770   48.5130 C.3    27  THR27       0.2028
     15  C          9.0960  -35.6600   48.4450 C.2    27  THR27       0.2642
     16  O          9.0220  -36.2450   47.4100 O.2    27  THR27      -0.2714
     17  CB        10.3910  -33.6120   48.7450 C.3    27  THR27       0.1808
     18  OG1       11.0830  -34.3670   49.7290 O.3    27  THR27      -0.2208
     19  CG2       10.3280  -32.2880   49.2000 C.3    27  THR27       0.0379
     20  N          9.2740  -36.2840   49.5740 N.am   28  ALA28      -0.1963
     21  CA         9.5410  -37.7150   49.5670 C.3    28  ALA28       0.1728
     22  C         10.9770  -37.9400   49.2800 C.2    28  ALA28       0.2616
     23  O         11.3580  -39.0180   48.8660 O.2    28  ALA28      -0.2715
     24  CB         8.7040  -38.4650   48.5420 C.3    28  ALA28       0.0334
     25  N         11.7780  -36.9070   49.4460 N.am   29  LEU29      -0.1977
     26  CA        13.1760  -36.9980   49.1390 C.3    29  LEU29       0.1596
     27  C         13.8520  -36.2920   50.2640 C.2    29  LEU29       0.2287
     28  O         13.2900  -35.3600   50.8000 O.2    29  LEU29      -0.2864
     29  CB        13.4470  -36.2540   47.8640 C.3    29  LEU29       0.0297
     30  CG        12.9830  -36.8230   46.5400 C.3    29  LEU29       0.0022
     31  CD1       11.5170  -36.9890   46.4070 C.3    29  LEU29       0.0001
     32  CD2       13.3030  -35.8090   45.5520 C.3    29  LEU29       0.0001
     33  N         16.2360  -33.2680   47.5980 N.3    34  SER34      -0.1217
     34  CA        15.1440  -32.3650   47.3850 C.3    34  SER34       0.1889
     35  C         15.6350  -31.1310   46.6910 C.2    34  SER34       0.2288
     36  O         15.0690  -30.7440   45.7040 O.2    34  SER34      -0.2866
     37  CB        14.4350  -32.0090   48.6850 C.3    34  SER34       0.2089
     38  OG        13.6130  -33.0740   49.1150 O.3    34  SER34      -0.2183
     39  N         16.4190  -31.7260   42.9200 N.3    37  ALA37      -0.1231
     40  CA        15.3800  -31.9610   41.9510 C.3    37  ALA37       0.1694
     41  C         14.5660  -30.7650   41.6710 C.2    37  ALA37       0.2591
     42  O         13.8000  -30.7600   40.7400 O.2    37  ALA37      -0.2718
     43  CB        14.4770  -32.9650   42.4600 C.3    37  ALA37       0.0304
     44  N         14.6210  -29.7900   42.5330 N.am   38  LEU38      -0.1980
     45  CA        13.7930  -28.6280   42.4070 C.3    38  LEU38       0.1596
     46  C         14.5440  -27.4430   41.9140 C.2    38  LEU38       0.2287
     47  O         13.9820  -26.4060   41.7190 O.2    38  LEU38      -0.2864
     48  CB        13.1920  -28.3040   43.7350 C.3    38  LEU38       0.0297
     49  CG        12.3320  -29.3860   44.3210 C.3    38  LEU38       0.0022
     50  CD1       12.1330  -29.1320   45.7690 C.3    38  LEU38       0.0001
     51  CD2       11.0110  -29.4820   43.6290 C.3    38  LEU38       0.0001
     52  N         13.3190  -31.7850   37.1160 N.3    42  ALA42      -0.1231
     53  CA        12.2560  -31.5530   36.1850 C.3    42  ALA42       0.1694
     54  C         11.0190  -31.0500   36.8410 C.2    42  ALA42       0.2591
     55  O          9.9340  -31.2810   36.3910 O.2    42  ALA42      -0.2718
     56  CB        11.9520  -32.8190   35.4630 C.3    42  ALA42       0.0304
     57  N         11.2100  -30.3580   37.9380 N.am   43  ALA43      -0.1980
     58  CA        10.1470  -29.6200   38.5700 C.3    43  ALA43       0.1597
     59  C         10.6970  -28.7500   39.6050 C.2    43  ALA43       0.2287
     60  O         11.8500  -28.7350   39.7480 O.2    43  ALA43      -0.2864
     61  CB         9.1720  -30.5390   39.1710 C.3    43  ALA43       0.0319
     62  N          6.9850  -26.7550   48.9470 N.3    99  GLU99      -0.1245
     63  CA         7.3480  -28.0900   49.3190 C.3    99  GLU99       0.1567
     64  C          8.1090  -28.2330   50.5880 C.2    99  GLU99       0.2260
     65  O          8.9140  -27.4550   50.9660 O.2    99  GLU99      -0.2867
     66  CB         8.0660  -28.7740   48.1940 C.3    99  GLU99       0.0388
     67  CG         7.3240  -29.9610   47.7140 C.3    99  GLU99       0.1160
     68  CD         7.8770  -30.4730   46.4870 C.2    99  GLU99       0.3649
     69  OE1        8.0180  -29.7140   45.5560 O.co2  99  GLU99      -0.2457
     70  OE2        8.1360  -31.6440   46.4670 O.co2  99  GLU99      -0.2457
     71  N          8.0330  -39.3320   52.6400 N.3   104  ALA104     -0.1231
     72  CA         6.9110  -40.2370   52.3590 C.3   104  ALA104      0.1694
     73  C          7.2610  -41.3570   51.3660 C.2   104  ALA104      0.2592
     74  O          8.3080  -41.3210   50.7430 O.2   104  ALA104     -0.2718
     75  CB         5.7620  -39.4690   51.8550 C.3   104  ALA104      0.0304
     76  N          6.3740  -42.3360   51.2020 N.am  105  ARG105     -0.1966
     77  CA         6.7530  -43.5900   50.5500 C.3   105  ARG105      0.1729
     78  C          5.6310  -44.3090   49.8350 C.2   105  ARG105      0.2616
     79  O          4.5560  -44.4740   50.3880 O.2   105  ARG105     -0.2715
     80  CB         7.2690  -44.5730   51.5920 C.3   105  ARG105      0.0348
     81  CG         8.4240  -44.0810   52.4270 C.3   105  ARG105      0.0492
     82  CD         9.3220  -45.2360   52.8440 C.3   105  ARG105      0.2205
     83  NE         9.7810  -46.0080   51.6840 N.pl3 105  ARG105     -0.0865
     84  CZ        11.0430  -46.0800   51.2570 C.cat 105  ARG105      0.5346
     85  NH1       12.0230  -45.4490   51.9000 N.pl3 105  ARG105      0.1354
     86  NH2       11.3360  -46.8020   50.1830 N.pl3 105  ARG105      0.1354
     87  N          5.9230  -44.8120   48.6380 N.am  106  ASP106     -0.1971
     88  CA         4.9490  -45.5600   47.8440 C.3   106  ASP106      0.1709
     89  C          5.4450  -46.9820   47.5490 C.2   106  ASP106      0.2293
     90  O          6.2950  -47.1670   46.6880 O.2   106  ASP106     -0.2864
     91  CB         4.6980  -44.8070   46.5360 C.3   106  ASP106      0.1436
     92  CG         3.3970  -45.1910   45.8810 C.2   106  ASP106      0.3671
     93  OD1        2.4620  -45.5780   46.6070 O.co2 106  ASP106     -0.2456
     94  OD2        3.3070  -45.1000   44.6420 O.co2 106  ASP106     -0.2456
     95  N          4.8920  -48.9270   46.0370 N.3   108  ASP108     -0.1225
     96  CA         4.2730  -49.5440   44.8240 C.3   108  ASP108      0.1805
     97  C          2.9170  -50.3300   44.8310 C.2   108  ASP108      0.2598
     98  O          2.7060  -51.1120   43.9010 O.2   108  ASP108     -0.2718
     99  CB         5.3510  -50.3660   44.0460 C.3   108  ASP108      0.1424
    100  CG         5.6780  -51.7180   44.6940 C.2   108  ASP108      0.3668
    101  OD1        5.0500  -52.7430   44.3300 O.co2 108  ASP108     -0.2456
    102  OD2        6.5930  -51.7600   45.5420 O.co2 108  ASP108     -0.2456
    103  N          1.9730  -50.1180   45.7640 N.am  109  GLY109     -0.1957
    104  CA         2.0390  -49.1240   46.8230 C.3   109  GLY109      0.1869
    105  C          1.3290  -49.3290   48.1610 C.2   109  GLY109      0.2309
    106  O          0.1610  -49.7110   48.2210 O.2   109  GLY109     -0.2863
    107  N          1.2460  -46.6190   51.6060 N.3   111  PHE111     -0.1241
    108  CA         1.7740  -45.3190   51.9930 C.3   111  PHE111      0.1605
    109  C          2.2830  -45.2620   53.4340 C.2   111  PHE111      0.2264
    110  O          1.7010  -45.8450   54.3440 O.2   111  PHE111     -0.2867
    111  CB         0.7560  -44.2300   51.6730 C.3   111  PHE111      0.0534
    112  CG         0.6600  -43.9420   50.1950 C.ar  111  PHE111     -0.0203
    113  CD1       -0.0280  -44.7990   49.3400 C.ar  111  PHE111     -0.0042
    114  CD2        1.3030  -42.8330   49.6450 C.ar  111  PHE111     -0.0042
    115  CE1       -0.0910  -44.5300   47.9710 C.ar  111  PHE111     -0.0003
    116  CE2        1.2370  -42.5670   48.2780 C.ar  111  PHE111     -0.0003
    117  CZ         0.5430  -43.4060   47.4470 C.ar  111  PHE111     -0.0000
    118  N         -5.6190  -38.5780   42.6940 N.3   152  GLY152     -0.1210
    119  CA        -5.4050  -39.9540   42.3040 C.3   152  GLY152      0.1956
    120  C         -4.0000  -40.1230   41.8220 C.2   152  GLY152      0.2612
    121  O         -3.4610  -41.2230   41.7550 O.2   152  GLY152     -0.2717
    122  N         -3.3820  -39.0160   41.5210 N.am  153  ARG153     -0.1965
    123  CA        -2.0270  -39.0240   41.0570 C.3   153  ARG153      0.1729
    124  C         -1.1180  -38.7570   42.1990 C.2   153  ARG153      0.2616
    125  O         -0.0750  -39.3420   42.3270 O.2   153  ARG153     -0.2715
    126  CB        -1.8380  -37.9310   40.0320 C.3   153  ARG153      0.0348
    127  CG        -1.9320  -38.3260   38.6070 C.3   153  ARG153      0.0492
    128  CD        -1.5920  -37.1200   37.7970 C.3   153  ARG153      0.2205
    129  NE        -0.3130  -36.5450   38.1310 N.pl3 153  ARG153     -0.0865
    130  CZ        -0.1140  -35.2630   38.2930 C.cat 153  ARG153      0.5346
    131  NH1       -1.1100  -34.4360   38.2070 N.pl3 153  ARG153      0.1354
    132  NH2        1.0740  -34.8150   38.5600 N.pl3 153  ARG153      0.1354
    133  N         -1.5200  -37.8190   43.0120 N.am  154  LYS154     -0.1963
    134  CA        -0.6850  -37.3370   44.0380 C.3   154  LYS154      0.1728
    135  C         -1.3130  -37.5200   45.3650 C.2   154  LYS154      0.2617
    136  O         -2.4800  -37.3990   45.5070 O.2   154  LYS154     -0.2715
    137  CB        -0.4330  -35.8870   43.8080 C.3   154  LYS154      0.0311
    138  CG         0.2520  -35.5640   42.5020 C.3   154  LYS154      0.0038
    139  CD         1.5520  -36.3010   42.3290 C.3   154  LYS154      0.0206
    140  CE         2.7370  -35.3850   42.3250 C.3   154  LYS154      0.1093
    141  NZ         4.0300  -36.0800   42.2880 N.3   154  LYS154     -0.1314
    142  N         -0.4840  -37.8030   46.3480 N.am  155  SER155     -0.1936
    143  CA        -0.9170  -38.0300   47.6930 C.3   155  SER155      0.2055
    144  C         -0.1070  -37.1440   48.5880 C.2   155  SER155      0.2643
    145  O          0.1820  -37.5200   49.7080 O.2   155  SER155     -0.2714
    146  CB        -0.6920  -39.4840   48.0530 C.3   155  SER155      0.2130
    147  OG        -1.2960  -40.3190   47.0810 O.3   155  SER155     -0.2179
    148  N          0.1620  -35.9400   48.1570 N.am  156  ASP156     -0.1971
    149  CA         0.8510  -34.9810   48.9630 C.3   156  ASP156      0.1709
    150  C         -0.1950  -34.0360   49.3160 C.2   156  ASP156      0.2293
    151  O         -1.1190  -33.8950   48.5880 O.2   156  ASP156     -0.2864
    152  CB         1.9960  -34.2690   48.2520 C.3   156  ASP156      0.1436
    153  CG         2.1940  -34.6940   46.8780 C.2   156  ASP156      0.3671
    154  OD1        1.7920  -35.7990   46.5620 O.co2 156  ASP156     -0.2456
    155  OD2        2.7230  -33.9390   46.1130 O.co2 156  ASP156     -0.2456
@<TRIPOS>BOND
     1    56    53    1
     2    53    54    1
     3    53    52    1
     4    55    54    2
     5    54    57   am
     6   128   129    1
     7   128   127    1
     8    57    58    1
     9   129   130    2
    10   131   130    1
    11   130   132    1
    12    58    61    1
    13    58    59    1
    14   127   126    1
    15    59    60    2
    16   126   123    1
    17    42    41    2
    18   123   122    1
    19   123   124    1
    20   122   120   am
    21    41    40    1
    22    41    44   am
    23    47    46    2
    24   121   120    2
    25   120   119    1
    26    46    45    1
    27    40    43    1
    28    40    39    1
    29   124   125    2
    30   124   133   am
    31   141   140    1
    32   119   118    1
    33   140   139    1
    34   139   138    1
    35    45    44    1
    36    45    48    1
    37   138   137    1
    38   133   134    1
    39    51    49    1
    40    48    49    1
    41   137   134    1
    42    98    97    2
    43   134   135    1
    44    99   100    1
    45    99    96    1
    46    49    50    1
    47   101   100   ar
    48    94    92   ar
    49   100   102   ar
    50    96    97    1
    51    96    95    1
    52    97   103   am
    53   135   136    2
    54   135   142   am
    55    32    30    1
    56    69    68   ar
    57    36    35    2
    58   103   104    1
    59    92    91    1
    60    92    93   ar
    61   155   153   ar
    62   142   143    1
    63    31    30    1
    64    70    68   ar
    65    68    67    1
    66    91    88    1
    67    30    29    1
    68   154   153   ar
    69    90    89    2
    70    35    34    1
    71   104   105    1
    72   153   152    1
    73   147   146    1
    74    34    33    1
    75    34    37    1
    76    16    15    2
    77   117   115   ar
    78   117   116   ar
    79    89    88    1
    80   143   146    1
    81   143   144    1
    82    67    66    1
    83    88    87    1
    84    29    26    1
    85   115   113   ar
    86   148   144   am
    87   148   149    1
    88   105   106    2
    89    66    63    1
    90     4     3    2
    91   152   149    1
    92   116   114   ar
    93    15    14    1
    94    15    20   am
    95    14    17    1
    96    14    13    1
    97    24    21    1
    98   151   150    2
    99   144   145    2
   100    87    78   am
   101    37    38    1
   102    17    19    1
   103    17    18    1
   104    23    22    2
   105    62    63    1
   106   149   150    1
   107    26    25    1
   108    26    27    1
   109     3    13   am
   110     3     2    1
   111    22    25   am
   112    22    21    1
   113     9     7   ar
   114     9    11   ar
   115    12    11    1
   116    63    64    1
   117   113   112   ar
   118    21    20    1
   119     1     2    1
   120   114   112   ar
   121     7     6   ar
   122    11    10   ar
   123    78    79    2
   124    78    77    1
   125    86    84    1
   126   112   111    1
   127    27    28    2
   128     2     5    1
   129    77    76    1
   130    77    80    1
   131    64    65    2
   132     6     8   ar
   133     6     5    1
   134    10     8   ar
   135    74    73    2
   136    76    73   am
   137    84    83    2
   138    84    85    1
   139    73    72    1
   140    80    81    1
   141   107   108    1
   142   111   108    1
   143    83    82    1
   144    75    72    1
   145   108   109    1
   146    72    71    1
   147    81    82    1
   148   109   110    2
