@<TRIPOS>MOLECULE
tmp/4bxeA00.pdb
 207 200 0 0 0
SMALL
GASTEIGER

@<TRIPOS>ATOM
      1  N         -6.8900    4.9360   18.9830 N.3    25  HIS25      -0.1226
      2  CA        -8.2530    4.4390   19.0470 C.3    25  HIS25       0.1752
      3  C         -8.4040    3.0740   19.6350 C.2    25  HIS25       0.2596
      4  O         -7.4620    2.3170   19.6930 O.2    25  HIS25      -0.2718
      5  CB        -8.8860    4.3790   17.6760 C.3    25  HIS25       0.0759
      6  CG        -8.4910    5.4780   16.7540 C.ar   25  HIS25       0.0818
      7  ND1       -9.2620    6.5170   16.5220 N.ar   25  HIS25      -0.2268
      8  CD2       -7.4130    5.6160   15.9530 C.ar   25  HIS25       0.1154
      9  CE1       -8.6800    7.3060   15.6600 C.ar   25  HIS25       0.1986
     10  NE2       -7.5520    6.7500   15.3050 N.ar   25  HIS25      -0.2212
     11  N         -9.6160    2.7390   20.0480 N.am   26  TYR26      -0.1962
     12  CA        -9.9970    1.3650   20.3440 C.3    26  TYR26       0.1771
     13  C        -10.9680    0.9170   19.2880 C.2    26  TYR26       0.2620
     14  O        -11.6930    1.7000   18.7500 O.2    26  TYR26      -0.2715
     15  CB       -10.5490    1.1700   21.7670 C.3    26  TYR26       0.0574
     16  CG       -11.8310    1.8880   22.1240 C.ar   26  TYR26      -0.0198
     17  CD1      -12.9000    1.8740   21.2830 C.ar   26  TYR26      -0.0009
     18  CD2      -11.9630    2.5520   23.3150 C.ar   26  TYR26      -0.0009
     19  CE1      -14.0580    2.5160   21.5990 C.ar   26  TYR26       0.0417
     20  CE2      -13.1200    3.1900   23.6420 C.ar   26  TYR26       0.0417
     21  CZ       -14.1600    3.1700   22.7730 C.ar   26  TYR26       0.1957
     22  OH       -15.3310    3.8030   23.0770 O.3    26  TYR26      -0.2866
     23  N        -10.9240   -0.3490   18.9540 N.am   27  THR27      -0.1937
     24  CA       -11.6320   -0.8620   17.8310 C.3    27  THR27       0.2028
     25  C        -13.0690   -1.0260   18.2170 C.2    27  THR27       0.2642
     26  O        -13.9560   -0.6190   17.5180 O.2    27  THR27      -0.2714
     27  CB       -10.9960   -2.1850   17.4490 C.3    27  THR27       0.1808
     28  OG1      -11.5380   -2.6700   16.2370 O.3    27  THR27      -0.2208
     29  CG2      -11.2110   -3.1740   18.4850 C.3    27  THR27       0.0379
     30  N        -13.2730   -1.6260   19.3740 N.am   28  ALA28      -0.1963
     31  CA       -14.5770   -1.8700   19.9430 C.3    28  ALA28       0.1728
     32  C        -15.2350   -3.0850   19.3550 C.2    28  ALA28       0.2616
     33  O        -16.4040   -3.2510   19.4790 O.2    28  ALA28      -0.2715
     34  CB       -15.4550   -0.6670   19.7620 C.3    28  ALA28       0.0334
     35  N        -14.4610   -3.9370   18.7270 N.am   29  LEU29      -0.1977
     36  CA       -14.9610   -5.0020   17.9380 C.3    29  LEU29       0.1596
     37  C        -13.8870   -6.0140   18.0640 C.2    29  LEU29       0.2287
     38  O        -12.8060   -5.6660   18.3900 O.2    29  LEU29      -0.2864
     39  CB       -14.9740   -4.5350   16.5270 C.3    29  LEU29       0.0297
     40  CG       -16.2160   -4.1290   15.7720 C.3    29  LEU29       0.0022
     41  CD1      -16.8700   -2.8830   16.2890 C.3    29  LEU29       0.0001
     42  CD2      -15.8240   -3.9280   14.3370 C.3    29  LEU29       0.0001
     43  N        -13.1040   -6.0990   13.1940 N.3    34  SER34      -0.1217
     44  CA       -12.3370   -4.8650   13.0630 C.3    34  SER34       0.1889
     45  C        -11.4660   -4.8050   11.8010 C.2    34  SER34       0.2288
     46  O        -11.3840   -3.7660   11.1510 O.2    34  SER34      -0.2866
     47  CB       -11.5090   -4.5990   14.3270 C.3    34  SER34       0.2089
     48  OG       -10.7350   -5.7180   14.7150 O.3    34  SER34      -0.2183
     49  N        -13.6340   -4.4720    8.8010 N.3    37  ALA37      -0.1231
     50  CA       -13.9850   -3.0910    8.6830 C.3    37  ALA37       0.1694
     51  C        -12.9050   -2.3010    8.0380 C.2    37  ALA37       0.2591
     52  O        -13.0560   -1.8720    6.9390 O.2    37  ALA37      -0.2718
     53  CB       -14.2460   -2.5200   10.0360 C.3    37  ALA37       0.0304
     54  N        -11.8100   -2.1080    8.7550 N.am   38  LEU38      -0.1980
     55  CA       -10.7640   -1.1560    8.4180 C.3    38  LEU38       0.1596
     56  C        -10.0570   -1.4130    7.1140 C.2    38  LEU38       0.2287
     57  O         -9.3440   -0.5670    6.6220 O.2    38  LEU38      -0.2864
     58  CB        -9.7340   -1.0670    9.5470 C.3    38  LEU38       0.0297
     59  CG       -10.1870   -0.7200   10.9530 C.3    38  LEU38       0.0022
     60  CD1       -9.0770   -0.9620   11.9260 C.3    38  LEU38       0.0001
     61  CD2      -10.6300    0.6990   11.0710 C.3    38  LEU38       0.0001
     62  N        -16.0170    1.5460    5.9620 N.3    42  ALA42      -0.1231
     63  CA       -16.1980    2.9960    5.7980 C.3    42  ALA42       0.1694
     64  C        -15.2090    3.8270    6.6420 C.2    42  ALA42       0.2592
     65  O        -15.3060    5.0660    6.7080 O.2    42  ALA42      -0.2718
     66  CB       -17.6360    3.3840    6.1100 C.3    42  ALA42       0.0304
     67  N        -14.2390    3.1380    7.2300 N.am   43  ALA43      -0.1966
     68  CA       -13.1190    3.7270    7.9220 C.3    43  ALA43       0.1728
     69  C        -11.8920    2.8360    7.8730 C.2    43  ALA43       0.2616
     70  O        -12.0090    1.6720    7.6730 O.2    43  ALA43      -0.2715
     71  CB       -13.4930    3.9920    9.3430 C.3    43  ALA43       0.0334
     72  N        -10.7100    3.4220    8.0550 N.am   44  SER44      -0.1950
     73  CA        -9.4200    2.7130    8.1270 C.3    44  SER44       0.1924
     74  C         -8.4910    3.2650    9.2260 C.2    44  SER44       0.2314
     75  O         -8.8210    4.2400    9.8900 O.2    44  SER44      -0.2863
     76  CB        -8.6960    2.7750    6.7850 C.3    44  SER44       0.2116
     77  OG        -8.4150    4.1140    6.4340 O.3    44  SER44      -0.2180
     78  N         -3.3090    8.4310    3.4050 N.3    76  ARG76      -0.1245
     79  CA        -4.2550    9.0070    4.3450 C.3    76  ARG76       0.1563
     80  C         -5.3710    8.0600    4.7260 C.2    76  ARG76       0.2260
     81  O         -6.1390    7.6690    3.9000 O.2    76  ARG76      -0.2867
     82  CB        -4.8700   10.2130    3.6970 C.3    76  ARG76       0.0307
     83  CG        -5.7990   11.0000    4.5510 C.3    76  ARG76       0.0489
     84  CD        -6.6250   11.9140    3.7220 C.3    76  ARG76       0.2205
     85  NE        -7.6660   12.4940    4.5240 N.pl3  76  ARG76      -0.0865
     86  CZ        -8.9200   12.5890    4.1510 C.cat  76  ARG76       0.5346
     87  NH1       -9.2720   12.1290    2.9840 N.pl3  76  ARG76       0.1354
     88  NH2       -9.8040   13.1360    4.9350 N.pl3  76  ARG76       0.1354
     89  N         -8.8550    6.8460    7.0460 N.3    78  TRP78      -0.1227
     90  CA       -10.0250    7.4830    7.5600 C.3    78  TRP78       0.1737
     91  C        -10.2570    7.0390    8.9530 C.2    78  TRP78       0.2595
     92  O        -11.1120    6.2190    9.2210 O.2    78  TRP78      -0.2718
     93  CB       -11.2320    7.1790    6.7010 C.3    78  TRP78       0.0564
     94  CG       -11.0560    7.5410    5.2600 C.ar   78  TRP78       0.0003
     95  CD1      -10.1160    8.3720    4.7200 C.ar   78  TRP78       0.0946
     96  CD2      -11.8500    7.0980    4.1270 C.ar   78  TRP78       0.0152
     97  NE1      -10.2590    8.4590    3.3850 N.ar   78  TRP78      -0.2442
     98  CE2      -11.2750    7.7210    2.9650 C.ar   78  TRP78       0.0810
     99  CE3      -12.9260    6.2660    3.9680 C.ar   78  TRP78       0.0012
    100  CZ2      -11.7790    7.5220    1.7100 C.ar   78  TRP78       0.0191
    101  CZ3      -13.4210    6.0730    2.6990 C.ar   78  TRP78       0.0001
    102  CH2      -12.8600    6.6830    1.5980 C.ar   78  TRP78       0.0015
    103  N         -9.4940    7.6050    9.8660 N.am   79  HIS79      -0.1961
    104  CA        -9.4760    7.1750   11.2100 C.3    79  HIS79       0.1787
    105  C         -9.9720    8.1810   12.1650 C.2    79  HIS79       0.2620
    106  O        -10.2490    7.8410   13.2860 O.2    79  HIS79      -0.2715
    107  CB        -8.0780    6.7390   11.5880 C.3    79  HIS79       0.0785
    108  CG        -7.0890    7.8590   11.7310 C.ar   79  HIS79       0.0821
    109  ND1       -6.7880    8.4020   12.8930 N.ar   79  HIS79      -0.2267
    110  CD2       -6.3120    8.4840   10.8140 C.ar   79  HIS79       0.1154
    111  CE1       -5.8940    9.3490   12.7230 C.ar   79  HIS79       0.1986
    112  NE2       -5.6030    9.3990   11.4510 N.ar   79  HIS79      -0.2212
    113  N        -10.0970    9.4270   11.7630 N.am   80  ALA80      -0.1963
    114  CA       -10.3690   10.4780   12.7070 C.3    80  ALA80       0.1728
    115  C        -11.5760   11.3180   12.4060 C.2    80  ALA80       0.2617
    116  O        -12.0360   12.0200   13.2440 O.2    80  ALA80      -0.2715
    117  CB        -9.1570   11.3460   12.8510 C.3    80  ALA80       0.0334
    118  N        -12.0900   11.2380   11.2050 N.am   81  GLY81      -0.1940
    119  CA       -13.3090   11.9110   10.8650 C.3    81  GLY81       0.2014
    120  C        -13.2290   13.3400   11.2140 C.2    81  GLY81       0.2638
    121  O        -12.1670   13.8660   11.2140 O.2    81  GLY81      -0.2714
    122  N        -14.3520   13.9570   11.5230 N.am   82  VAL82      -0.1977
    123  CA       -14.4170   15.3930   11.7570 C.3    82  VAL82       0.1596
    124  C        -13.8260   15.7720   13.0750 C.2    82  VAL82       0.2287
    125  O        -14.3260   15.4050   14.0820 O.2    82  VAL82      -0.2864
    126  CB       -15.8340   15.9790   11.4850 C.3    82  VAL82       0.0276
    127  CG1      -16.8960   14.9180   11.3820 C.3    82  VAL82       0.0022
    128  CG2      -16.2420   17.1080   12.3980 C.3    82  VAL82       0.0022
    129  N         -7.7100   21.2850   11.4230 N.3    89  ASP89      -0.1225
    130  CA        -9.1050   20.8790   11.5370 C.3    89  ASP89       0.1805
    131  C         -9.5580   19.6020   10.8420 C.2    89  ASP89       0.2597
    132  O        -10.7160   19.2070   10.9740 O.2    89  ASP89      -0.2718
    133  CB       -10.0270   22.0330   11.1490 C.3    89  ASP89       0.1424
    134  CG        -9.8860   22.4390    9.6920 C.2    89  ASP89       0.3668
    135  OD1       -9.9430   21.5630    8.7910 O.co2  89  ASP89      -0.2456
    136  OD2       -9.7220   23.6560    9.4550 O.co2  89  ASP89      -0.2456
    137  N         -8.7010   18.8850   10.1670 N.am   90  ASN90      -0.1974
    138  CA        -9.1930   17.6700    9.5660 C.3    90  ASN90       0.1688
    139  C         -8.1140   16.6550    9.6210 C.2    90  ASN90       0.2292
    140  O         -7.4230   16.4560    8.6870 O.2    90  ASN90      -0.2864
    141  CB        -9.6030   17.9530    8.1410 C.3    90  ASN90       0.1181
    142  CG       -10.4080   16.8660    7.5430 C.2    90  ASN90       0.2629
    143  OD1      -10.2720   15.7430    7.8980 O.2    90  ASN90      -0.2716
    144  ND2      -11.2430   17.2050    6.6230 N.am   90  ASN90      -0.0877
    145  N         -7.0120   13.6590    9.4610 N.3    92  ASN92      -0.1240
    146  CA        -6.5590   12.5390    8.6400 C.3    92  ASN92       0.1653
    147  C         -5.4040   12.9940    7.7500 C.2    92  ASN92       0.2266
    148  O         -4.4120   12.2880    7.5680 O.2    92  ASN92      -0.2867
    149  CB        -7.7050   11.9950    7.7870 C.3    92  ASN92       0.1155
    150  CG        -8.9790   11.7950    8.5830 C.2    92  ASN92       0.2627
    151  OD1       -9.3240   10.6720    8.9530 O.2    92  ASN92      -0.2716
    152  ND2       -9.6870   12.8860    8.8520 N.am   92  ASN92      -0.0877
    153  N         -4.8780    2.0270   15.8600 N.3    99  GLU99      -0.1245
    154  CA        -6.0290    1.3750   16.4030 C.3    99  GLU99       0.1567
    155  C         -5.7050    0.1050   17.1220 C.2    99  GLU99       0.2260
    156  O         -5.0310   -0.7460   16.6230 O.2    99  GLU99      -0.2867
    157  CB        -7.0370    1.0960   15.3280 C.3    99  GLU99       0.0388
    158  CG        -8.3830    0.7520   15.8850 C.3    99  GLU99       0.1160
    159  CD        -9.4390    1.6760   15.4230 C.2    99  GLU99       0.3649
    160  OE1       -9.2810    2.2910   14.3970 O.co2  99  GLU99      -0.2457
    161  OE2      -10.4440    1.7920   16.0820 O.co2  99  GLU99      -0.2457
    162  N        -20.8470    1.1540   24.2740 N.3   106  ASP106     -0.1239
    163  CA       -21.1470    2.5770   24.0790 C.3   106  ASP106      0.1674
    164  C        -22.6340    2.9310   23.9730 C.2   106  ASP106      0.2266
    165  O        -23.0670    3.9680   24.4910 O.2   106  ASP106     -0.2867
    166  CB       -20.3560    3.1520   22.8710 C.3   106  ASP106      0.1410
    167  CG       -20.5870    2.3790   21.5590 C.2   106  ASP106      0.3668
    168  OD1      -20.8990    1.1690   21.6040 O.co2 106  ASP106     -0.2456
    169  OD2      -20.4380    2.9900   20.4730 O.co2 106  ASP106     -0.2456
    170  N         -8.6520    9.9950   20.2550 N.3   146  HIS146     -0.1241
    171  CA        -9.7780   10.3290   19.4540 C.3   146  HIS146      0.1621
    172  C        -10.7640   11.0960   20.2220 C.2   146  HIS146      0.2264
    173  O        -11.4740   11.9120   19.6950 O.2   146  HIS146     -0.2867
    174  CB       -10.4120    9.0590   18.9540 C.3   146  HIS146      0.0745
    175  CG       -11.1910    9.2040   17.6610 C.ar  146  HIS146      0.0817
    176  ND1      -11.6200    8.1620   16.9820 N.ar  146  HIS146     -0.2268
    177  CD2      -11.6170   10.3010   16.9770 C.ar  146  HIS146      0.1154
    178  CE1      -12.2790    8.5680   15.9240 C.ar  146  HIS146      0.1986
    179  NE2      -12.2750    9.8700   15.9180 N.ar  146  HIS146     -0.2212
    180  N        -18.0770   13.4290   20.7350 N.3   153  ARG153     -0.1231
    181  CA       -18.4930   12.5780   19.6290 C.3   153  ARG153      0.1694
    182  C        -17.8410   11.2010   19.6950 C.2   153  ARG153      0.2591
    183  O        -18.3220   10.2550   19.0720 O.2   153  ARG153     -0.2718
    184  CB       -18.1720   13.2470   18.2910 C.3   153  ARG153      0.0321
    185  CG       -19.1720   12.9410   17.1880 C.3   153  ARG153      0.0489
    186  CD       -18.6800   13.4430   15.8410 C.3   153  ARG153      0.2205
    187  NE       -17.8350   12.4620   15.1660 N.pl3 153  ARG153     -0.0865
    188  CZ       -16.5240   12.5980   14.9950 C.cat 153  ARG153      0.5346
    189  NH1      -15.9020   13.6770   15.4490 N.pl3 153  ARG153      0.1354
    190  NH2      -15.8350   11.6540   14.3690 N.pl3 153  ARG153      0.1354
    191  N        -16.7480   11.0840   20.4450 N.am  154  LYS154     -0.1980
    192  CA       -16.0690    9.8110   20.5430 C.3   154  LYS154      0.1596
    193  C        -15.4750    9.6080   21.9100 C.2   154  LYS154      0.2287
    194  O        -15.1980   10.5650   22.5940 O.2   154  LYS154     -0.2864
    195  CB       -14.9830    9.6750   19.4760 C.3   154  LYS154      0.0298
    196  CG       -15.4880    9.6930   18.0570 C.3   154  LYS154      0.0038
    197  CD       -15.4200    8.3390   17.4270 C.3   154  LYS154      0.0206
    198  CE       -16.5210    8.1930   16.4300 C.3   154  LYS154      0.1093
    199  NZ       -16.9630    6.7970   16.3350 N.3   154  LYS154     -0.1314
    200  N        -12.9630    6.7890   22.5120 N.3   156  ASP156     -0.1239
    201  CA       -11.6840    6.0690   22.4760 C.3   156  ASP156      0.1674
    202  C        -10.5200    7.0500   22.6160 C.2   156  ASP156      0.2266
    203  O        -10.7010    8.2470   22.3900 O.2   156  ASP156     -0.2867
    204  CB       -11.5510    5.2710   21.1780 C.3   156  ASP156      0.1410
    205  CG       -12.0730    6.0280   19.9730 C.2   156  ASP156      0.3668
    206  OD1      -13.1890    6.5840   20.0560 O.co2 156  ASP156     -0.2456
    207  OD2      -11.3680    6.0670   18.9430 O.co2 156  ASP156     -0.2456
@<TRIPOS>BOND
     1   102   100   ar
     2   102   101   ar
     3   100    98   ar
     4   101    99   ar
     5    98    97   ar
     6    98    96   ar
     7    87    86    1
     8    97    95   ar
     9    78    79    1
    10    82    79    1
    11    82    83    1
    12    84    85    1
    13    84    83    1
    14    81    80    2
    15    99    96   ar
    16    96    94   ar
    17    86    85    2
    18    86    88    1
    19    79    80    1
    20    95    94   ar
    21    94    93    1
    22    63    62    1
    23    63    66    1
    24    63    64    1
    25    77    76    1
    26    57    56    2
    27   144   142   am
    28    64    65    2
    29    64    67   am
    30    93    90    1
    31    76    73    1
    32    52    51    2
    33    89    90    1
    34    56    55    1
    35    67    68    1
    36   142   143    2
    37   142   141    1
    38    90    91    1
    39   148   147    2
    40    70    69    2
    41   147   146    1
    42   149   150    1
    43   149   146    1
    44    69    68    1
    45    69    72   am
    46    68    71    1
    47    51    50    1
    48    51    54   am
    49    72    73    1
    50    73    74    1
    51   141   138    1
    52    55    54    1
    53    55    58    1
    54   150   152   am
    55   150   151    2
    56   146   145    1
    57    50    49    1
    58    50    53    1
    59   140   139    2
    60   135   134   ar
    61    91    92    2
    62    91   103   am
    63    74    75    2
    64   136   134   ar
    65    58    59    1
    66   138   139    1
    67   138   137    1
    68   134   133    1
    69   103   104    1
    70   137   131   am
    71   110   112   ar
    72   110   108   ar
    73   131   132    2
    74   131   130    1
    75   119   118    1
    76   119   120    1
    77    59    61    1
    78    59    60    1
    79   133   130    1
    80    46    45    2
    81   118   115   am
    82   104   107    1
    83   104   105    1
    84   121   120    2
    85   120   122   am
    86   127   126    1
    87   129   130    1
    88   112   111   ar
    89   126   123    1
    90   126   128    1
    91   122   123    1
    92   107   108    1
    93   108   109   ar
    94   123   124    1
    95   113   105   am
    96   113   114    1
    97    45    44    1
    98   105   106    2
    99   115   114    1
   100   115   116    2
   101   114   117    1
   102   111   109   ar
   103    44    43    1
   104    44    47    1
   105   124   125    2
   106    47    48    1
   107    42    40    1
   108   190   188    1
   109   160   159   ar
   110   188   187    2
   111   188   189    1
   112   187   186    1
   113    10     9   ar
   114    10     8   ar
   115   157   158    1
   116   157   154    1
   117   159   158    1
   118   159   161   ar
   119     9     7   ar
   120    40    41    1
   121    40    39    1
   122   186   185    1
   123   153   154    1
   124   179   178   ar
   125   179   177   ar
   126   178   176   ar
   127     8     6   ar
   128    28    27    1
   129   199   198    1
   130   154   155    1
   131   198   197    1
   132     7     6   ar
   133    39    36    1
   134   156   155    2
   135     6     5    1
   136   177   175   ar
   137   176   175   ar
   138   185   184    1
   139   197   196    1
   140    27    24    1
   141    27    29    1
   142    26    25    2
   143   175   174    1
   144     5     2    1
   145    24    25    1
   146    24    23    1
   147    36    37    1
   148    36    35    1
   149   196   195    1
   150    37    38    2
   151    25    30   am
   152   184   181    1
   153    35    32   am
   154    14    13    2
   155   207   205   ar
   156    23    13   am
   157   174   171    1
   158     1     2    1
   159     2     3    1
   160   183   182    2
   161    13    12    1
   162    32    33    2
   163    32    31    1
   164    30    31    1
   165   171   172    1
   166   171   170    1
   167   195   192    1
   168   181   182    1
   169   181   180    1
   170     3     4    2
   171     3    11   am
   172   182   191   am
   173   173   172    2
   174    34    31    1
   175   205   206   ar
   176   205   204    1
   177    11    12    1
   178    12    15    1
   179   191   192    1
   180   169   167   ar
   181   192   193    1
   182   204   201    1
   183    17    19   ar
   184    17    16   ar
   185   167   168   ar
   186   167   166    1
   187    19    21   ar
   188    15    16    1
   189   193   194    2
   190    16    18   ar
   191   203   202    2
   192   201   200    1
   193   201   202    1
   194    21    22    1
   195    21    20   ar
   196   166   163    1
   197    18    20   ar
   198   164   163    1
   199   164   165    2
   200   163   162    1
