@<TRIPOS>MOLECULE
tmp/4bxfA01.pdb
 146 139 0 0 0
SMALL
GASTEIGER

@<TRIPOS>ATOM
      1  N         -6.5810  -16.0390  -44.8010 N.3   105  THR105     -0.1218
      2  CA        -5.2340  -15.5220  -44.9150 C.3   105  THR105      0.1862
      3  C         -4.3720  -16.2520  -43.8680 C.2   105  THR105      0.2287
      4  O         -4.8200  -16.4950  -42.7400 O.2   105  THR105     -0.2866
      5  CB        -5.1970  -13.9970  -44.6370 C.3   105  THR105      0.1770
      6  OG1       -5.5730  -13.2820  -45.8240 O.3   105  THR105     -0.2211
      7  CG2       -3.7850  -13.5600  -44.2040 C.3   105  THR105      0.0375
      8  N          2.4990  -12.6980  -44.5160 N.3   138  TYR138     -0.1241
      9  CA         1.0590  -12.7300  -44.7820 C.3   138  TYR138      0.1605
     10  C          0.8560  -13.3340  -46.1690 C.2   138  TYR138      0.2264
     11  O          1.4050  -12.8270  -47.1570 O.2   138  TYR138     -0.2867
     12  CB         0.4620  -11.3170  -44.7720 C.3   138  TYR138      0.0534
     13  CG         0.5530  -10.6070  -43.4450 C.ar  138  TYR138     -0.0201
     14  CD1        1.7150   -9.9270  -43.0860 C.ar  138  TYR138     -0.0009
     15  CD2       -0.5040  -10.6390  -42.5300 C.ar  138  TYR138     -0.0009
     16  CE1        1.8260   -9.2950  -41.8680 C.ar  138  TYR138      0.0417
     17  CE2       -0.3990   -9.9990  -41.2900 C.ar  138  TYR138      0.0417
     18  CZ         0.7730   -9.3240  -40.9760 C.ar  138  TYR138      0.1957
     19  OH         0.9010   -8.6020  -39.8120 O.3   138  TYR138     -0.2866
     20  N         -2.2470  -14.4410  -48.6690 N.3   140  THR140     -0.1218
     21  CA        -3.6740  -14.2590  -48.9170 C.3   140  THR140      0.1862
     22  C         -4.0790  -14.8360  -50.2730 C.2   140  THR140      0.2287
     23  O         -3.5050  -14.4980  -51.3120 O.2   140  THR140     -0.2866
     24  CB        -4.0180  -12.7380  -48.8560 C.3   140  THR140      0.1770
     25  OG1       -3.7490  -12.2630  -47.5340 O.3   140  THR140     -0.2211
     26  CG2       -5.4980  -12.4490  -49.2000 C.3   140  THR140      0.0375
     27  N         -7.7730  -10.6810  -45.8860 N.3   146  GLY146     -0.1210
     28  CA        -7.6120  -11.2980  -44.5820 C.3   146  GLY146      0.1956
     29  C         -7.8620  -10.4220  -43.3750 C.2   146  GLY146      0.2611
     30  O         -8.3340  -10.9040  -42.3480 O.2   146  GLY146     -0.2717
     31  N         -7.5380   -9.1370  -43.4900 N.am  147  LEU147     -0.1979
     32  CA        -7.7130   -8.2020  -42.3820 C.3   147  LEU147      0.1596
     33  C         -8.4540   -6.9210  -42.7450 C.2   147  LEU147      0.2287
     34  O         -8.3080   -6.3870  -43.8430 O.2   147  LEU147     -0.2864
     35  CB        -6.3500   -7.8200  -41.7890 C.3   147  LEU147      0.0297
     36  CG        -5.4980   -8.9370  -41.1680 C.3   147  LEU147      0.0022
     37  CD1       -4.1460   -8.3820  -40.7270 C.3   147  LEU147      0.0001
     38  CD2       -6.2410   -9.5380  -39.9840 C.3   147  LEU147      0.0001
     39  N         -6.8920   -1.0770  -40.5010 N.3   150  HIS150     -0.1241
     40  CA        -6.3400   -0.9240  -39.1560 C.3   150  HIS150      0.1621
     41  C         -4.9720   -0.2600  -39.1950 C.2   150  HIS150      0.2264
     42  O         -4.4660    0.0910  -40.2590 O.2   150  HIS150     -0.2867
     43  CB        -6.1750   -2.3070  -38.5120 C.3   150  HIS150      0.0745
     44  CG        -5.1180   -3.1460  -39.1600 C.ar  150  HIS150      0.0817
     45  ND1       -5.2990   -3.7610  -40.3830 N.ar  150  HIS150     -0.2268
     46  CD2       -3.8410   -3.4150  -38.7910 C.ar  150  HIS150      0.1154
     47  CE1       -4.1800   -4.3710  -40.7400 C.ar  150  HIS150      0.1986
     48  NE2       -3.2780   -4.1760  -39.7930 N.ar  150  HIS150     -0.2212
     49  N         -0.9510   -0.3570  -36.9670 N.3   152  ASP152     -0.1239
     50  CA        -0.1280   -1.0720  -35.9970 C.3   152  ASP152      0.1674
     51  C          0.7690   -0.1170  -35.2090 C.2   152  ASP152      0.2266
     52  O          0.8020    1.0820  -35.4920 O.2   152  ASP152     -0.2867
     53  CB         0.6930   -2.1490  -36.7090 C.3   152  ASP152      0.1410
     54  CG        -0.1870   -3.1330  -37.4670 C.2   152  ASP152      0.3668
     55  OD1       -1.0180   -3.8170  -36.8330 O.co2 152  ASP152     -0.2456
     56  OD2       -0.0440   -3.2070  -38.7040 O.co2 152  ASP152     -0.2456
     57  N          7.1750   -0.1810  -40.3110 N.3   156  VAL156     -0.1245
     58  CA         7.2510   -1.3690  -41.1440 C.3   156  VAL156      0.1561
     59  C          7.8160   -1.1830  -42.5490 C.2   156  VAL156      0.2260
     60  O          7.6780   -0.1330  -43.1790 O.2   156  VAL156     -0.2867
     61  CB         5.8540   -2.0620  -41.2640 C.3   156  VAL156      0.0252
     62  CG1        5.3070   -2.3840  -39.8690 C.3   156  VAL156      0.0019
     63  CG2        4.8780   -1.1810  -42.0440 C.3   156  VAL156      0.0019
     64  N          7.5580   -3.3820  -45.8980 N.3   158  ILE158     -0.1245
     65  CA         6.8540   -4.5040  -46.5030 C.3   158  ILE158      0.1561
     66  C          7.4950   -4.9050  -47.8310 C.2   158  ILE158      0.2260
     67  O          7.6920   -4.0720  -48.7080 O.2   158  ILE158     -0.2867
     68  CB         5.3720   -4.1280  -46.7050 C.3   158  ILE158      0.0252
     69  CG1        4.6930   -4.0560  -45.3300 C.3   158  ILE158      0.0019
     70  CG2        4.6660   -5.1230  -47.6370 C.3   158  ILE158      0.0019
     71  CD1        3.4250   -3.2700  -45.3440 C.3   158  ILE158      0.0001
     72  N         -0.8460   -7.5220  -54.8350 N.3   165  LYS165     -0.1245
     73  CA        -1.8500   -7.1990  -53.8450 C.3   165  LYS165      0.1561
     74  C         -2.2630   -5.7390  -53.9830 C.2   165  LYS165      0.2260
     75  O         -1.4440   -4.8790  -54.2810 O.2   165  LYS165     -0.2867
     76  CB        -1.3290   -7.4900  -52.4350 C.3   165  LYS165      0.0271
     77  CG        -2.4470   -7.6870  -51.4210 C.3   165  LYS165      0.0035
     78  CD        -1.9610   -8.4100  -50.1830 C.3   165  LYS165      0.0206
     79  CE        -3.1220   -8.8560  -49.3250 C.3   165  LYS165      0.1093
     80  NZ        -2.6470   -9.6580  -48.1730 N.3   165  LYS165     -0.1314
     81  N         -3.4300   -2.4000  -52.3580 N.3   167  TRP167     -0.1241
     82  CA        -3.2890   -1.7080  -51.0880 C.3   167  TRP167      0.1605
     83  C         -3.9280   -0.3390  -51.0350 C.2   167  TRP167      0.2264
     84  O         -3.9200    0.4040  -52.0150 O.2   167  TRP167     -0.2867
     85  CB        -1.8190   -1.5380  -50.7670 C.3   167  TRP167      0.0550
     86  CG        -1.1360   -2.7240  -50.1510 C.ar  167  TRP167      0.0003
     87  CD1       -0.6690   -3.8560  -50.7870 C.ar  167  TRP167      0.0946
     88  CD2       -0.7700   -2.9060  -48.7480 C.ar  167  TRP167      0.0152
     89  NE1       -0.0780   -4.7010  -49.9020 N.ar  167  TRP167     -0.2442
     90  CE2       -0.1040   -4.1950  -48.6670 C.ar  167  TRP167      0.0810
     91  CE3       -0.9290   -2.1610  -47.6000 C.ar  167  TRP167      0.0012
     92  CZ2        0.3730   -4.6970  -47.4770 C.ar  167  TRP167      0.0191
     93  CZ3       -0.4520   -2.6800  -46.4060 C.ar  167  TRP167      0.0001
     94  CH2        0.1840   -3.9160  -46.3480 C.ar  167  TRP167      0.0015
     95  N          5.8110    2.4640  -44.2010 N.3   205  PHE205     -0.1241
     96  CA         4.9830    3.4780  -43.5720 C.3   205  PHE205      0.1605
     97  C          5.1440    3.5250  -42.0580 C.2   205  PHE205      0.2264
     98  O          5.4680    2.5280  -41.4400 O.2   205  PHE205     -0.2867
     99  CB         3.5060    3.3930  -43.9820 C.3   205  PHE205      0.0534
    100  CG         2.8570    2.0770  -43.7060 C.ar  205  PHE205     -0.0203
    101  CD1        2.5360    1.7060  -42.4240 C.ar  205  PHE205     -0.0042
    102  CD2        2.5320    1.2290  -44.7420 C.ar  205  PHE205     -0.0042
    103  CE1        1.9180    0.5040  -42.1710 C.ar  205  PHE205     -0.0003
    104  CE2        1.9140    0.0270  -44.5010 C.ar  205  PHE205     -0.0003
    105  CZ         1.6030   -0.3390  -43.2130 C.ar  205  PHE205     -0.0000
    106  N         -4.2710    1.1000  -42.8550 N.3   211  HIS211     -0.1226
    107  CA        -4.1460    0.3870  -44.1080 C.3   211  HIS211      0.1752
    108  C         -5.0330   -0.8290  -44.1960 C.2   211  HIS211      0.2596
    109  O         -5.5700   -1.2960  -43.1980 O.2   211  HIS211     -0.2718
    110  CB        -2.6940   -0.0580  -44.3030 C.3   211  HIS211      0.0759
    111  CG        -2.1480   -0.8640  -43.1610 C.ar  211  HIS211      0.0818
    112  ND1       -1.6990   -0.2900  -41.9890 N.ar  211  HIS211     -0.2268
    113  CD2       -1.9530   -2.1980  -43.0220 C.ar  211  HIS211      0.1154
    114  CE1       -1.2480   -1.2340  -41.1800 C.ar  211  HIS211      0.1986
    115  NE2       -1.3930   -2.4010  -41.7830 N.ar  211  HIS211     -0.2212
    116  N         -5.1760   -1.3280  -45.4150 N.am  212  GLN212     -0.1965
    117  CA        -5.9520   -2.5320  -45.6950 C.3   212  GLN212      0.1733
    118  C         -5.5500   -3.0010  -47.0890 C.2   212  GLN212      0.2616
    119  O         -5.1840   -2.1880  -47.9360 O.2   212  GLN212     -0.2715
    120  CB        -7.4550   -2.2490  -45.6260 C.3   212  GLN212      0.0408
    121  CG        -8.0530   -1.5240  -46.8220 C.3   212  GLN212      0.0908
    122  CD        -9.5580   -1.3990  -46.6860 C.2   212  GLN212      0.2608
    123  OE1      -10.2310   -2.3610  -46.3180 O.2   212  GLN212     -0.2717
    124  NE2      -10.0910   -0.2220  -46.9840 N.am  212  GLN212     -0.0878
    125  N         -5.5790   -4.3140  -47.3230 N.am  213  ALA213     -0.1977
    126  CA        -5.1960   -4.8510  -48.6270 C.3   213  ALA213      0.1597
    127  C         -6.0290   -6.0800  -48.9850 C.2   213  ALA213      0.2287
    128  O         -6.5920   -6.7350  -48.1090 O.2   213  ALA213     -0.2864
    129  CB        -3.7020   -5.2070  -48.6350 C.3   213  ALA213      0.0319
    130  N          3.5290  -11.5890  -48.8050 N.3   224  HIS224     -0.1241
    131  CA         4.4570  -10.5130  -48.4590 C.3   224  HIS224      0.1621
    132  C          5.0020  -10.7080  -47.0470 C.2   224  HIS224      0.2264
    133  O          4.4610  -11.4890  -46.2630 O.2   224  HIS224     -0.2867
    134  CB         3.8480   -9.0970  -48.6250 C.3   224  HIS224      0.0745
    135  CG         2.8530   -8.7090  -47.5780 C.ar  224  HIS224      0.0817
    136  ND1        1.5040   -8.9470  -47.7150 N.ar  224  HIS224     -0.2268
    137  CD2        3.0070   -8.0900  -46.3810 C.ar  224  HIS224      0.1154
    138  CE1        0.8650   -8.4970  -46.6460 C.ar  224  HIS224      0.1986
    139  NE2        1.7550   -7.9670  -45.8200 N.ar  224  HIS224     -0.2212
    140  N          6.2550   -8.5460  -43.6040 N.3   226  THR226     -0.1218
    141  CA         6.2790   -7.2260  -42.9790 C.3   226  THR226      0.1862
    142  C          7.3790   -7.2310  -41.9110 C.2   226  THR226      0.2287
    143  O          7.2590   -7.9180  -40.9000 O.2   226  THR226     -0.2866
    144  CB         4.9150   -6.9100  -42.3330 C.3   226  THR226      0.1770
    145  OG1        3.9100   -6.9280  -43.3530 O.3   226  THR226     -0.2211
    146  CG2        4.9150   -5.5300  -41.6360 C.3   226  THR226      0.0375
@<TRIPOS>BOND
     1    72    73    1
     2    75    74    2
     3    74    73    1
     4    73    76    1
     5    76    77    1
     6    81    82    1
     7    84    83    2
     8    77    78    1
     9    23    22    2
    10    82    83    1
    11    82    85    1
    12    87    86   ar
    13    87    89   ar
    14    85    86    1
    15    22    21    1
    16    78    79    1
    17    86    88   ar
    18    89    90   ar
    19    79    80    1
    20    26    24    1
    21   127   126    1
    22   127   128    2
    23    21    24    1
    24    21    20    1
    25    24    25    1
    26   130   131    1
    27    88    90   ar
    28    88    91   ar
    29    67    66    2
    30    90    92   ar
    31   129   126    1
    32   126   125    1
    33   134   131    1
    34   134   135    1
    35   131   132    1
    36   119   118    2
    37    66    65    1
    38   136   135   ar
    39   136   138   ar
    40    70    68    1
    41    91    93   ar
    42   135   137   ar
    43    92    94   ar
    44   125   118   am
    45    11    10    2
    46   118   117    1
    47   132   133    2
    48   124   122   am
    49   121   122    1
    50   121   120    1
    51    68    65    1
    52    68    69    1
    53   122   123    2
    54   138   139   ar
    55    65    64    1
    56    93    94   ar
    57   137   139   ar
    58    10     9    1
    59    27    28    1
    60     6     5    1
    61   117   120    1
    62   117   116    1
    63   116   108   am
    64    71    69    1
    65     2     1    1
    66     2     5    1
    67     2     3    1
    68     9    12    1
    69     9     8    1
    70    12    13    1
    71   102   104   ar
    72   102   100   ar
    73     5     7    1
    74    28    29    1
    75   104   105   ar
    76   110   107    1
    77   110   111    1
    78    95    96    1
    79   108   107    1
    80   108   109    2
    81   107   106    1
    82    99   100    1
    83    99    96    1
    84     3     4    2
    85    34    33    2
    86   100   101   ar
    87   140   141    1
    88    96    97    1
    89    31    29   am
    90    31    32    1
    91    13    14   ar
    92    13    15   ar
    93    29    30    2
    94   145   144    1
    95   105   103   ar
    96    60    59    2
    97   111   113   ar
    98   111   112   ar
    99    14    16   ar
   100   113   115   ar
   101   141   144    1
   102   141   142    1
   103    33    32    1
   104    59    58    1
   105    15    17   ar
   106   101   103   ar
   107    32    35    1
   108   144   146    1
   109    97    98    2
   110    63    61    1
   111   112   114   ar
   112   142   143    2
   113    16    18   ar
   114    35    36    1
   115   115   114   ar
   116    17    18   ar
   117    61    58    1
   118    61    62    1
   119    36    37    1
   120    36    38    1
   121    58    57    1
   122    18    19    1
   123    47    45   ar
   124    47    48   ar
   125    39    40    1
   126    45    44   ar
   127    42    41    2
   128    48    46   ar
   129    41    40    1
   130    44    46   ar
   131    44    43    1
   132    40    43    1
   133    56    54   ar
   134    54    55   ar
   135    54    53    1
   136    49    50    1
   137    53    50    1
   138    50    51    1
   139    52    51    2
