@<TRIPOS>MOLECULE
tmp/4bxnB01.pdb
 199 190 0 0 0
SMALL
GASTEIGER

@<TRIPOS>ATOM
      1  N        -16.4120   59.8170  -14.9560 N.3    93  THR93      -0.1203
      2  CA       -15.0910   59.8820  -15.5630 C.3    93  THR93       0.1994
      3  C        -14.0680   59.1510  -14.7020 C.2    93  THR93       0.2617
      4  O        -13.2240   58.4160  -15.2140 O.2    93  THR93      -0.2717
      5  CB       -14.6390   61.3400  -15.7720 C.3    93  THR93       0.1784
      6  OG1      -15.7340   62.1150  -16.2780 O.3    93  THR93      -0.2211
      7  CG2      -13.4830   61.4020  -16.7570 C.3    93  THR93       0.0376
      8  N        -14.1310   59.3590  -13.3920 N.am   94  PHE94      -0.1975
      9  CA       -13.1640   58.7270  -12.5080 C.3    94  PHE94       0.1639
     10  C        -13.2750   57.2070  -12.5610 C.2    94  PHE94       0.2290
     11  O        -12.2640   56.5110  -12.6490 O.2    94  PHE94      -0.2864
     12  CB       -13.3610   59.2140  -11.0710 C.3    94  PHE94       0.0560
     13  CG       -12.1860   59.9700  -10.5200 C.ar   94  PHE94      -0.0200
     14  CD1      -11.7050   61.0950  -11.1660 C.ar   94  PHE94      -0.0042
     15  CD2      -11.5650   59.5550   -9.3540 C.ar   94  PHE94      -0.0042
     16  CE1      -10.6250   61.7930  -10.6610 C.ar   94  PHE94      -0.0003
     17  CE2      -10.4840   60.2480   -8.8430 C.ar   94  PHE94      -0.0003
     18  CZ       -10.0130   61.3690   -9.4970 C.ar   94  PHE94      -0.0000
     19  N        -12.4130   56.8480  -16.2550 N.3    97  GLU97      -0.1231
     20  CA       -11.0710   57.4240  -16.3880 C.3    97  GLU97       0.1699
     21  C         -9.9650   56.8960  -15.4650 C.2    97  GLU97       0.2593
     22  O         -8.8310   56.6930  -15.8970 O.2    97  GLU97      -0.2718
     23  CB       -11.1440   58.9510  -16.2820 C.3    97  GLU97       0.0402
     24  CG       -11.6590   59.6330  -17.5390 C.3    97  GLU97       0.1161
     25  CD       -10.5860   59.7900  -18.5970 C.2    97  GLU97       0.3649
     26  OE1       -9.7260   58.8920  -18.7110 O.co2  97  GLU97      -0.2457
     27  OE2      -10.6020   60.8120  -19.3140 O.co2  97  GLU97      -0.2457
     28  N        -10.3210   56.6810  -14.2030 N.am   98  GLY98      -0.1942
     29  CA        -9.3690   56.3110  -13.1740 C.3    98  GLY98       0.2014
     30  C         -8.8900   57.5410  -12.4270 C.2    98  GLY98       0.2639
     31  O         -9.0080   58.6610  -12.9230 O.2    98  GLY98      -0.2714
     32  N         -8.3360   57.3380  -11.2340 N.am   99  GLU99      -0.1963
     33  CA        -7.7990   58.4420  -10.4390 C.3    99  GLU99       0.1733
     34  C         -6.3040   58.2730  -10.1690 C.2    99  GLU99       0.2616
     35  O         -5.8610   57.2090   -9.7370 O.2    99  GLU99      -0.2715
     36  CB        -8.5600   58.5750   -9.1170 C.3    99  GLU99       0.0429
     37  CG        -8.4450   59.9470   -8.4720 C.3    99  GLU99       0.1163
     38  CD        -7.7010   59.9110   -7.1510 C.2    99  GLU99       0.3649
     39  OE1       -7.4140   58.8000   -6.6580 O.co2  99  GLU99      -0.2457
     40  OE2       -7.4020   60.9950   -6.6050 O.co2  99  GLU99      -0.2457
     41  N         -5.5450   59.3390  -10.4100 N.am  100  ARG100     -0.1977
     42  CA        -4.0870   59.3330  -10.2680 C.3   100  ARG100      0.1597
     43  C         -3.5770   59.1660   -8.8330 C.2   100  ARG100      0.2287
     44  O         -4.1590   59.6900   -7.8840 O.2   100  ARG100     -0.2864
     45  CB        -3.4900   60.6000  -10.8860 C.3   100  ARG100      0.0334
     46  CG        -2.6530   61.4300   -9.9250 C.3   100  ARG100      0.0492
     47  CD        -2.2570   62.7610  -10.5460 C.3   100  ARG100      0.2205
     48  NE        -0.8240   63.0160  -10.4300 N.pl3 100  ARG100     -0.0865
     49  CZ        -0.2150   64.0970  -10.9080 C.cat 100  ARG100      0.5346
     50  NH1       -0.9140   65.0310  -11.5390 N.pl3 100  ARG100      0.1354
     51  NH2        1.0930   64.2460  -10.7560 N.pl3 100  ARG100      0.1354
     52  N          0.9130   53.5450  -13.3730 N.3   108  TRP108     -0.1241
     53  CA        -0.4110   53.5730  -13.9680 C.3   108  TRP108      0.1605
     54  C         -1.0570   52.2170  -14.0350 C.2   108  TRP108      0.2264
     55  O         -2.2730   52.0800  -13.7840 O.2   108  TRP108     -0.2867
     56  CB        -0.3570   54.1950  -15.3590 C.3   108  TRP108      0.0550
     57  CG         0.2240   53.2790  -16.4090 C.ar  108  TRP108      0.0003
     58  CD1        1.5680   53.0510  -16.6890 C.ar  108  TRP108      0.0946
     59  CD2       -0.5110   52.4340  -17.3610 C.ar  108  TRP108      0.0152
     60  NE1        1.7080   52.1530  -17.7150 N.ar  108  TRP108     -0.2442
     61  CE2        0.5020   51.7440  -18.1620 C.ar  108  TRP108      0.0810
     62  CE3       -1.8510   52.1920  -17.6180 C.ar  108  TRP108      0.0012
     63  CZ2        0.1620   50.8570  -19.1680 C.ar  108  TRP108      0.0191
     64  CZ3       -2.1810   51.2940  -18.6350 C.ar  108  TRP108      0.0001
     65  CH2       -1.1970   50.6440  -19.3900 C.ar  108  TRP108      0.0015
     66  N         -1.9970   51.1630  -10.4600 N.3   111  ASP111     -0.1239
     67  CA        -2.7300   52.1320   -9.6470 C.3   111  ASP111      0.1674
     68  C         -4.1140   51.6100   -9.2640 C.2   111  ASP111      0.2266
     69  O         -4.8640   51.1290  -10.1130 O.2   111  ASP111     -0.2867
     70  CB        -2.8620   53.4620  -10.3910 C.3   111  ASP111      0.1410
     71  CG        -1.6550   54.3570  -10.2010 C.2   111  ASP111      0.3668
     72  OD1       -1.6420   55.1430   -9.2310 O.co2 111  ASP111     -0.2456
     73  OD2       -0.7180   54.2750  -11.0230 O.co2 111  ASP111     -0.2456
     74  N         -7.1880   53.8430  -10.9530 N.3   114  ALA114     -0.1245
     75  CA        -7.4530   53.8810  -12.3790 C.3   114  ALA114      0.1562
     76  C         -8.8450   53.3870  -12.7430 C.2   114  ALA114      0.2260
     77  O         -9.3860   52.4660  -12.1330 O.2   114  ALA114     -0.2867
     78  CB        -6.3960   53.0840  -13.1290 C.3   114  ALA114      0.0290
     79  N        -11.0670   51.3750  -18.0370 N.3   117  ILE117     -0.1231
     80  CA       -10.2820   51.2450  -19.2540 C.3   117  ILE117      0.1678
     81  C         -8.8240   50.9370  -18.9320 C.2   117  ILE117      0.2434
     82  O         -8.2170   50.0700  -19.5590 O.2   117  ILE117     -0.2733
     83  CB       -10.3440   52.5300  -20.1000 C.3   117  ILE117      0.0265
     84  CG1      -11.7910   53.0030  -20.2450 C.3   117  ILE117      0.0019
     85  CG2       -9.7120   52.3010  -21.4640 C.3   117  ILE117      0.0020
     86  CD1      -11.9600   54.5000  -20.1060 C.3   117  ILE117      0.0001
     87  N         -8.2520   51.6480  -17.9680 N.am  118  PRO118     -0.2729
     88  CA        -6.8780   51.3430  -17.5680 C.3   118  PRO118      0.1401
     89  C         -6.8230   49.9300  -17.0050 C.2   118  PRO118      0.2269
     90  O         -5.9200   49.1630  -17.3360 O.2   118  PRO118     -0.2865
     91  CB        -6.6030   52.3650  -16.4660 C.3   118  PRO118      0.0296
     92  CG        -7.9440   52.6490  -15.8820 C.3   118  PRO118      0.0237
     93  CD        -8.9130   52.5680  -17.0270 C.3   118  PRO118      0.0939
     94  N         -7.5350   47.6140  -19.9370 N.3   121  LEU121     -0.1245
     95  CA        -6.3290   47.5310  -20.7420 C.3   121  LEU121      0.1561
     96  C         -5.2490   46.7830  -19.9670 C.2   121  LEU121      0.2260
     97  O         -4.5580   45.9280  -20.5180 O.2   121  LEU121     -0.2867
     98  CB        -5.8390   48.9280  -21.1240 C.3   121  LEU121      0.0270
     99  CG        -6.7770   49.7560  -22.0040 C.3   121  LEU121      0.0019
    100  CD1       -6.0140   50.8720  -22.7010 C.3   121  LEU121      0.0001
    101  CD2       -7.4850   48.8720  -23.0180 C.3   121  LEU121      0.0001
    102  N        -11.8230   56.4610  -29.8760 N.3   141  LEU141     -0.1245
    103  CA       -12.4240   57.4540  -28.9880 C.3   141  LEU141      0.1561
    104  C        -13.3210   58.4330  -29.7420 C.2   141  LEU141      0.2260
    105  O        -12.9160   59.0060  -30.7530 O.2   141  LEU141     -0.2867
    106  CB       -11.3400   58.2170  -28.2240 C.3   141  LEU141      0.0270
    107  CG       -11.8280   59.3840  -27.3640 C.3   141  LEU141      0.0019
    108  CD1      -13.0310   58.9700  -26.5310 C.3   141  LEU141      0.0001
    109  CD2      -10.7080   59.9020  -26.4750 C.3   141  LEU141      0.0001
    110  N        -16.2510   61.7880  -29.3470 N.3   143  GLU143     -0.1245
    111  CA       -16.8330   62.8440  -28.5210 C.3   143  GLU143      0.1567
    112  C        -18.0720   63.4550  -29.1750 C.2   143  GLU143      0.2260
    113  O        -18.0510   63.7970  -30.3570 O.2   143  GLU143     -0.2867
    114  CB       -15.7970   63.9320  -28.2330 C.3   143  GLU143      0.0388
    115  CG       -15.5730   64.1950  -26.7530 C.3   143  GLU143      0.1160
    116  CD       -14.1030   64.2420  -26.3860 C.2   143  GLU143      0.3649
    117  OE1      -13.2570   64.1470  -27.3000 O.co2 143  GLU143     -0.2457
    118  OE2      -13.7940   64.3740  -25.1840 O.co2 143  GLU143     -0.2457
    119  N        -10.9110   63.0140  -32.1070 N.3   152  LEU152     -0.1245
    120  CA        -9.5810   63.6020  -32.2190 C.3   152  LEU152      0.1561
    121  C         -8.4780   62.5490  -32.2660 C.2   152  LEU152      0.2260
    122  O         -8.6860   61.3960  -31.8890 O.2   152  LEU152     -0.2867
    123  CB        -9.3280   64.5730  -31.0630 C.3   152  LEU152      0.0270
    124  CG       -10.1780   64.3680  -29.8080 C.3   152  LEU152      0.0019
    125  CD1      -10.0730   62.9320  -29.3150 C.3   152  LEU152      0.0001
    126  CD2       -9.7690   65.3450  -28.7160 C.3   152  LEU152      0.0001
    127  N          0.0320   53.4710  -23.6270 N.3   191  VAL191     -0.1231
    128  CA        -1.2850   54.0640  -23.8420 C.3   191  VAL191      0.1692
    129  C         -1.4340   55.4800  -23.2940 C.2   191  VAL191      0.2592
    130  O         -2.1250   56.3090  -23.8850 O.2   191  VAL191     -0.2718
    131  CB        -2.4000   53.1860  -23.2420 C.3   191  VAL191      0.0266
    132  CG1       -3.4550   54.0540  -22.5760 C.3   191  VAL191      0.0020
    133  CG2       -3.0220   52.3110  -24.3190 C.3   191  VAL191      0.0020
    134  N         -0.7350   55.7570  -22.1970 N.am  192  TYR192     -0.1976
    135  CA        -0.8710   57.0160  -21.4750 C.3   192  TYR192      0.1639
    136  C         -0.4970   58.1950  -22.3610 C.2   192  TYR192      0.2290
    137  O         -1.1480   59.2390  -22.3250 O.2   192  TYR192     -0.2864
    138  CB         0.0050   56.9980  -20.2190 C.3   192  TYR192      0.0561
    139  CG         0.0980   58.3260  -19.5020 C.ar  192  TYR192     -0.0168
    140  CD1        0.7700   59.4000  -20.0700 C.ar  192  TYR192      0.0367
    141  CD2       -0.4790   58.5030  -18.2510 C.ar  192  TYR192     -0.0007
    142  CE1        0.8590   60.6140  -19.4160 C.ar  192  TYR192      0.1867
    143  CE2       -0.3940   59.7130  -17.5900 C.ar  192  TYR192      0.0449
    144  CZ         0.2760   60.7650  -18.1760 C.ar  192  TYR192      0.2299
    145  OH         0.3620   61.9710  -17.5200 O.3   192  TYR192     -0.2833
    146  N         -3.3460   58.6140  -24.4800 N.3   195  LEU195     -0.1231
    147  CA        -4.3190   59.1590  -23.5440 C.3   195  LEU195      0.1693
    148  C         -3.8630   60.5120  -23.0110 C.2   195  LEU195      0.2591
    149  O         -4.6550   61.4470  -22.9030 O.2   195  LEU195     -0.2718
    150  CB        -4.5530   58.1860  -22.3890 C.3   195  LEU195      0.0284
    151  CG        -5.1890   56.8480  -22.7670 C.3   195  LEU195      0.0019
    152  CD1       -5.4500   56.0080  -21.5260 C.3   195  LEU195      0.0001
    153  CD2       -6.4730   57.0700  -23.5500 C.3   195  LEU195      0.0001
    154  N         -2.5860   60.5990  -22.6510 N.am  196  GLU196     -0.1979
    155  CA        -2.0300   61.8430  -22.1380 C.3   196  GLU196      0.1602
    156  C         -2.0930   62.9230  -23.2080 C.2   196  GLU196      0.2287
    157  O         -2.4460   64.0680  -22.9290 O.2   196  GLU196     -0.2864
    158  CB        -0.5840   61.6370  -21.6830 C.3   196  GLU196      0.0414
    159  CG         0.0780   62.8900  -21.1350 C.3   196  GLU196      0.1122
    160  CD         1.1470   62.5820  -20.1060 C.2   196  GLU196      0.3216
    161  OE1        1.9130   61.6180  -20.3140 O.3   196  GLU196     -0.4208
    162  OE2        1.2210   63.3030  -19.0890 O.2   196  GLU196     -0.2497
    163  N         -4.1950   62.6940  -25.6630 N.3   198  GLY198     -0.1210
    164  CA        -5.6290   62.8220  -25.8370 C.3   198  GLY198      0.1956
    165  C         -6.2420   63.7670  -24.8240 C.2   198  GLY198      0.2611
    166  O         -7.1350   64.5490  -25.1490 O.2   198  GLY198     -0.2717
    167  N         -5.7290   63.7330  -23.6000 N.am  199  ALA199     -0.1979
    168  CA        -6.2500   64.5920  -22.5470 C.3   199  ALA199      0.1597
    169  C         -6.0630   66.0590  -22.9170 C.2   199  ALA199      0.2287
    170  O         -6.9500   66.8800  -22.6870 O.2   199  ALA199     -0.2864
    171  CB        -5.5660   64.2840  -21.2250 C.3   199  ALA199      0.0319
    172  N         -8.5650   67.0490  -25.7170 N.3   202  ARG202     -0.1245
    173  CA        -9.8720   67.2830  -25.1240 C.3   202  ARG202      0.1563
    174  C         -9.8480   68.5700  -24.3100 C.2   202  ARG202      0.2260
    175  O        -10.7750   69.3770  -24.3770 O.2   202  ARG202     -0.2867
    176  CB       -10.2790   66.1050  -24.2380 C.3   202  ARG202      0.0307
    177  CG       -10.1770   66.3820  -22.7470 C.3   202  ARG202      0.0489
    178  CD       -11.0580   65.4350  -21.9490 C.3   202  ARG202      0.2205
    179  NE       -12.4190   65.9450  -21.8050 N.pl3 202  ARG202     -0.0865
    180  CZ       -13.4490   65.2180  -21.3840 C.cat 202  ARG202      0.5346
    181  NH1      -13.2770   63.9440  -21.0630 N.pl3 202  ARG202      0.1354
    182  NH2      -14.6520   65.7660  -21.2830 N.pl3 202  ARG202      0.1354
    183  N        -18.2730   61.0730  -24.1640 N.3   218  SER218     -0.1217
    184  CA       -17.1960   60.2920  -24.7690 C.3   218  SER218      0.1889
    185  C        -17.5090   58.7970  -24.8470 C.2   218  SER218      0.2288
    186  O        -17.9690   58.1980  -23.8750 O.2   218  SER218     -0.2866
    187  CB       -15.8870   60.5110  -24.0080 C.3   218  SER218      0.2089
    188  OG       -16.1030   60.4940  -22.6080 O.3   218  SER218     -0.2183
    189  N        -15.7840   55.0170  -25.7700 N.3   220  PHE220     -0.1241
    190  CA       -14.5820   54.2370  -25.9940 C.3   220  PHE220      0.1605
    191  C        -15.0060   52.8490  -26.4370 C.2   220  PHE220      0.2264
    192  O        -15.7500   52.1640  -25.7370 O.2   220  PHE220     -0.2867
    193  CB       -13.7610   54.1630  -24.7060 C.3   220  PHE220      0.0534
    194  CG       -12.6610   53.1410  -24.7390 C.ar  220  PHE220     -0.0203
    195  CD1      -12.9510   51.7890  -24.6700 C.ar  220  PHE220     -0.0042
    196  CD2      -11.3370   53.5330  -24.8280 C.ar  220  PHE220     -0.0042
    197  CE1      -11.9400   50.8480  -24.6950 C.ar  220  PHE220     -0.0003
    198  CE2      -10.3220   52.5980  -24.8540 C.ar  220  PHE220     -0.0003
    199  CZ       -10.6230   51.2520  -24.7880 C.ar  220  PHE220     -0.0000
@<TRIPOS>BOND
     1   121   120    1
     2   121   122    2
     3   120   119    1
     4   120   123    1
     5   123   124    1
     6   105   104    2
     7   113   112    2
     8   102   103    1
     9   124   125    1
    10   124   126    1
    11   104   103    1
    12   110   111    1
    13   112   111    1
    14   103   106    1
    15   111   114    1
    16   114   115    1
    17   106   107    1
    18   107   108    1
    19   107   109    1
    20   117   116   ar
    21   115   116    1
    22   191   190    1
    23   191   192    2
    24   116   118   ar
    25   190   189    1
    26   190   193    1
    27   164   163    1
    28   164   165    1
    29   172   173    1
    30   166   165    2
    31   173   174    1
    32   173   176    1
    33   198   196   ar
    34   198   199   ar
    35   185   184    1
    36   185   186    2
    37   196   194   ar
    38   165   167   am
    39   199   197   ar
    40   184   183    1
    41   184   187    1
    42   194   193    1
    43   194   195   ar
    44   197   195   ar
    45   146   147    1
    46   175   174    2
    47   133   131    1
    48   176   177    1
    49   187   188    1
    50   130   129    2
    51   128   127    1
    52   128   129    1
    53   128   131    1
    54   167   168    1
    55   153   151    1
    56   147   148    1
    57   147   150    1
    58   129   134   am
    59   131   132    1
    60   156   157    2
    61   156   155    1
    62   101    99    1
    63   148   149    2
    64   148   154   am
    65   169   170    2
    66   169   168    1
    67   151   150    1
    68   151   152    1
    69   177   178    1
    70   100    99    1
    71   154   155    1
    72   168   171    1
    73   136   137    2
    74   136   135    1
    75   134   135    1
    76   155   158    1
    77    99    98    1
    78   178   179    1
    79   179   180    2
    80   158   159    1
    81   135   138    1
    82    85    83    1
    83   180   182    1
    84   180   181    1
    85   159   160    1
    86    98    95    1
    87    95    96    1
    88    95    94    1
    89    97    96    2
    90   161   160    1
    91   161   142    1
    92    84    86    1
    93    84    83    1
    94   138   139    1
    95   160   162    2
    96    83    80    1
    97   140   139   ar
    98   140   142   ar
    99    82    81    2
   100   139   141   ar
   101   142   144   ar
   102    65    63   ar
   103    65    64   ar
   104    27    25   ar
   105    80    81    1
   106    80    79    1
   107    63    61   ar
   108    81    87   am
   109    26    25   ar
   110    64    62   ar
   111    25    24    1
   112   141   143   ar
   113   144   143   ar
   114   144   145    1
   115    61    60   ar
   116    61    59   ar
   117    87    88    1
   118    87    93    1
   119    60    58   ar
   120    62    59   ar
   121    88    89    1
   122    88    91    1
   123    24    23    1
   124    59    57   ar
   125    90    89    2
   126    93    92    1
   127     7     5    1
   128    58    57   ar
   129    91    92    1
   130    57    56    1
   131    20    23    1
   132    20    19    1
   133    20    21    1
   134     6     5    1
   135    22    21    2
   136     5     2    1
   137     2     1    1
   138     2     3    1
   139    21    28   am
   140    56    53    1
   141     4     3    2
   142     3     8   am
   143    28    29    1
   144    54    53    1
   145    54    55    2
   146    53    52    1
   147     8     9    1
   148    29    30    1
   149    78    75    1
   150    31    30    2
   151    76    75    1
   152    76    77    2
   153    11    10    2
   154    10     9    1
   155     9    12    1
   156    30    32   am
   157    75    74    1
   158    50    49    1
   159    32    33    1
   160    14    16   ar
   161    14    13   ar
   162    12    13    1
   163    73    71   ar
   164    49    51    1
   165    49    48    2
   166    45    42    1
   167    45    46    1
   168    16    18   ar
   169    47    48    1
   170    47    46    1
   171    13    15   ar
   172    66    67    1
   173    33    34    1
   174    33    36    1
   175    41    42    1
   176    41    34   am
   177    70    71    1
   178    70    67    1
   179    42    43    1
   180    71    72   ar
   181    34    35    2
   182    69    68    2
   183    67    68    1
   184    18    17   ar
   185    15    17   ar
   186    36    37    1
   187    43    44    2
   188    37    38    1
   189    38    39   ar
   190    38    40   ar
