@<TRIPOS>MOLECULE
tmp/4bxwB01.pdb
 193 189 0 0 0
SMALL
GASTEIGER

@<TRIPOS>ATOM
      1  N        -11.5470   32.2840  -32.6840 N.3    71  PHE71      -0.1227
      2  CA       -12.7280   31.4980  -33.0210 C.3    71  PHE71       0.1736
      3  C        -14.0170   32.2980  -32.8760 C.2    71  PHE71       0.2595
      4  O        -15.0410   31.9500  -33.4690 O.2    71  PHE71      -0.2718
      5  CB       -12.7890   30.2500  -32.1430 C.3    71  PHE71       0.0547
      6  CG       -12.6930   30.5400  -30.6720 C.ar   71  PHE71      -0.0202
      7  CD1      -11.4910   30.9310  -30.1090 C.ar   71  PHE71      -0.0042
      8  CD2      -13.8050   30.4170  -29.8520 C.ar   71  PHE71      -0.0042
      9  CE1      -11.3970   31.1980  -28.7560 C.ar   71  PHE71      -0.0003
     10  CE2      -13.7190   30.6800  -28.5010 C.ar   71  PHE71      -0.0003
     11  CZ       -12.5140   31.0730  -27.9520 C.ar   71  PHE71      -0.0000
     12  N        -13.9560   33.3630  -32.0810 N.am   72  CYS72      -0.1970
     13  CA       -15.1120   34.2060  -31.8030 C.3    72  CYS72       0.1712
     14  C        -14.6750   35.6350  -31.5140 C.2    72  CYS72       0.2296
     15  O        -13.4850   35.9500  -31.5170 O.2    72  CYS72      -0.2864
     16  CB       -15.8890   33.6820  -30.5910 C.3    72  CYS72       0.0983
     17  SG       -16.9580   32.2520  -30.8840 S.3    72  CYS72      -0.0798
     18  N        -22.3560   30.0390  -26.8540 N.3    87  HIS87      -0.1241
     19  CA       -21.8630   28.9020  -27.6360 C.3    87  HIS87       0.1621
     20  C        -20.3920   29.0330  -28.0300 C.2    87  HIS87       0.2264
     21  O        -19.8330   28.1310  -28.6530 O.2    87  HIS87      -0.2867
     22  CB       -22.7640   28.6010  -28.8510 C.3    87  HIS87       0.0745
     23  CG       -22.4710   29.4280  -30.0670 C.ar   87  HIS87       0.0817
     24  ND1      -23.1840   30.5630  -30.3860 N.ar   87  HIS87      -0.2268
     25  CD2      -21.5690   29.2620  -31.0630 C.ar   87  HIS87       0.1154
     26  CE1      -22.7190   31.0730  -31.5130 C.ar   87  HIS87       0.1986
     27  NE2      -21.7380   30.3030  -31.9450 N.ar   87  HIS87      -0.2212
     28  N        -15.7510   25.4190  -26.2130 N.3    91  GLU91      -0.1245
     29  CA       -15.6180   24.7230  -27.4900 C.3    91  GLU91       0.1567
     30  C        -14.1650   24.6730  -27.9650 C.2    91  GLU91       0.2260
     31  O        -13.8690   24.1530  -29.0390 O.2    91  GLU91      -0.2867
     32  CB       -16.5440   25.3140  -28.5600 C.3    91  GLU91       0.0388
     33  CG       -16.0840   26.6290  -29.1620 C.3    91  GLU91       0.1160
     34  CD       -16.9070   27.0260  -30.3760 C.2    91  GLU91       0.3649
     35  OE1      -17.3180   26.1270  -31.1390 O.co2  91  GLU91      -0.2457
     36  OE2      -17.1450   28.2370  -30.5690 O.co2  91  GLU91      -0.2457
     37  N        -29.6690   27.4830  -29.7130 N.3   138  TYR138     -0.1241
     38  CA       -29.0250   28.7920  -29.5800 C.3   138  TYR138      0.1605
     39  C        -29.9600   29.8720  -29.0270 C.2   138  TYR138      0.2264
     40  O        -29.7490   31.0620  -29.2460 O.2   138  TYR138     -0.2867
     41  CB       -28.3900   29.2300  -30.9030 C.3   138  TYR138      0.0534
     42  CG       -27.3780   28.2380  -31.4350 C.ar  138  TYR138     -0.0201
     43  CD1      -26.1250   28.1150  -30.8540 C.ar  138  TYR138     -0.0009
     44  CD2      -27.6800   27.4200  -32.5150 C.ar  138  TYR138     -0.0009
     45  CE1      -25.2010   27.2100  -31.3350 C.ar  138  TYR138      0.0417
     46  CE2      -26.7620   26.5100  -33.0020 C.ar  138  TYR138      0.0417
     47  CZ       -25.5240   26.4090  -32.4090 C.ar  138  TYR138      0.1957
     48  OH       -24.6050   25.4990  -32.8940 O.3   138  TYR138     -0.2866
     49  N        -19.1120   31.6750  -46.6600 N.3   188  GLU188     -0.1231
     50  CA       -19.6170   30.4500  -46.0630 C.3   188  GLU188      0.1699
     51  C        -18.6030   29.3400  -46.2980 C.2   188  GLU188      0.2592
     52  O        -18.1980   29.0940  -47.4320 O.2   188  GLU188     -0.2718
     53  CB       -20.9730   30.0670  -46.6580 C.3   188  GLU188      0.0402
     54  CG       -21.5050   28.7420  -46.1360 C.3   188  GLU188      0.1161
     55  CD       -22.8930   28.4160  -46.6490 C.2   188  GLU188      0.3649
     56  OE1      -23.5690   29.3270  -47.1750 O.co2 188  GLU188     -0.2457
     57  OE2      -23.3080   27.2460  -46.5160 O.co2 188  GLU188     -0.2457
     58  N        -18.1800   28.6850  -45.2230 N.am  189  LYS189     -0.1980
     59  CA       -17.2070   27.6030  -45.3270 C.3   189  LYS189      0.1596
     60  C        -15.8970   28.0900  -45.9420 C.2   189  LYS189      0.2287
     61  O        -15.0230   27.2890  -46.2770 O.2   189  LYS189     -0.2864
     62  CB       -17.7810   26.4460  -46.1510 C.3   189  LYS189      0.0298
     63  CG       -19.0840   25.8860  -45.6120 C.3   189  LYS189      0.0038
     64  CD       -18.9710   25.4470  -44.1800 C.3   189  LYS189      0.0206
     65  CE       -20.1940   24.6240  -43.7760 C.3   189  LYS189      0.1093
     66  NZ       -21.4300   25.4330  -43.6070 N.3   189  LYS189     -0.1314
     67  N        -23.6230   39.6460  -44.7880 N.3   232  ASP232     -0.1225
     68  CA       -24.0560   38.9250  -43.5990 C.3   232  ASP232      0.1805
     69  C        -22.8490   38.5380  -42.7590 C.2   232  ASP232      0.2598
     70  O        -21.7150   38.5600  -43.2400 O.2   232  ASP232     -0.2718
     71  CB       -24.8190   37.6640  -44.0150 C.3   232  ASP232      0.1424
     72  CG       -25.5400   36.9900  -42.8550 C.2   232  ASP232      0.3668
     73  OD1      -25.8720   37.6720  -41.8600 O.co2 232  ASP232     -0.2456
     74  OD2      -25.7910   35.7710  -42.9540 O.co2 232  ASP232     -0.2456
     75  N        -23.0960   38.1880  -41.5010 N.am  233  ALA233     -0.1966
     76  CA       -22.0580   37.6270  -40.6430 C.3   233  ALA233      0.1728
     77  C        -21.8940   36.1450  -40.9760 C.2   233  ALA233      0.2616
     78  O        -22.6420   35.6040  -41.7910 O.2   233  ALA233     -0.2715
     79  CB       -22.4170   37.8190  -39.1780 C.3   233  ALA233      0.0334
     80  N        -20.9220   35.4900  -40.3510 N.am  234  CYS234     -0.1954
     81  CA       -20.6300   34.0940  -40.6560 C.3   234  CYS234      0.1843
     82  C        -19.9180   33.4290  -39.4830 C.2   234  CYS234      0.2625
     83  O        -19.6790   34.0610  -38.4540 O.2   234  CYS234     -0.2714
     84  CB       -19.7750   34.0040  -41.9210 C.3   234  CYS234      0.0997
     85  SG       -19.7730   32.3940  -42.7480 S.3   234  CYS234     -0.0797
     86  N        -19.5800   32.1530  -39.6330 N.am  235  GLN235     -0.1963
     87  CA       -18.8880   31.4290  -38.5740 C.3   235  GLN235      0.1733
     88  C        -17.7070   32.2600  -38.0920 C.2   235  GLN235      0.2616
     89  O        -17.1370   33.0370  -38.8580 O.2   235  GLN235     -0.2715
     90  CB       -18.3940   30.0790  -39.0850 C.3   235  GLN235      0.0408
     91  CG       -19.1330   29.5790  -40.3150 C.3   235  GLN235      0.0908
     92  CD       -20.5350   29.1030  -40.0070 C.2   235  GLN235      0.2608
     93  OE1      -21.4950   29.4920  -40.6740 O.2   235  GLN235     -0.2717
     94  NE2      -20.6620   28.2560  -38.9940 N.am  235  GLN235     -0.0878
     95  N        -17.3360   32.0920  -36.8280 N.am  236  GLY236     -0.1955
     96  CA       -16.2080   32.8220  -36.2610 C.3   236  GLY236      0.1869
     97  C        -16.6060   34.1970  -35.7650 C.2   236  GLY236      0.2309
     98  O        -15.9200   34.7860  -34.9320 O.2   236  GLY236     -0.2863
     99  N        -19.4070   34.7990  -34.1720 N.3   238  SER238     -0.1217
    100  CA       -20.2090   34.6400  -32.9620 C.3   238  SER238      0.1889
    101  C        -19.6630   35.4790  -31.8140 C.2   238  SER238      0.2288
    102  O        -18.4500   35.6040  -31.6430 O.2   238  SER238     -0.2866
    103  CB       -20.2560   33.1690  -32.5440 C.3   238  SER238      0.2089
    104  OG       -21.2490   32.4380  -33.4340 O.3   238  SER238     -0.2183
    105  N        -23.9400   38.3830  -32.5250 N.3   256  VAL256     -0.1231
    106  CA       -23.8450   37.3610  -33.5560 C.3   256  VAL256      0.1692
    107  C        -24.0490   36.0030  -32.8980 C.2   256  VAL256      0.2593
    108  O        -23.2710   35.6140  -32.0200 O.2   256  VAL256     -0.2718
    109  CB       -22.4730   37.3990  -34.2540 C.3   256  VAL256      0.0266
    110  CG1      -22.4360   36.4330  -35.4320 C.3   256  VAL256      0.0020
    111  CG2      -22.1500   38.8190  -34.7020 C.3   256  VAL256      0.0020
    112  N        -25.0990   35.2910  -33.3090 N.am  257  SER257     -0.1938
    113  CA       -25.4650   34.0300  -32.6660 C.3   257  SER257      0.2055
    114  C        -25.5120   32.8570  -33.6290 C.2   257  SER257      0.2644
    115  O        -24.6850   31.9510  -33.5580 O.2   257  SER257     -0.2714
    116  CB       -26.8160   34.1640  -31.9620 C.3   257  SER257      0.2130
    117  OG       -27.2020   32.9490  -31.3310 O.3   257  SER257     -0.2179
    118  N        -26.4940   32.8640  -34.5200 N.am  258  SER258     -0.1935
    119  CA       -26.6900   31.7420  -35.4230 C.3   258  SER258      0.2055
    120  C        -27.0930   32.1930  -36.8170 C.2   258  SER258      0.2644
    121  O        -27.3500   33.3750  -37.0560 O.2   258  SER258     -0.2714
    122  CB       -27.7560   30.8030  -34.8700 C.3   258  SER258      0.2130
    123  OG       -28.9990   31.4720  -34.7450 O.3   258  SER258     -0.2179
    124  N        -27.1510   31.2320  -37.7330 N.am  259  GLY259     -0.1939
    125  CA       -27.5620   31.4950  -39.1000 C.3   259  GLY259      0.2014
    126  C        -27.5510   30.2340  -39.9390 C.2   259  GLY259      0.2639
    127  O        -26.7920   29.3010  -39.6660 O.2   259  GLY259     -0.2714
    128  N        -28.4040   30.2030  -40.9580 N.am  260  GLU260     -0.1963
    129  CA       -28.4230   29.1030  -41.9090 C.3   260  GLU260      0.1733
    130  C        -27.4910   29.4540  -43.0690 C.2   260  GLU260      0.2617
    131  O        -27.8700   30.1830  -43.9870 O.2   260  GLU260     -0.2715
    132  CB       -29.8470   28.8580  -42.4040 C.3   260  GLU260      0.0429
    133  CG       -30.1470   27.4090  -42.7380 C.3   260  GLU260      0.1163
    134  CD       -31.5940   27.1930  -43.1420 C.2   260  GLU260      0.3649
    135  OE1      -32.0780   27.9110  -44.0440 O.co2 260  GLU260     -0.2457
    136  OE2      -32.2520   26.3070  -42.5540 O.co2 260  GLU260     -0.2457
    137  N        -26.2670   28.9400  -43.0190 N.am  261  GLY261     -0.1940
    138  CA       -25.2420   29.3310  -43.9830 C.3   261  GLY261      0.2014
    139  C        -24.7850   30.7550  -43.7210 C.2   261  GLY261      0.2639
    140  O        -24.9300   31.2640  -42.6050 O.2   261  GLY261     -0.2714
    141  N        -24.2380   31.4030  -44.7460 N.am  262  CYS262     -0.1967
    142  CA       -23.8020   32.7950  -44.6290 C.3   262  CYS262      0.1712
    143  C        -24.1540   33.5910  -45.8810 C.2   262  CYS262      0.2296
    144  O        -23.6160   33.3410  -46.9590 O.2   262  CYS262     -0.2864
    145  CB       -22.2950   32.8770  -44.3640 C.3   262  CYS262      0.0983
    146  SG       -21.7410   31.9330  -42.9270 S.3   262  CYS262     -0.0798
    147  N        -27.1960   33.8430  -47.5430 N.3   264  ARG264     -0.1245
    148  CA       -27.9840   33.0710  -48.4980 C.3   264  ARG264      0.1563
    149  C        -29.2800   33.7850  -48.8750 C.2   264  ARG264      0.2260
    150  O        -29.8320   34.5590  -48.0900 O.2   264  ARG264     -0.2867
    151  CB       -28.2950   31.6850  -47.9400 C.3   264  ARG264      0.0307
    152  CG       -27.1380   30.7050  -48.0000 C.3   264  ARG264      0.0489
    153  CD       -27.6000   29.3260  -47.5640 C.3   264  ARG264      0.2205
    154  NE       -26.4940   28.3880  -47.4090 N.pl3 264  ARG264     -0.0865
    155  CZ       -26.6220   27.1670  -46.8980 C.cat 264  ARG264      0.5346
    156  NH1      -27.8090   26.7370  -46.4890 N.pl3 264  ARG264      0.1354
    157  NH2      -25.5640   26.3760  -46.7900 N.pl3 264  ARG264      0.1354
    158  N        -31.5850   35.2690  -43.3220 N.3   268  TYR268     -0.1227
    159  CA       -30.9200   36.3230  -42.5680 C.3   268  TYR268      0.1736
    160  C        -30.0130   35.7560  -41.4830 C.2   268  TYR268      0.2596
    161  O        -29.9350   34.5430  -41.2960 O.2   268  TYR268     -0.2718
    162  CB       -31.9650   37.2600  -41.9560 C.3   268  TYR268      0.0548
    163  CG       -32.9120   37.8380  -42.9790 C.ar  268  TYR268     -0.0200
    164  CD1      -33.9820   37.0940  -43.4640 C.ar  268  TYR268     -0.0009
    165  CD2      -32.7320   39.1230  -43.4720 C.ar  268  TYR268     -0.0009
    166  CE1      -34.8480   37.6160  -44.4090 C.ar  268  TYR268      0.0417
    167  CE2      -33.5920   39.6520  -44.4140 C.ar  268  TYR268      0.0417
    168  CZ       -34.6460   38.8960  -44.8790 C.ar  268  TYR268      0.1957
    169  OH       -35.4960   39.4260  -45.8210 O.3   268  TYR268     -0.2866
    170  N        -29.3180   36.6410  -40.7800 N.am  269  GLY269     -0.1942
    171  CA       -28.4830   36.2400  -39.6580 C.3   269  GLY269      0.2014
    172  C        -29.2650   36.4200  -38.3770 C.2   269  GLY269      0.2639
    173  O        -30.0170   37.3870  -38.2360 O.2   269  GLY269     -0.2714
    174  N        -29.1080   35.4840  -37.4460 N.am  270  ASN270     -0.1958
    175  CA       -29.8130   35.5680  -36.1740 C.3   270  ASN270      0.1819
    176  C        -28.9450   36.2190  -35.1070 C.2   270  ASN270      0.2621
    177  O        -27.7270   36.0690  -35.1140 O.2   270  ASN270     -0.2715
    178  CB       -30.2920   34.1860  -35.7240 C.3   270  ASN270      0.1195
    179  CG       -31.4330   33.6610  -36.5050 C.2   270  ASN270      0.2630
    180  OD1      -32.5020   34.2810  -36.4460 O.2   270  ASN270     -0.2716
    181  ND2      -31.2750   32.6130  -37.2210 N.am  270  ASN270     -0.0877
    182  N        -29.5800   36.9500  -34.1970 N.am  271  TYR271     -0.1974
    183  CA       -28.8620   37.6850  -33.1670 C.3   271  TYR271      0.1639
    184  C        -29.5980   37.6080  -31.8470 C.2   271  TYR271      0.2290
    185  O        -30.8260   37.6070  -31.8140 O.2   271  TYR271     -0.2864
    186  CB       -28.7170   39.1530  -33.5570 C.3   271  TYR271      0.0560
    187  CG       -27.8830   39.3930  -34.7940 C.ar  271  TYR271     -0.0198
    188  CD1      -28.4290   39.2430  -36.0600 C.ar  271  TYR271     -0.0009
    189  CD2      -26.5520   39.7830  -34.6940 C.ar  271  TYR271     -0.0009
    190  CE1      -27.6740   39.4670  -37.1930 C.ar  271  TYR271      0.0417
    191  CE2      -25.7900   40.0100  -35.8240 C.ar  271  TYR271      0.0417
    192  CZ       -26.3580   39.8500  -37.0710 C.ar  271  TYR271      0.1957
    193  OH       -25.6110   40.0750  -38.2020 O.3   271  TYR271     -0.2866
@<TRIPOS>BOND
     1   149   148    1
     2   149   150    2
     3   148   151    1
     4   148   147    1
     5   152   151    1
     6   152   153    1
     7   153   154    1
     8    52    51    2
     9   154   155    2
    10    56    55   ar
    11   144   143    2
    12   155   157    1
    13   155   156    1
    14    49    50    1
    15    53    54    1
    16    53    50    1
    17    55    57   ar
    18    55    54    1
    19    51    50    1
    20    51    58   am
    21    61    60    2
    22    62    63    1
    23    62    59    1
    24    60    59    1
    25   143   142    1
    26   169   168    1
    27    63    64    1
    28    59    58    1
    29   168   167   ar
    30   168   166   ar
    31    67    68    1
    32   141   142    1
    33   141   139   am
    34   142   145    1
    35   167   165   ar
    36   166   164   ar
    37   145   146    1
    38    64    65    1
    39   135   134   ar
    40    71    68    1
    41    71    72    1
    42   131   130    2
    43   138   139    1
    44   138   137    1
    45    65    66    1
    46   139   140    2
    47    68    69    1
    48   165   163   ar
    49   164   163   ar
    50   158   159    1
    51    70    69    2
    52   134   133    1
    53   134   136   ar
    54   130   137   am
    55   130   129    1
    56   163   162    1
    57    74    72   ar
    58   146    85    1
    59    72    73   ar
    60    69    75   am
    61    85    84    1
    62   133   132    1
    63   159   162    1
    64   159   160    1
    65   132   129    1
    66    84    81    1
    67   129   128    1
    68    78    77    2
    69    75    76    1
    70   160   161    2
    71   160   170   am
    72    77    76    1
    73    77    80   am
    74   128   126   am
    75   170   171    1
    76    93    92    2
    77    81    80    1
    78    81    82    1
    79    76    79    1
    80    91    92    1
    81    91    90    1
    82    92    94   am
    83   126   127    2
    84   126   125    1
    85   171   172    1
    86    86    82   am
    87    86    87    1
    88    82    83    2
    89   125   124    1
    90    90    87    1
    91    89    88    2
    92    87    88    1
    93   172   173    2
    94   172   174   am
    95   193   192    1
    96    88    95   am
    97   124   120   am
    98   174   175    1
    99   181   179   am
   100   190   192   ar
   101   190   188   ar
   102   192   191   ar
   103   121   120    2
   104    95    96    1
   105   120   119    1
   106   179   180    2
   107   179   178    1
   108    96    97    1
   109   175   178    1
   110   175   176    1
   111   188   187   ar
   112   191   189   ar
   113    97    98    2
   114   110   109    1
   115   119   122    1
   116   119   118    1
   117   177   176    2
   118   176   182   am
   119   122   123    1
   120   187   189   ar
   121   187   186    1
   122   111   109    1
   123   118   114   am
   124   109   106    1
   125   182   183    1
   126    99   100    1
   127   114   115    2
   128   114   113    1
   129   186   183    1
   130   106   107    1
   131   106   105    1
   132     4     3    2
   133   104   103    1
   134   112   107   am
   135   112   113    1
   136   183   184    1
   137     2     3    1
   138     2     1    1
   139     2     5    1
   140    46    44   ar
   141    46    47   ar
   142   100   103    1
   143   100   101    1
   144   107   108    2
   145    48    47    1
   146     3    12   am
   147   113   116    1
   148    44    42   ar
   149    47    45   ar
   150     5     6    1
   151    12    13    1
   152   116   117    1
   153    27    26   ar
   154    27    25   ar
   155   184   185    2
   156   101   102    2
   157    13    14    1
   158    13    16    1
   159    15    14    2
   160    26    24   ar
   161    42    41    1
   162    42    43   ar
   163    45    43   ar
   164    35    34   ar
   165    25    23   ar
   166    41    38    1
   167    17    16    1
   168     6     7   ar
   169     6     8   ar
   170    36    34   ar
   171    24    23   ar
   172    34    33    1
   173     7     9   ar
   174    23    22    1
   175     8    10   ar
   176    37    38    1
   177    38    39    1
   178    40    39    2
   179    33    32    1
   180    31    30    2
   181    22    19    1
   182     9    11   ar
   183    21    20    2
   184    32    29    1
   185    10    11   ar
   186    20    19    1
   187    30    29    1
   188    19    18    1
   189    29    28    1
