@<TRIPOS>MOLECULE
tmp/4by0A01.pdb
 186 175 0 0 0
SMALL
GASTEIGER

@<TRIPOS>ATOM
      1  N        -37.3820   24.4810  -13.6280 N.3    19  PHE19      -0.1241
      2  CA       -38.7280   23.9600  -13.4380 C.3    19  PHE19       0.1605
      3  C        -39.5530   24.8910  -12.5810 C.2    19  PHE19       0.2264
      4  O        -40.7350   25.0760  -12.8300 O.2    19  PHE19      -0.2867
      5  CB       -38.6920   22.5740  -12.8010 C.3    19  PHE19       0.0534
      6  CG       -39.9990   21.9730  -12.3490 C.ar   19  PHE19      -0.0203
      7  CD1      -40.7120   22.4170  -11.2670 C.ar   19  PHE19      -0.0042
      8  CD2      -40.4240   20.7530  -12.9420 C.ar   19  PHE19      -0.0042
      9  CE1      -41.8090   21.7620  -10.7810 C.ar   19  PHE19      -0.0003
     10  CE2      -41.5300   20.0990  -12.4600 C.ar   19  PHE19      -0.0003
     11  CZ       -42.2100   20.5780  -11.3640 C.ar   19  PHE19      -0.0000
     12  N        -42.2700   10.3020   -0.6300 N.3    74  TYR74      -0.1241
     13  CA       -43.1790   11.1120    0.1760 C.3    74  TYR74       0.1605
     14  C        -42.7830   11.1430    1.6370 C.2    74  TYR74       0.2264
     15  O        -43.5510   11.5570    2.4950 O.2    74  TYR74      -0.2867
     16  CB       -44.5860   10.5600    0.0780 C.3    74  TYR74       0.0534
     17  CG       -45.2370   10.7740   -1.2360 C.ar   74  TYR74      -0.0201
     18  CD1      -44.8550   11.8100   -2.0760 C.ar   74  TYR74      -0.0009
     19  CD2      -46.2920    9.9660   -1.6200 C.ar   74  TYR74      -0.0009
     20  CE1      -45.4910   12.0120   -3.2790 C.ar   74  TYR74       0.0417
     21  CE2      -46.9390   10.1590   -2.8150 C.ar   74  TYR74       0.0417
     22  CZ       -46.5330   11.1810   -3.6380 C.ar   74  TYR74       0.1957
     23  OH       -47.1860   11.3560   -4.8230 O.3    74  TYR74      -0.2866
     24  N        -41.1500   12.9290    3.4220 N.3    76  ILE76      -0.1231
     25  CA       -41.1850   14.1890    4.1240 C.3    76  ILE76       0.1692
     26  C        -42.4500   14.3210    4.9660 C.2    76  ILE76       0.2591
     27  O        -42.4850   15.0650    5.9350 O.2    76  ILE76      -0.2718
     28  CB       -41.0860   15.3760    3.1510 C.3    76  ILE76       0.0266
     29  CG1      -41.1690   16.6870    3.9110 C.3    76  ILE76       0.0019
     30  CG2      -42.1960   15.3480    2.1160 C.3    76  ILE76       0.0020
     31  CD1      -40.1620   16.8210    5.0380 C.3    76  ILE76       0.0001
     32  N        -43.4800   13.5720    4.6040 N.am   77  MET77      -0.1979
     33  CA       -44.7510   13.6660    5.2970 C.3    77  MET77       0.1605
     34  C        -44.7160   13.0250    6.6460 C.2    77  MET77       0.2287
     35  O        -45.5860   13.2660    7.4590 O.2    77  MET77      -0.2864
     36  CB       -45.8290   12.9750    4.4890 C.3    77  MET77       0.0413
     37  CG       -45.9910   13.5530    3.0970 C.3    77  MET77       0.0598
     38  SD       -46.5240   15.2670    3.1240 S.3    77  MET77      -0.1393
     39  CE       -47.8060   15.1670    4.3790 C.3    77  MET77       0.0692
     40  N        -48.0190   12.8940    9.3170 N.3    81  PHE81      -0.1241
     41  CA       -48.9790   11.8210    9.5290 C.3    81  PHE81       0.1605
     42  C        -48.5740   11.0080   10.7230 C.2    81  PHE81       0.2264
     43  O        -49.4370   10.5570   11.4580 O.2    81  PHE81      -0.2867
     44  CB       -49.0840   10.9310    8.3080 C.3    81  PHE81       0.0534
     45  CG       -49.5250   11.6580    7.0780 C.ar   81  PHE81      -0.0203
     46  CD1      -50.2450   12.8430    7.1700 C.ar   81  PHE81      -0.0042
     47  CD2      -49.2330   11.1530    5.8220 C.ar   81  PHE81      -0.0042
     48  CE1      -50.6550   13.5060    6.0280 C.ar   81  PHE81      -0.0003
     49  CE2      -49.6340   11.8180    4.6750 C.ar   81  PHE81      -0.0003
     50  CZ       -50.3550   12.9910    4.7810 C.ar   81  PHE81      -0.0000
     51  N        -47.2540    6.3130    4.6560 N.3    87  TYR87      -0.1241
     52  CA       -46.1940    5.8310    3.8110 C.3    87  TYR87       0.1605
     53  C        -45.0700    5.3470    4.7040 C.2    87  TYR87       0.2264
     54  O        -44.1700    4.6730    4.2320 O.2    87  TYR87      -0.2867
     55  CB       -45.7170    6.9520    2.8950 C.3    87  TYR87       0.0534
     56  CG       -46.7920    7.3680    1.9480 C.ar   87  TYR87      -0.0201
     57  CD1      -47.0870    6.5920    0.8540 C.ar   87  TYR87      -0.0009
     58  CD2      -47.5450    8.5110    2.1730 C.ar   87  TYR87      -0.0009
     59  CE1      -48.0930    6.9450   -0.0150 C.ar   87  TYR87       0.0417
     60  CE2      -48.5570    8.8770    1.3100 C.ar   87  TYR87       0.0417
     61  CZ       -48.8210    8.0850    0.2160 C.ar   87  TYR87       0.1957
     62  OH       -49.8130    8.4140   -0.6580 O.3    87  TYR87      -0.2866
     63  N        -55.0060    3.2320    4.4690 N.3    98  LEU98      -0.1245
     64  CA       -55.6110    4.1180    3.5120 C.3    98  LEU98       0.1561
     65  C        -57.0100    3.6530    3.2340 C.2    98  LEU98       0.2260
     66  O        -57.9430    4.4460    3.0970 O.2    98  LEU98      -0.2867
     67  CB       -54.8160    4.1350    2.2270 C.3    98  LEU98       0.0270
     68  CG       -53.5020    4.8970    2.3550 C.3    98  LEU98       0.0019
     69  CD1      -52.7260    4.8100    1.0560 C.3    98  LEU98       0.0001
     70  CD2      -53.7310    6.3450    2.7460 C.3    98  LEU98       0.0001
     71  N        -43.1190   21.5090    5.7210 N.3   179  LEU179     -0.1245
     72  CA       -42.8270   20.7680    4.5140 C.3   179  LEU179      0.1561
     73  C        -41.8600   21.4930    3.5940 C.2   179  LEU179      0.2260
     74  O        -41.8710   22.7120    3.4980 O.2   179  LEU179     -0.2867
     75  CB       -44.1140   20.4400    3.7860 C.3   179  LEU179      0.0270
     76  CG       -45.1310   19.6130    4.5630 C.3   179  LEU179      0.0019
     77  CD1      -46.4500   19.5160    3.8250 C.3   179  LEU179      0.0001
     78  CD2      -44.6130   18.2190    4.8650 C.3   179  LEU179      0.0001
     79  N        -40.5390   20.8130   -0.4530 N.3   181  PRO181     -0.2116
     80  CA       -40.7270   19.8230   -1.5130 C.3   181  PRO181      0.1372
     81  C        -39.4260   19.4230   -2.2090 C.2   181  PRO181      0.2244
     82  O        -39.1480   19.8300   -3.3420 O.2   181  PRO181     -0.2868
     83  CB       -41.6350   20.5370   -2.4950 C.3   181  PRO181      0.0268
     84  CG       -41.1770   21.9500   -2.4090 C.3   181  PRO181      0.0207
     85  CD       -40.7220   22.1830   -0.9820 C.3   181  PRO181      0.0892
     86  N        -39.1400   16.4150   -2.8550 N.3   183  ALA183     -0.1231
     87  CA       -39.6220   15.0830   -3.1680 C.3   183  ALA183      0.1694
     88  C        -38.9120   14.5070   -4.3690 C.2   183  ALA183      0.2591
     89  O        -38.6380   13.3170   -4.4140 O.2   183  ALA183     -0.2718
     90  CB       -41.1200   15.1050   -3.4050 C.3   183  ALA183      0.0304
     91  N        -38.6160   15.3570   -5.3420 N.am  184  VAL184     -0.1980
     92  CA       -37.8900   14.9170   -6.5190 C.3   184  VAL184      0.1595
     93  C        -36.5070   14.3990   -6.1480 C.2   184  VAL184      0.2287
     94  O        -36.0910   13.3960   -6.6720 O.2   184  VAL184     -0.2864
     95  CB       -37.7900   16.0010   -7.6280 C.3   184  VAL184      0.0276
     96  CG1      -38.9140   15.8570   -8.6520 C.3   184  VAL184      0.0022
     97  CG2      -37.7820   17.4020   -7.0420 C.3   184  VAL184      0.0022
     98  N        -35.8800   14.5630   -2.7440 N.3   186  MET186     -0.1245
     99  CA       -36.1150   14.8640   -1.3670 C.3   186  MET186      0.1570
    100  C        -35.5580   13.7400   -0.5470 C.2   186  MET186      0.2261
    101  O        -35.0030   14.0200    0.5220 O.2   186  MET186     -0.2867
    102  CB       -37.6120   15.0860   -1.0660 C.3   186  MET186      0.0387
    103  CG       -37.8280   15.2120    0.4230 C.3   186  MET186      0.0595
    104  SD       -39.4110   16.0960    0.7390 S.3   186  MET186     -0.1393
    105  CE       -40.5330   15.0200   -0.1470 C.3   186  MET186      0.0692
    106  N        -54.5700   13.4680    7.4330 N.3   252  ALA252     -0.1245
    107  CA       -54.5090   13.2670    6.0040 C.3   252  ALA252      0.1562
    108  C        -55.7730   13.8140    5.3910 C.2   252  ALA252      0.2260
    109  O        -55.7370   14.4640    4.3640 O.2   252  ALA252     -0.2867
    110  CB       -54.3720   11.7940    5.6640 C.3   252  ALA252      0.0290
    111  N        -55.6690   17.4430    5.3770 N.3   255  PHE255     -0.1227
    112  CA       -54.5520   17.9010    4.5990 C.3   255  PHE255      0.1736
    113  C        -54.7470   17.8610    3.0930 C.2   255  PHE255      0.2595
    114  O        -54.3700   18.7770    2.3880 O.2   255  PHE255     -0.2718
    115  CB       -53.3070   17.1070    4.9330 C.3   255  PHE255      0.0547
    116  CG       -52.0680   17.9370    4.8930 C.ar  255  PHE255     -0.0202
    117  CD1      -51.3800   18.1170    3.7180 C.ar  255  PHE255     -0.0042
    118  CD2      -51.6190   18.5740    6.0320 C.ar  255  PHE255     -0.0042
    119  CE1      -50.2490   18.9020    3.6830 C.ar  255  PHE255     -0.0003
    120  CE2      -50.4900   19.3640    6.0010 C.ar  255  PHE255     -0.0003
    121  CZ       -49.8060   19.5280    4.8270 C.ar  255  PHE255     -0.0000
    122  N        -55.2790   16.7710    2.5900 N.am  256  ALA256     -0.1980
    123  CA       -55.3970   16.6090    1.1640 C.3   256  ALA256      0.1597
    124  C        -56.3220   17.6420    0.5810 C.2   256  ALA256      0.2287
    125  O        -56.0850   18.1950   -0.4750 O.2   256  ALA256     -0.2864
    126  CB       -55.9490   15.2490    0.8840 C.3   256  ALA256      0.0319
    127  N        -56.2000   21.6740   -2.4900 N.3   260  THR260     -0.1218
    128  CA       -56.6330   21.1720   -3.7680 C.3   260  THR260      0.1862
    129  C        -58.0750   21.5720   -3.9880 C.2   260  THR260      0.2287
    130  O        -58.4370   22.0630   -5.0480 O.2   260  THR260     -0.2866
    131  CB       -56.5370   19.6530   -3.7700 C.3   260  THR260      0.1770
    132  OG1      -56.8750   19.1820   -2.4630 O.3   260  THR260     -0.2211
    133  CG2      -55.1520   19.2380   -4.0810 C.3   260  THR260      0.0375
    134  N        -52.1650   19.6120   -8.3460 N.3   321  LEU321     -0.1231
    135  CA       -50.9150   18.9250   -8.0430 C.3   321  LEU321      0.1693
    136  C        -50.1630   18.6640   -9.3040 C.2   321  LEU321      0.2592
    137  O        -50.5960   17.8620  -10.1190 O.2   321  LEU321     -0.2718
    138  CB       -51.1960   17.6020   -7.3720 C.3   321  LEU321      0.0284
    139  CG       -51.7720   17.7570   -5.9720 C.3   321  LEU321      0.0019
    140  CD1      -52.6380   16.5610   -5.6830 C.3   321  LEU321      0.0001
    141  CD2      -50.6900   17.9150   -4.9170 C.3   321  LEU321      0.0001
    142  N        -49.0200   19.3050   -9.4620 N.am  322  LEU322     -0.1966
    143  CA       -48.3780   19.3150  -10.7750 C.3   322  LEU322      0.1728
    144  C        -47.8270   17.9820  -11.1990 C.2   322  LEU322      0.2616
    145  O        -47.7810   17.7000  -12.3930 O.2   322  LEU322     -0.2715
    146  CB       -47.2710   20.3530  -10.8360 C.3   322  LEU322      0.0311
    147  CG       -47.7190   21.7850  -10.5370 C.3   322  LEU322      0.0022
    148  CD1      -46.7160   22.7520  -11.1430 C.3   322  LEU322      0.0001
    149  CD2      -49.1310   22.0750  -11.0440 C.3   322  LEU322      0.0001
    150  N        -47.3930   17.1630  -10.2480 N.am  323  MET323     -0.1977
    151  CA       -46.9420   15.8320  -10.6260 C.3   323  MET323      0.1605
    152  C        -46.7920   14.8190   -9.5070 C.2   323  MET323      0.2287
    153  O        -46.8190   15.1420   -8.3280 O.2   323  MET323     -0.2864
    154  CB       -45.6520   15.9170  -11.4380 C.3   323  MET323      0.0413
    155  CG       -44.3860   16.1880  -10.6410 C.3   323  MET323      0.0598
    156  SD       -42.9790   15.9800  -11.7440 S.3   323  MET323     -0.1393
    157  CE       -43.5250   16.9500  -13.1510 C.3   323  MET323      0.0692
    158  N        -44.6980   11.2200   -8.1530 N.3   325  MET325     -0.1245
    159  CA       -43.4500   10.4750   -8.2880 C.3   325  MET325      0.1570
    160  C        -43.4850    9.1530   -7.5510 C.2   325  MET325      0.2261
    161  O        -44.2120    8.9810   -6.5780 O.2   325  MET325     -0.2867
    162  CB       -42.2650   11.2840   -7.7740 C.3   325  MET325      0.0387
    163  CG       -42.2630   12.7190   -8.2450 C.3   325  MET325      0.0595
    164  SD       -43.8840   13.4470   -7.9840 S.3   325  MET325     -0.1393
    165  CE       -43.5980   14.5350   -6.5930 C.3   325  MET325      0.0692
    166  N        -56.9120    8.8570   -6.1400 N.3   387  CYS387     -0.1235
    167  CA       -57.3240    9.6910   -5.0370 C.3   387  CYS387      0.1677
    168  C        -58.4960    8.9620   -4.3640 C.2   387  CYS387      0.2270
    169  O        -59.3840    8.4730   -5.0680 O.2   387  CYS387     -0.2867
    170  CB       -57.7460   11.0940   -5.4930 C.3   387  CYS387      0.0956
    171  SG       -57.9160   12.2190   -4.0960 S.3   387  CYS387     -0.0801
    172  N        -46.6430   25.2010   -3.2310 N.3   425  MET425     -0.1230
    173  CA       -46.5600   23.7510   -3.1330 C.3   425  MET425      0.1702
    174  C        -47.6960   23.0820   -3.9180 C.2   425  MET425      0.2592
    175  O        -47.4950   22.1100   -4.6380 O.2   425  MET425     -0.2718
    176  CB       -46.6610   23.4020   -1.6660 C.3   425  MET425      0.0401
    177  CG       -46.5990   21.9290   -1.3620 C.3   425  MET425      0.0596
    178  SD       -45.5230   21.6400    0.0420 S.3   425  MET425     -0.1393
    179  CE       -43.9590   21.6870   -0.8240 C.3   425  MET425      0.0692
    180  N        -48.8950   23.6190   -3.7520 N.am  426  VAL426     -0.1980
    181  CA       -50.0380   23.2030   -4.5180 C.3   426  VAL426      0.1595
    182  C        -50.4390   24.4020   -5.3290 C.2   426  VAL426      0.2287
    183  O        -50.6090   25.4830   -4.7870 O.2   426  VAL426     -0.2864
    184  CB       -51.2010   22.8450   -3.6100 C.3   426  VAL426      0.0276
    185  CG1      -52.4010   22.4570   -4.4510 C.3   426  VAL426      0.0022
    186  CG2      -50.8070   21.7220   -2.6720 C.3   426  VAL426      0.0022
@<TRIPOS>BOND
     1     1     2    1
     2     2     5    1
     3     2     3    1
     4   157   156    1
     5     8    10   ar
     6     8     6   ar
     7     4     3    2
     8     5     6    1
     9    10    11   ar
    10   145   144    2
    11     6     7   ar
    12   156   155    1
    13   154   155    1
    14   154   151    1
    15    11     9   ar
    16     7     9   ar
    17   144   143    1
    18   144   150   am
    19   148   147    1
    20   149   147    1
    21   146   143    1
    22   146   147    1
    23   143   142    1
    24   151   150    1
    25   151   152    1
    26   137   136    2
    27   152   153    2
    28   142   136   am
    29   136   135    1
    30    96    95    1
    31   134   135    1
    32   159   158    1
    33   159   162    1
    34   159   160    1
    35   163   164    1
    36   163   162    1
    37   135   138    1
    38   164   165    1
    39    95    97    1
    40    95    92    1
    41   160   161    2
    42   138   139    1
    43    94    93    2
    44    92    93    1
    45    92    91    1
    46   166   167    1
    47   139   140    1
    48   139   141    1
    49   170   167    1
    50   170   171    1
    51    91    88   am
    52   182   183    2
    53   182   181    1
    54   169   168    2
    55   130   129    2
    56   167   168    1
    57    23    22    1
    58   175   174    2
    59   181   180    1
    60   181   184    1
    61   185   184    1
    62    89    88    2
    63    88    87    1
    64   133   131    1
    65   129   128    1
    66   174   180   am
    67   174   173    1
    68   131   128    1
    69   131   132    1
    70   128   127    1
    71    22    20   ar
    72    22    21   ar
    73   184   186    1
    74    90    87    1
    75    82    81    2
    76    20    18   ar
    77   172   173    1
    78    87    86    1
    79   173   176    1
    80    21    19   ar
    81    98    99    1
    82    83    84    1
    83    83    80    1
    84    84    85    1
    85    81    80    1
    86    18    17   ar
    87   176   177    1
    88    19    17   ar
    89    80    79    1
    90    99   102    1
    91    99   100    1
    92   177   178    1
    93    17    16    1
    94   102   103    1
    95    85    79    1
    96   179   178    1
    97    62    61    1
    98    12    13    1
    99   100   101    2
   100   125   124    2
   101   105   104    1
   102    59    61   ar
   103    59    57   ar
   104    16    13    1
   105    13    14    1
   106    61    60   ar
   107   103   104    1
   108   124   123    1
   109    57    56   ar
   110   126   123    1
   111    69    68    1
   112   123   122    1
   113    60    58   ar
   114    14    15    2
   115    56    58   ar
   116    56    55    1
   117    30    28    1
   118    67    68    1
   119    67    64    1
   120    68    70    1
   121   114   113    2
   122   122   113   am
   123    55    52    1
   124   113   112    1
   125    66    65    2
   126    37    38    1
   127    37    36    1
   128    38    39    1
   129    28    29    1
   130    28    25    1
   131    65    64    1
   132    24    25    1
   133    74    73    2
   134    64    63    1
   135    73    72    1
   136   119   117   ar
   137   119   121   ar
   138   117   116   ar
   139    75    72    1
   140    75    76    1
   141    52    51    1
   142    52    53    1
   143    77    76    1
   144    29    31    1
   145    25    26    1
   146    54    53    2
   147   109   108    2
   148    36    33    1
   149    72    71    1
   150    76    78    1
   151   112   115    1
   152   112   111    1
   153    32    26   am
   154    32    33    1
   155    49    50   ar
   156    49    47   ar
   157    50    48   ar
   158   121   120   ar
   159   116   115    1
   160   116   118   ar
   161    26    27    2
   162    33    34    1
   163   108   107    1
   164   110   107    1
   165    47    45   ar
   166   120   118   ar
   167   107   106    1
   168    48    46   ar
   169    34    35    2
   170    45    46   ar
   171    45    44    1
   172    44    41    1
   173    40    41    1
   174    41    42    1
   175    42    43    2
