@<TRIPOS>MOLECULE
tmp/4byfA00.pdb
 220 213 0 0 0
SMALL
GASTEIGER

@<TRIPOS>ATOM
      1  N        -22.2900   -5.0790  126.9050 N.3    33  ILE33      -0.1231
      2  CA       -21.5640   -3.8810  127.2990 C.3    33  ILE33       0.1692
      3  C        -20.9490   -3.1640  126.1080 C.2    33  ILE33       0.2592
      4  O        -20.4540   -2.0470  126.2380 O.2    33  ILE33      -0.2718
      5  CB       -20.4620   -4.2110  128.3180 C.3    33  ILE33       0.0266
      6  CG1      -19.4440   -5.1760  127.7100 C.3    33  ILE33       0.0019
      7  CG2      -21.0700   -4.7990  129.5860 C.3    33  ILE33       0.0020
      8  CD1      -18.3340   -5.5720  128.6640 C.3    33  ILE33       0.0001
      9  N        -20.9960   -3.8050  124.9460 N.am   34  TYR34      -0.1976
     10  CA       -20.3320   -3.2860  123.7540 C.3    34  TYR34       0.1639
     11  C        -21.3130   -2.8160  122.6870 C.2    34  TYR34       0.2290
     12  O        -22.2890   -3.4960  122.3850 O.2    34  TYR34      -0.2864
     13  CB       -19.4040   -4.3500  123.1650 C.3    34  TYR34       0.0560
     14  CG       -18.2330   -4.7100  124.0470 C.ar   34  TYR34      -0.0198
     15  CD1      -17.4260   -3.7220  124.6010 C.ar   34  TYR34      -0.0009
     16  CD2      -17.9370   -6.0390  124.3370 C.ar   34  TYR34      -0.0009
     17  CE1      -16.3470   -4.0460  125.4120 C.ar   34  TYR34       0.0417
     18  CE2      -16.8600   -6.3730  125.1530 C.ar   34  TYR34       0.0417
     19  CZ       -16.0720   -5.3700  125.6860 C.ar   34  TYR34       0.1957
     20  OH       -15.0030   -5.6870  126.4910 O.3    34  TYR34      -0.2866
     21  N        -17.6640    0.8900  125.3050 N.3    43  SER43      -0.1217
     22  CA       -17.6460   -0.1560  126.3190 C.3    43  SER43       0.1889
     23  C        -18.1770    0.3470  127.6530 C.2    43  SER43       0.2288
     24  O        -17.7190    1.3680  128.1590 O.2    43  SER43      -0.2866
     25  CB       -16.2310   -0.6960  126.4940 C.3    43  SER43       0.2089
     26  OG       -16.2160   -1.7190  127.4670 O.3    43  SER43      -0.2183
     27  N        -18.7070   -0.4940  131.6750 N.3    45  ASN45      -0.1226
     28  CA       -18.1910   -1.3500  132.7370 C.3    45  ASN45       0.1770
     29  C        -19.3080   -2.1090  133.4490 C.2    45  ASN45       0.2439
     30  O        -20.1460   -1.5070  134.1180 O.2    45  ASN45      -0.2733
     31  CB       -17.4030   -0.5090  133.7480 C.3    45  ASN45       0.1168
     32  CG       -16.4900   -1.3450  134.6240 C.2    45  ASN45       0.2627
     33  OD1      -16.7630   -2.5120  134.8950 O.2    45  ASN45      -0.2716
     34  ND2      -15.3990   -0.7430  135.0790 N.am   45  ASN45      -0.0877
     35  N        -19.3180   -3.4410  133.3110 N.am   46  PRO46      -0.2718
     36  CA       -20.2900   -4.3190  133.9710 C.3    46  PRO46       0.1535
     37  C        -20.1000   -4.3350  135.4880 C.2    46  PRO46       0.2599
     38  O        -21.0560   -4.5350  136.2320 O.2    46  PRO46      -0.2715
     39  CB       -19.9540   -5.7010  133.4020 C.3    46  PRO46       0.0310
     40  CG       -19.1780   -5.4370  132.1670 C.3    46  PRO46       0.0237
     41  CD       -18.4010   -4.1970  132.4480 C.3    46  PRO46       0.0939
     42  N        -18.8600   -4.1490  135.9280 N.am   47  TYR47      -0.1960
     43  CA       -18.5130   -4.2320  137.3420 C.3    47  TYR47       0.1771
     44  C        -18.8470   -5.6030  137.9120 C.2    47  TYR47       0.2619
     45  O        -19.0310   -5.7630  139.1160 O.2    47  TYR47      -0.2715
     46  CB       -19.1920   -3.1280  138.1450 C.3    47  TYR47       0.0574
     47  CG       -18.4310   -1.8300  138.1670 C.ar   47  TYR47      -0.0198
     48  CD1      -17.1560   -1.7660  138.7080 C.ar   47  TYR47      -0.0009
     49  CD2      -18.9850   -0.6650  137.6510 C.ar   47  TYR47      -0.0009
     50  CE1      -16.4490   -0.5790  138.7370 C.ar   47  TYR47       0.0417
     51  CE2      -18.2880    0.5280  137.6750 C.ar   47  TYR47       0.0417
     52  CZ       -17.0190    0.5650  138.2200 C.ar   47  TYR47       0.1957
     53  OH       -16.3120    1.7440  138.2530 O.3    47  TYR47      -0.2866
     54  N        -18.9040   -6.5910  137.0310 N.am   48  ARG48      -0.1963
     55  CA       -19.1060   -7.9740  137.4230 C.3    48  ARG48       0.1729
     56  C        -18.4950   -8.8600  136.3540 C.2    48  ARG48       0.2616
     57  O        -18.3120   -8.4300  135.2170 O.2    48  ARG48      -0.2715
     58  CB       -20.5980   -8.2730  137.5550 C.3    48  ARG48       0.0348
     59  CG       -21.3610   -8.1620  136.2410 C.3    48  ARG48       0.0492
     60  CD       -22.8610   -8.3350  136.4400 C.3    48  ARG48       0.2205
     61  NE       -23.1930   -9.6640  136.9430 N.pl3  48  ARG48      -0.0865
     62  CZ       -23.6980  -10.6390  136.1930 C.cat  48  ARG48       0.5346
     63  NH1      -23.9370  -10.4310  134.9040 N.pl3  48  ARG48       0.1354
     64  NH2      -23.9690  -11.8190  136.7310 N.pl3  48  ARG48       0.1354
     65  N        -18.1970  -10.1050  136.7020 N.am   49  ASP49      -0.1957
     66  CA       -17.6010  -10.9990  135.7240 C.3    49  ASP49       0.1840
     67  C        -18.6700  -11.8140  135.0060 C.2    49  ASP49       0.2621
     68  O        -19.3140  -12.6920  135.5840 O.2    49  ASP49      -0.2715
     69  CB       -16.5700  -11.9210  136.3780 C.3    49  ASP49       0.1450
     70  CG       -16.0190  -12.9530  135.4110 C.2    49  ASP49       0.3671
     71  OD1      -15.9220  -12.6470  134.2030 O.co2  49  ASP49      -0.2456
     72  OD2      -15.6790  -14.0690  135.8570 O.co2  49  ASP49      -0.2456
     73  N        -18.8470  -11.4900  133.7340 N.am   50  LEU50      -0.1977
     74  CA       -19.6820  -12.2450  132.8180 C.3    50  LEU50       0.1596
     75  C        -18.7010  -12.6830  131.7560 C.2    50  LEU50       0.2287
     76  O        -17.9600  -11.8540  131.2360 O.2    50  LEU50      -0.2864
     77  CB       -20.7650  -11.3410  132.2330 C.3    50  LEU50       0.0297
     78  CG       -20.2820   -9.9780  131.7250 C.3    50  LEU50       0.0022
     79  CD1      -19.8190  -10.0570  130.2770 C.3    50  LEU50       0.0001
     80  CD2      -21.3490   -8.9110  131.9010 C.3    50  LEU50       0.0001
     81  N        -14.8700  -13.3010  127.5720 N.3    53  TYR53      -0.1241
     82  CA       -13.4450  -13.2190  127.2660 C.3    53  TYR53       0.1605
     83  C        -12.7330  -14.5570  127.1220 C.2    53  TYR53       0.2264
     84  O        -11.5090  -14.6010  126.9780 O.2    53  TYR53      -0.2867
     85  CB       -12.7330  -12.3110  128.2670 C.3    53  TYR53       0.0534
     86  CG       -13.3480  -10.9370  128.3270 C.ar   53  TYR53      -0.0201
     87  CD1      -13.2240  -10.0630  127.2590 C.ar   53  TYR53      -0.0009
     88  CD2      -14.0660  -10.5190  129.4380 C.ar   53  TYR53      -0.0009
     89  CE1      -13.7860   -8.8090  127.2950 C.ar   53  TYR53       0.0417
     90  CE2      -14.6350   -9.2620  129.4830 C.ar   53  TYR53       0.0417
     91  CZ       -14.4900   -8.4130  128.4070 C.ar   53  TYR53       0.1957
     92  OH       -15.0500   -7.1600  128.4370 O.3    53  TYR53      -0.2866
     93  N        -12.9030    7.6420  132.2880 N.3    98  GLU98      -0.1231
     94  CA       -12.4510    8.1160  133.5590 C.3    98  GLU98       0.1699
     95  C        -12.0200    6.9900  134.4620 C.2    98  GLU98       0.2593
     96  O        -11.9780    5.8490  134.0960 O.2    98  GLU98      -0.2718
     97  CB       -13.4470    9.0180  134.2700 C.3    98  GLU98       0.0402
     98  CG       -14.8450    9.1530  133.7060 C.3    98  GLU98       0.1161
     99  CD       -15.8090    9.8020  134.6880 C.2    98  GLU98       0.3649
    100  OE1      -16.2730    9.1350  135.6090 O.co2  98  GLU98      -0.2457
    101  OE2      -16.1110   10.9870  134.5500 O.co2  98  GLU98      -0.2457
    102  N        -11.6940    7.3430  135.6690 N.am   99  SER99      -0.1938
    103  CA       -11.1880    6.3600  136.6020 C.3    99  SER99       0.2055
    104  C        -12.2420    5.2820  136.8030 C.2    99  SER99       0.2643
    105  O        -13.3900    5.5810  137.1260 O.2    99  SER99      -0.2714
    106  CB       -10.8730    7.0340  137.9400 C.3    99  SER99       0.2130
    107  OG       -10.4030    6.0950  138.8890 O.3    99  SER99      -0.2179
    108  N        -11.8530    4.0280  136.5890 N.am  100  GLY100     -0.1954
    109  CA       -12.7570    2.9110  136.7950 C.3   100  GLY100      0.1869
    110  C        -13.5950    2.6050  135.5730 C.2   100  GLY100      0.2309
    111  O        -14.4800    1.7520  135.6030 O.2   100  GLY100     -0.2863
    112  N        -12.7020    1.1320  132.9040 N.3   102  GLY102     -0.1210
    113  CA       -12.3420   -0.1320  132.2710 C.3   102  GLY102      0.1956
    114  C        -11.2150   -0.1540  131.2390 C.2   102  GLY102      0.2612
    115  O        -11.0960   -1.1110  130.4660 O.2   102  GLY102     -0.2717
    116  N        -10.4000    0.8980  131.2020 N.am  103  LYS103     -0.1965
    117  CA        -9.2570    0.9560  130.2910 C.3   103  LYS103      0.1728
    118  C         -8.2300   -0.1520  130.5070 C.2   103  LYS103      0.2617
    119  O         -7.8330   -0.8340  129.5620 O.2   103  LYS103     -0.2715
    120  CB        -8.5730    2.3170  130.3750 C.3   103  LYS103      0.0311
    121  CG        -9.4940    3.4700  130.0370 C.3   103  LYS103      0.0038
    122  CD        -8.7770    4.8060  130.1000 C.3   103  LYS103      0.0206
    123  CE        -8.3950    5.1380  131.5190 C.3   103  LYS103      0.1093
    124  NZ        -9.5780    5.0320  132.4160 N.3   103  LYS103     -0.1314
    125  N         -7.7860   -0.3220  131.7450 N.am  104  THR104     -0.1937
    126  CA        -6.7770   -1.3310  132.0530 C.3   104  THR104      0.2028
    127  C         -7.2440   -2.7470  131.7150 C.2   104  THR104      0.2642
    128  O         -6.4850   -3.5490  131.1680 O.2   104  THR104     -0.2714
    129  CB        -6.3380   -1.2610  133.5300 C.3   104  THR104      0.1808
    130  OG1       -5.5660   -0.0730  133.7340 O.3   104  THR104     -0.2208
    131  CG2       -5.4850   -2.4630  133.8950 C.3   104  THR104      0.0379
    132  N         -8.4920   -3.0530  132.0500 N.am  105  GLU105     -0.1963
    133  CA        -9.0490   -4.3690  131.7730 C.3   105  GLU105      0.1733
    134  C         -9.2240   -4.5910  130.2740 C.2   105  GLU105      0.2616
    135  O         -9.0690   -5.7110  129.7810 O.2   105  GLU105     -0.2715
    136  CB       -10.3840   -4.5480  132.4960 C.3   105  GLU105      0.0429
    137  CG       -10.2730   -4.4980  134.0140 C.3   105  GLU105      0.1163
    138  CD        -9.3740   -5.5850  134.5780 C.2   105  GLU105      0.3649
    139  OE1       -9.4190   -6.7230  134.0620 O.co2 105  GLU105     -0.2457
    140  OE2       -8.6230   -5.2970  135.5360 O.co2 105  GLU105     -0.2457
    141  N         -9.5360   -3.5140  129.5550 N.am  106  ALA106     -0.1977
    142  CA        -9.7190   -3.5740  128.1060 C.3   106  ALA106      0.1597
    143  C         -8.4170   -3.8890  127.3810 C.2   106  ALA106      0.2287
    144  O         -8.4040   -4.6770  126.4350 O.2   106  ALA106     -0.2864
    145  CB       -10.2950   -2.2730  127.5970 C.3   106  ALA106      0.0319
    146  N         -7.3310   -7.6260  127.8800 N.3   109  ARG109     -0.1245
    147  CA        -8.1240   -8.5560  127.0900 C.3   109  ARG109      0.1563
    148  C         -7.6210   -8.5730  125.6500 C.2   109  ARG109      0.2260
    149  O         -7.4810   -9.6370  125.0480 O.2   109  ARG109     -0.2867
    150  CB        -9.6030   -8.1910  127.1550 C.3   109  ARG109      0.0307
    151  CG       -10.3950   -9.0390  128.1430 C.3   109  ARG109      0.0489
    152  CD        -9.6440   -9.2130  129.4570 C.3   109  ARG109      0.2205
    153  NE       -10.4550   -9.8520  130.4920 N.pl3 109  ARG109     -0.0865
    154  CZ       -10.4980  -11.1620  130.7170 C.cat 109  ARG109      0.5346
    155  NH1       -9.7760  -11.9900  129.9760 N.pl3 109  ARG109      0.1354
    156  NH2      -11.2650  -11.6420  131.6860 N.pl3 109  ARG109      0.1354
    157  N         -0.0720    0.1390  140.6460 N.3   143  ASN143     -0.1240
    158  CA        -1.4950    0.2690  140.9500 C.3   143  ASN143      0.1653
    159  C         -1.8120    0.2470  142.4440 C.2   143  ASN143      0.2266
    160  O         -1.1630   -0.4520  143.2230 O.2   143  ASN143     -0.2867
    161  CB        -2.2990   -0.8120  140.2240 C.3   143  ASN143      0.1155
    162  CG        -2.2650   -0.6540  138.7160 C.2   143  ASN143      0.2627
    163  OD1       -1.3030   -0.1290  138.1500 O.2   143  ASN143     -0.2716
    164  ND2       -3.3190   -1.1090  138.0570 N.am  143  ASN143     -0.0877
    165  N        -11.3580    3.4990  142.1060 N.3   149  ASN149     -0.1225
    166  CA       -11.0280    2.1830  141.5780 C.3   149  ASN149      0.1785
    167  C        -10.1970    1.3540  142.5650 C.2   149  ASN149      0.2597
    168  O         -9.1600    1.8090  143.0440 O.2   149  ASN149     -0.2718
    169  CB       -10.3120    2.3520  140.2340 C.3   149  ASN149      0.1169
    170  CG       -10.0540    1.0430  139.5320 C.2   149  ASN149      0.2627
    171  OD1      -10.3670   -0.0320  140.0390 O.2   149  ASN149     -0.2716
    172  ND2       -9.5090    1.1330  138.3300 N.am  149  ASN149     -0.0877
    173  N        -10.6500    0.1380  142.8620 N.am  150  ASP150     -0.1960
    174  CA        -9.9350   -0.7250  143.8010 C.3   150  ASP150      0.1840
    175  C         -8.5490   -1.0720  143.2760 C.2   150  ASP150      0.2622
    176  O         -7.5820   -1.1560  144.0330 O.2   150  ASP150     -0.2715
    177  CB       -10.7300   -2.0000  144.1030 C.3   150  ASP150      0.1450
    178  CG       -11.8600   -1.7640  145.0970 C.2   150  ASP150      0.3671
    179  OD1      -11.7900   -0.7690  145.8510 O.co2 150  ASP150     -0.2456
    180  OD2      -12.8160   -2.5720  145.1300 O.co2 150  ASP150     -0.2456
    181  N         -8.4670   -1.2760  141.9710 N.am  151  ASN151     -0.1958
    182  CA        -7.1970   -1.4490  141.2910 C.3   151  ASN151      0.1819
    183  C         -6.9930   -0.2940  140.3350 C.2   151  ASN151      0.2622
    184  O         -7.5230   -0.2980  139.2370 O.2   151  ASN151     -0.2715
    185  CB        -7.2370   -2.7530  140.5030 C.3   151  ASN151      0.1195
    186  CG        -5.9860   -2.9920  139.7220 C.2   151  ASN151      0.2630
    187  OD1       -4.8950   -2.6460  140.1660 O.2   151  ASN151     -0.2716
    188  ND2       -6.1330   -3.5610  138.5260 N.am  151  ASN151     -0.0877
    189  N         -6.1570    0.6550  140.7120 N.am  152  SER152     -0.1936
    190  CA        -6.0490    1.8910  139.9550 C.3   152  SER152      0.2055
    191  C         -4.6390    2.1090  139.4200 C.2   152  SER152      0.2643
    192  O         -3.6600    1.9490  140.1480 O.2   152  SER152     -0.2714
    193  CB        -6.4900    3.0650  140.8270 C.3   152  SER152      0.2130
    194  OG        -6.4040    4.2840  140.1250 O.3   152  SER152     -0.2179
    195  N         -4.5350    2.4650  138.1440 N.am  153  SER153     -0.1949
    196  CA        -3.2280    2.7040  137.5490 C.3   153  SER153      0.1924
    197  C         -2.7370    4.0810  137.9720 C.2   153  SER153      0.2314
    198  O         -3.3650    5.0980  137.6800 O.2   153  SER153     -0.2863
    199  CB        -3.3010    2.6130  136.0190 C.3   153  SER153      0.2116
    200  OG        -3.7530    1.3400  135.5820 O.3   153  SER153     -0.2180
    201  N         -2.8270    2.7450  127.3950 N.3   371  ASP371     -0.1225
    202  CA        -3.5160    2.6640  128.6810 C.3   371  ASP371      0.1805
    203  C         -2.9640    3.7130  129.6440 C.2   371  ASP371      0.2597
    204  O         -1.8570    3.5800  130.1580 O.2   371  ASP371     -0.2718
    205  CB        -3.3410    1.2630  129.2750 C.3   371  ASP371      0.1424
    206  CG        -3.8460    1.1610  130.6990 C.2   371  ASP371      0.3668
    207  OD1       -4.5470    2.0900  131.1500 O.co2 371  ASP371     -0.2456
    208  OD2       -3.5340    0.1520  131.3720 O.co2 371  ASP371     -0.2456
    209  N         -3.7430    4.7410  129.8850 N.am  372  ILE372     -0.1980
    210  CA        -3.3570    5.8540  130.7420 C.3   372  ILE372      0.1595
    211  C         -4.2680    5.9790  131.9600 C.2   372  ILE372      0.2287
    212  O         -5.2500    5.2980  132.0260 O.2   372  ILE372     -0.2864
    213  CB        -3.3320    7.1820  129.9490 C.3   372  ILE372      0.0276
    214  CG1       -4.5150    7.3010  129.0230 C.3   372  ILE372      0.0022
    215  CG2       -2.1460    7.2310  129.0310 C.3   372  ILE372      0.0022
    216  CD1       -5.6810    8.0790  129.5670 C.3   372  ILE372      0.0001
    217  N         -7.2000    7.6510  133.9090 N.3   374  GLY374     -0.1225
    218  CA        -8.3300    8.4210  133.4250 C.3   374  GLY374      0.1811
    219  C         -8.6860    9.5850  134.3240 C.2   374  GLY374      0.2280
    220  O         -8.2020    9.6840  135.4460 O.2   374  GLY374     -0.2866
@<TRIPOS>BOND
     1    12    11    2
     2    11    10    1
     3    13    10    1
     4    13    14    1
     5    10     9    1
     6    14    16   ar
     7    14    15   ar
     8    16    18   ar
     9    15    17   ar
    10     9     3   am
    11   149   148    2
    12    18    19   ar
    13    21    22    1
    14    17    19   ar
    15   148   147    1
    16    19    20    1
    17     3     4    2
    18     3     2    1
    19    22    25    1
    20    22    23    1
    21   144   143    2
    22    25    26    1
    23     1     2    1
    24    84    83    2
    25   147   150    1
    26   147   146    1
    27    83    82    1
    28   150   151    1
    29    87    89   ar
    30    87    86   ar
    31    82    81    1
    32    82    85    1
    33    89    91   ar
    34     2     5    1
    35   143   142    1
    36   201   202    1
    37   145   142    1
    38    23    24    2
    39     6     5    1
    40     6     8    1
    41   142   141    1
    42   151   152    1
    43    85    86    1
    44     5     7    1
    45    86    88   ar
    46    91    92    1
    47    91    90   ar
    48   202   205    1
    49   202   203    1
    50   214   216    1
    51   214   213    1
    52   215   213    1
    53   205   206    1
    54    88    90   ar
    55   152   153    1
    56   141   134   am
    57   119   118    2
    58   203   209   am
    59   203   204    2
    60   135   134    2
    61   209   210    1
    62   213   210    1
    63   155   154    1
    64   121   122    1
    65   121   120    1
    66   122   123    1
    67   134   133    1
    68    79    78    1
    69   117   120    1
    70   117   118    1
    71   117   116    1
    72   115   114    2
    73   153   154    2
    74   118   125   am
    75   206   207   ar
    76   206   208   ar
    77   154   156    1
    78   210   211    1
    79   128   127    2
    80   116   114   am
    81    76    75    2
    82   114   113    1
    83   123   124    1
    84    27    28    1
    85   127   132   am
    86   127   126    1
    87    78    80    1
    88    78    77    1
    89   125   126    1
    90    75    74    1
    91   133   132    1
    92   133   136    1
    93   211   212    2
    94   126   129    1
    95    40    41    1
    96    40    39    1
    97    77    74    1
    98   113   112    1
    99    93    94    1
   100    41    35    1
   101   136   137    1
   102    28    29    1
   103    28    31    1
   104    74    73    1
   105    35    29   am
   106    35    36    1
   107    39    36    1
   108   218   217    1
   109   218   219    1
   110    29    30    2
   111   129   130    1
   112   129   131    1
   113    94    97    1
   114    94    95    1
   115    98    97    1
   116    98    99    1
   117    73    67   am
   118    31    32    1
   119    36    37    1
   120   137   138    1
   121   139   138   ar
   122    96    95    2
   123    71    70   ar
   124   219   220    2
   125    95   102   am
   126   101    99   ar
   127   138   140   ar
   128    32    33    2
   129    32    34   am
   130    99   100   ar
   131    63    62    1
   132    67    68    2
   133    67    66    1
   134    57    56    2
   135    70    72   ar
   136    70    69    1
   137    37    42   am
   138    37    38    2
   139   110   111    2
   140   110   109    1
   141   200   199    1
   142   102   103    1
   143    66    69    1
   144    66    65    1
   145    42    43    1
   146   199   196    1
   147    62    64    1
   148    62    61    2
   149    59    60    1
   150    59    58    1
   151    56    65   am
   152    56    55    1
   153    60    61    1
   154   108   109    1
   155   108   104   am
   156   103   104    1
   157   103   106    1
   158   104   105    2
   159    54    55    1
   160    54    44   am
   161    43    44    1
   162    43    46    1
   163    55    58    1
   164   196   197    1
   165   196   195    1
   166    49    51   ar
   167    49    47   ar
   168    51    52   ar
   169   198   197    2
   170    44    45    2
   171   106   107    1
   172   164   162   am
   173   195   191   am
   174    46    47    1
   175   163   162    2
   176    47    48   ar
   177    52    53    1
   178    52    50   ar
   179   172   170   am
   180   188   186   am
   181    48    50   ar
   182   162   161    1
   183   184   183    2
   184   191   190    1
   185   191   192    2
   186   170   171    2
   187   170   169    1
   188   186   187    2
   189   186   185    1
   190   190   189    1
   191   190   193    1
   192   194   193    1
   193   161   158    1
   194   169   166    1
   195   183   189   am
   196   183   182    1
   197   185   182    1
   198   157   158    1
   199   158   159    1
   200   182   181    1
   201   166   165    1
   202   166   167    1
   203   181   175   am
   204   159   160    2
   205   167   173   am
   206   167   168    2
   207   173   174    1
   208   175   174    1
   209   175   176    2
   210   174   177    1
   211   177   178    1
   212   178   180   ar
   213   178   179   ar
