@<TRIPOS>MOLECULE
tmp/4byiA00.pdb
 157 149 0 0 0
SMALL
GASTEIGER

@<TRIPOS>ATOM
      1  N         -6.9660  -27.9060   -4.2070 N.3    12  ARG12      -0.1245
      2  CA        -6.1950  -27.9410   -2.9690 C.3    12  ARG12       0.1563
      3  C         -4.7560  -27.4790   -3.1720 C.2    12  ARG12       0.2260
      4  O         -4.1760  -27.6750   -4.2410 O.2    12  ARG12      -0.2867
      5  CB        -6.2190  -29.3450   -2.3530 C.3    12  ARG12       0.0307
      6  CG        -5.0700  -30.2540   -2.7650 C.3    12  ARG12       0.0489
      7  CD        -5.1620  -31.5980   -2.0630 C.3    12  ARG12       0.2205
      8  NE        -3.9180  -31.9760   -1.3980 N.pl3  12  ARG12      -0.0865
      9  CZ        -2.9760  -32.7400   -1.9420 C.cat  12  ARG12       0.5346
     10  NH1       -3.1260  -33.2130   -3.1710 N.pl3  12  ARG12       0.1354
     11  NH2       -1.8800  -33.0320   -1.2540 N.pl3  12  ARG12       0.1354
     12  N         -0.7860  -27.7180   -2.7830 N.3    14  LEU14      -0.1231
     13  CA         0.1220  -28.8570   -2.7810 C.3    14  LEU14       0.1693
     14  C          1.3880  -28.5360   -1.9930 C.2    14  LEU14       0.2592
     15  O          2.0910  -29.4360   -1.5300 O.2    14  LEU14      -0.2718
     16  CB         0.4750  -29.2530   -4.2150 C.3    14  LEU14       0.0284
     17  CG        -0.7050  -29.5200   -5.1490 C.3    14  LEU14       0.0019
     18  CD1       -0.2340  -29.7850   -6.5720 C.3    14  LEU14       0.0001
     19  CD2       -1.5230  -30.6860   -4.6320 C.3    14  LEU14       0.0001
     20  N          1.6690  -27.2450   -1.8440 N.am   15  GLY15      -0.1957
     21  CA         2.8390  -26.7950   -1.1130 C.3    15  GLY15       0.1869
     22  C          2.8150  -25.3000   -0.8670 C.2    15  GLY15       0.2309
     23  O          2.4210  -24.5230   -1.7390 O.2    15  GLY15      -0.2863
     24  N          1.7620  -23.4450   -4.3960 N.3    22  VAL22      -0.1245
     25  CA         1.3910  -24.1620   -5.6080 C.3    22  VAL22       0.1561
     26  C          0.1200  -24.9680   -5.3580 C.2    22  VAL22       0.2260
     27  O          0.0060  -25.6770   -4.3570 O.2    22  VAL22      -0.2867
     28  CB         2.5510  -25.0490   -6.1160 C.3    22  VAL22       0.0252
     29  CG1        3.5850  -25.2340   -5.0240 C.3    22  VAL22       0.0019
     30  CG2        2.0440  -26.3870   -6.6420 C.3    22  VAL22       0.0019
     31  N         -0.5530  -28.3870  -12.1840 N.3    35  ALA35      -0.1245
     32  CA        -0.1580  -27.6870  -10.9690 C.3    35  ALA35       0.1562
     33  C          0.1290  -26.2300  -11.2950 C.2    35  ALA35       0.2260
     34  O          0.8110  -25.9270  -12.2750 O.2    35  ALA35      -0.2867
     35  CB         1.0550  -28.3340  -10.3560 C.3    35  ALA35       0.0290
     36  N          1.7970  -22.7830  -10.0130 N.3    37  LYS37      -0.1245
     37  CA         2.6950  -22.1280   -9.0690 C.3    37  LYS37       0.1561
     38  C          2.4200  -20.6300   -9.0560 C.2    37  LYS37       0.2260
     39  O          2.5520  -19.9580  -10.0790 O.2    37  LYS37      -0.2867
     40  CB         4.1540  -22.3980   -9.4420 C.3    37  LYS37       0.0271
     41  CG         5.1560  -22.1380   -8.3220 C.3    37  LYS37       0.0035
     42  CD         6.5550  -22.6020   -8.7150 C.3    37  LYS37       0.0206
     43  CE         7.5590  -22.3530   -7.5980 C.3    37  LYS37       0.1093
     44  NZ         7.2330  -23.1180   -6.3630 N.3    37  LYS37      -0.1314
     45  N          9.9710  -32.8000  -14.6940 N.3    69  LEU69      -0.1245
     46  CA         8.6630  -32.1560  -14.6240 C.3    69  LEU69       0.1561
     47  C          8.5510  -31.1360  -15.7470 C.2    69  LEU69       0.2260
     48  O          9.4800  -30.3640  -15.9890 O.2    69  LEU69      -0.2867
     49  CB         8.4420  -31.4750  -13.2720 C.3    69  LEU69       0.0270
     50  CG         6.9710  -31.1720  -12.9760 C.3    69  LEU69       0.0019
     51  CD1        6.2070  -32.4690  -12.7850 C.3    69  LEU69       0.0001
     52  CD2        6.7970  -30.2700  -11.7660 C.3    69  LEU69       0.0001
     53  N          2.4080  -25.8730  -14.3570 N.3    85  LEU85      -0.1231
     54  CA         3.2980  -27.0290  -14.3600 C.3    85  LEU85       0.1693
     55  C          2.5580  -28.3490  -14.4940 C.2    85  LEU85       0.2592
     56  O          1.3650  -28.4400  -14.1990 O.2    85  LEU85      -0.2718
     57  CB         4.1350  -27.0610  -13.0820 C.3    85  LEU85       0.0284
     58  CG         5.0560  -25.8690  -12.8420 C.3    85  LEU85       0.0019
     59  CD1        4.7170  -25.2220  -11.5190 C.3    85  LEU85       0.0001
     60  CD2        6.5100  -26.3020  -12.8670 C.3    85  LEU85       0.0001
     61  N          3.2810  -29.3680  -14.9450 N.am   86  GLU86      -0.1966
     62  CA         2.7810  -30.7320  -14.9230 C.3    86  GLU86       0.1733
     63  C          2.4920  -31.1140  -13.4800 C.2    86  GLU86       0.2616
     64  O          3.2390  -30.7480  -12.5720 O.2    86  GLU86      -0.2715
     65  CB         3.8190  -31.6880  -15.5110 C.3    86  GLU86       0.0429
     66  CG         3.4590  -33.1570  -15.3640 C.3    86  GLU86       0.1163
     67  CD         4.5780  -34.0810  -15.7930 C.2    86  GLU86       0.3649
     68  OE1        5.6120  -33.5840  -16.2870 O.co2  86  GLU86      -0.2457
     69  OE2        4.4200  -35.3080  -15.6340 O.co2  86  GLU86      -0.2457
     70  N          1.4010  -31.8400  -13.2720 N.am   87  TYR87      -0.1960
     71  CA         1.0170  -32.2870  -11.9430 C.3    87  TYR87       0.1771
     72  C          1.5030  -33.7110  -11.6910 C.2    87  TYR87       0.2619
     73  O          1.1700  -34.6300  -12.4380 O.2    87  TYR87      -0.2715
     74  CB        -0.5020  -32.1980  -11.7890 C.3    87  TYR87       0.0574
     75  CG        -1.0720  -33.0400  -10.6760 C.ar   87  TYR87      -0.0198
     76  CD1       -0.9030  -32.6790   -9.3470 C.ar   87  TYR87      -0.0009
     77  CD2       -1.7870  -34.1960  -10.9550 C.ar   87  TYR87      -0.0009
     78  CE1       -1.4280  -33.4470   -8.3290 C.ar   87  TYR87       0.0417
     79  CE2       -2.3160  -34.9680   -9.9440 C.ar   87  TYR87       0.0417
     80  CZ        -2.1320  -34.5900   -8.6330 C.ar   87  TYR87       0.1957
     81  OH        -2.6580  -35.3590   -7.6210 O.3    87  TYR87      -0.2866
     82  N          2.3000  -33.8830  -10.6400 N.am   88  ALA88      -0.1964
     83  CA         2.7850  -35.2030  -10.2470 C.3    88  ALA88       0.1713
     84  C          1.8550  -35.8110   -9.2030 C.2    88  ALA88       0.2458
     85  O          1.8120  -35.3470   -8.0640 O.2    88  ALA88      -0.2730
     86  CB         4.1920  -35.1060   -9.7070 C.3    88  ALA88       0.0333
     87  N          1.1200  -36.8640   -9.5890 N.am   89  PRO89      -0.2716
     88  CA         0.0280  -37.4500   -8.8000 C.3    89  PRO89       0.1536
     89  C          0.4520  -38.1600   -7.5140 C.2    89  PRO89       0.2598
     90  O         -0.3650  -38.2600   -6.6000 O.2    89  PRO89      -0.2715
     91  CB        -0.5900  -38.4760   -9.7630 C.3    89  PRO89       0.0310
     92  CG        -0.1090  -38.0880  -11.1200 C.3    89  PRO89       0.0237
     93  CD         1.2510  -37.5140  -10.9040 C.3    89  PRO89       0.0939
     94  N          1.6850  -38.6520   -7.4430 N.am   90  LEU90      -0.1964
     95  CA         2.0940  -39.4710   -6.3010 C.3    90  LEU90       0.1728
     96  C          2.9410  -38.7190   -5.2720 C.2    90  LEU90       0.2617
     97  O          3.5020  -39.3240   -4.3560 O.2    90  LEU90      -0.2715
     98  CB         2.8010  -40.7470   -6.7680 C.3    90  LEU90       0.0311
     99  CG         1.9140  -41.9900   -6.9020 C.3    90  LEU90       0.0022
    100  CD1        0.7240  -41.7300   -7.8140 C.3    90  LEU90       0.0001
    101  CD2        2.7110  -43.1870   -7.3990 C.3    90  LEU90       0.0001
    102  N          3.0220  -37.4000   -5.4210 N.am   91  GLY91      -0.1940
    103  CA         3.6840  -36.5640   -4.4350 C.3    91  GLY91       0.2014
    104  C          5.1970  -36.5210   -4.5330 C.2    91  GLY91       0.2639
    105  O          5.7690  -36.7150   -5.6060 O.2    91  GLY91      -0.2714
    106  N          5.8440  -36.2660   -3.3990 N.am   92  THR92      -0.1950
    107  CA         7.2930  -36.1070   -3.3500 C.3    92  THR92       0.1897
    108  C          7.9940  -37.3580   -2.8350 C.2    92  THR92       0.2313
    109  O          7.4070  -38.1500   -2.0960 O.2    92  THR92      -0.2863
    110  CB         7.6920  -34.9320   -2.4380 C.3    92  THR92       0.1794
    111  OG1        7.5960  -35.3360   -1.0670 O.3    92  THR92      -0.2208
    112  CG2        6.7870  -33.7380   -2.6710 C.3    92  THR92       0.0378
    113  N         10.3340  -36.9330   -0.8810 N.3    94  TYR94      -0.1227
    114  CA        10.5090  -36.4580    0.4890 C.3    94  TYR94       0.1736
    115  C          9.4800  -37.0510    1.4490 C.2    94  TYR94       0.2595
    116  O          9.8450  -37.5760    2.4990 O.2    94  TYR94      -0.2718
    117  CB        10.4600  -34.9260    0.5480 C.3    94  TYR94       0.0548
    118  CG        10.5460  -34.3730    1.9550 C.ar   94  TYR94      -0.0200
    119  CD1       11.7730  -34.2200    2.5870 C.ar   94  TYR94      -0.0009
    120  CD2        9.4010  -34.0070    2.6510 C.ar   94  TYR94      -0.0009
    121  CE1       11.8560  -33.7210    3.8730 C.ar   94  TYR94       0.0417
    122  CE2        9.4760  -33.5070    3.9380 C.ar   94  TYR94       0.0417
    123  CZ        10.7060  -33.3660    4.5420 C.ar   94  TYR94       0.1957
    124  OH        10.7880  -32.8680    5.8210 O.3    94  TYR94      -0.2866
    125  N          8.1990  -36.9620    1.0980 N.am   95  ARG95      -0.1980
    126  CA         7.1510  -37.5180    1.9520 C.3    95  ARG95       0.1597
    127  C          7.2080  -39.0430    1.9420 C.2    95  ARG95       0.2287
    128  O          6.9560  -39.6860    2.9610 O.2    95  ARG95      -0.2864
    129  CB         5.7620  -37.0230    1.5340 C.3    95  ARG95       0.0334
    130  CG         4.6510  -37.4160    2.5090 C.3    95  ARG95       0.0492
    131  CD         3.2930  -36.8270    2.1260 C.3    95  ARG95       0.2205
    132  NE         2.2060  -37.4370    2.8910 N.pl3  95  ARG95      -0.0865
    133  CZ         1.4830  -36.8140    3.8190 C.cat  95  ARG95       0.5346
    134  NH1        1.7090  -35.5400    4.1070 N.pl3  95  ARG95       0.1354
    135  NH2        0.5220  -37.4710    4.4550 N.pl3  95  ARG95       0.1354
    136  N         12.8880  -33.0780   -1.8240 N.3   135  GLU135     -0.1245
    137  CA        11.6920  -32.2410   -1.9330 C.3   135  GLU135      0.1567
    138  C         11.5080  -31.6480   -3.3330 C.2   135  GLU135      0.2260
    139  O         10.4710  -31.0540   -3.6310 O.2   135  GLU135     -0.2867
    140  CB        11.6720  -31.1380   -0.8660 C.3   135  GLU135      0.0388
    141  CG        13.0150  -30.4880   -0.5800 C.3   135  GLU135      0.1160
    142  CD        13.7330  -31.1190    0.6010 C.2   135  GLU135      0.3649
    143  OE1       14.3330  -32.2000    0.4290 O.co2 135  GLU135     -0.2457
    144  OE2       13.7020  -30.5300    1.7020 O.co2 135  GLU135     -0.2457
    145  N          9.6660  -35.4200   -7.5710 N.3   138  LEU138     -0.1245
    146  CA         8.2450  -35.7440   -7.5770 C.3   138  LEU138      0.1561
    147  C          7.9960  -37.0940   -8.2410 C.2   138  LEU138      0.2260
    148  O          8.8760  -37.6370   -8.9090 O.2   138  LEU138     -0.2867
    149  CB         7.4540  -34.6360   -8.2720 C.3   138  LEU138      0.0270
    150  CG         7.3580  -33.3320   -7.4770 C.3   138  LEU138      0.0019
    151  CD1        6.7180  -32.2300   -8.2970 C.3   138  LEU138      0.0001
    152  CD2        6.5610  -33.5590   -6.2120 C.3   138  LEU138      0.0001
    153  N         11.9850  -31.5430  -10.5460 N.3   148  ALA148     -0.1245
    154  CA        10.9030  -30.5510  -10.5530 C.3   148  ALA148      0.1562
    155  C         11.1560  -29.1170  -10.0530 C.2   148  ALA148      0.2260
    156  O         10.2050  -28.4280   -9.6870 O.2   148  ALA148     -0.2867
    157  CB         9.7000  -31.1290   -9.8370 C.3   148  ALA148      0.0290
@<TRIPOS>BOND
     1    68    67   ar
     2    48    47    2
     3    67    69   ar
     4    67    66    1
     5    47    46    1
     6    65    66    1
     7    65    62    1
     8    61    62    1
     9    61    55   am
    10    62    63    1
    11    45    46    1
    12    46    49    1
    13    55    54    1
    14    55    56    2
    15    54    53    1
    16    54    57    1
    17    63    70   am
    18    63    64    2
    19    49    50    1
    20    70    71    1
    21    57    58    1
    22    50    51    1
    23    50    52    1
    24    60    58    1
    25    58    59    1
    26    73    72    2
    27    34    33    2
    28    31    32    1
    29    71    74    1
    30    71    72    1
    31    74    75    1
    32    72    82   am
    33    33    32    1
    34    92    93    1
    35    92    91    1
    36    32    35    1
    37    77    75   ar
    38    77    79   ar
    39    93    87    1
    40    75    76   ar
    41    82    83    1
    42   154   153    1
    43   154   155    1
    44   154   157    1
    45    83    86    1
    46    83    84    1
    47    39    38    2
    48   155   156    2
    49    36    37    1
    50    79    80   ar
    51    91    88    1
    52    87    84   am
    53    87    88    1
    54    40    37    1
    55    40    41    1
    56    76    78   ar
    57    84    85    2
    58    37    38    1
    59   148   147    2
    60    88    89    1
    61    42    41    1
    62    42    43    1
    63    80    78   ar
    64    80    81    1
    65   151   150    1
    66   149   146    1
    67   149   150    1
    68   147   146    1
    69   100    99    1
    70    43    44    1
    71   146   145    1
    72    89    94   am
    73    89    90    2
    74   150   152    1
    75    94    95    1
    76   101    99    1
    77    99    98    1
    78    98    95    1
    79    30    28    1
    80    18    17    1
    81    95    96    1
    82    28    25    1
    83    28    29    1
    84    25    26    1
    85    25    24    1
    86   105   104    2
    87   102    96   am
    88   102   103    1
    89    26    27    2
    90    96    97    2
    91    17    19    1
    92    17    16    1
    93   104   103    1
    94   104   106   am
    95     4     3    2
    96    16    13    1
    97     1     2    1
    98   139   138    2
    99   106   107    1
   100   107   108    1
   101   107   110    1
   102   138   137    1
   103     3     2    1
   104    10     9    1
   105     2     5    1
   106   108   109    2
   107    12    13    1
   108    13    14    1
   109     6     5    1
   110     6     7    1
   111   112   110    1
   112   110   111    1
   113     7     8    1
   114    14    20   am
   115    14    15    2
   116     9     8    2
   117     9    11    1
   118   137   136    1
   119   137   140    1
   120    20    21    1
   121    23    22    2
   122    21    22    1
   123   113   114    1
   124   140   141    1
   125   141   142    1
   126   143   142   ar
   127   114   117    1
   128   114   115    1
   129   117   118    1
   130   142   144   ar
   131   125   115   am
   132   125   126    1
   133   115   116    2
   134   129   126    1
   135   129   130    1
   136   127   126    1
   137   127   128    2
   138   118   119   ar
   139   118   120   ar
   140   131   130    1
   141   131   132    1
   142   119   121   ar
   143   120   122   ar
   144   132   133    2
   145   133   134    1
   146   133   135    1
   147   121   123   ar
   148   122   123   ar
   149   123   124    1
