@<TRIPOS>MOLECULE
tmp/4byjA00.pdb
 195 184 0 0 0
SMALL
GASTEIGER

@<TRIPOS>ATOM
      1  N         -8.5010  -27.4970   -3.8500 N.3    12  ARG12      -0.1245
      2  CA        -7.7930  -27.5710   -2.5770 C.3    12  ARG12       0.1563
      3  C         -6.3640  -27.0800   -2.7110 C.2    12  ARG12       0.2260
      4  O         -5.8150  -27.0480   -3.8090 O.2    12  ARG12      -0.2867
      5  CB        -7.7780  -29.0070   -2.0450 C.3    12  ARG12       0.0307
      6  CG        -6.9060  -29.9770   -2.8430 C.3    12  ARG12       0.0489
      7  CD        -6.8360  -31.3360   -2.1770 C.3    12  ARG12       0.2205
      8  NE        -5.5160  -31.6480   -1.6230 N.pl3  12  ARG12      -0.0865
      9  CZ        -4.7090  -32.6010   -2.0770 C.cat  12  ARG12       0.5346
     10  NH1       -5.0840  -33.3520   -3.0970 N.pl3  12  ARG12       0.1354
     11  NH2       -3.5320  -32.8020   -1.5040 N.pl3  12  ARG12       0.1354
     12  N         -2.3050  -27.3990   -2.3930 N.3    14  LEU14      -0.1231
     13  CA        -1.3810  -28.5170   -2.5780 C.3    14  LEU14       0.1693
     14  C         -0.0960  -28.3540   -1.7610 C.2    14  LEU14       0.2593
     15  O          0.5130  -29.3430   -1.3520 O.2    14  LEU14      -0.2718
     16  CB        -1.0660  -28.7110   -4.0660 C.3    14  LEU14       0.0284
     17  CG        -2.2460  -29.1950   -4.9180 C.3    14  LEU14       0.0019
     18  CD1       -1.9150  -29.1750   -6.4050 C.3    14  LEU14       0.0001
     19  CD2       -2.6770  -30.5900   -4.4880 C.3    14  LEU14       0.0001
     20  N          0.3050  -27.1080   -1.5200 N.am   15  GLY15      -0.1942
     21  CA         1.4820  -26.8280   -0.7160 C.3    15  GLY15       0.2014
     22  C          1.7160  -25.3490   -0.4650 C.2    15  GLY15       0.2639
     23  O          1.3050  -24.5070   -1.2640 O.2    15  GLY15      -0.2714
     24  N          2.3790  -25.0370    0.6480 N.am   16  LYS16      -0.1963
     25  CA         2.7040  -23.6560    1.0000 C.3    16  LYS16       0.1728
     26  C          3.9090  -23.1560    0.2030 C.2    16  LYS16       0.2617
     27  O          3.8130  -22.1740   -0.5310 O.2    16  LYS16      -0.2715
     28  CB         2.9720  -23.5290    2.5010 C.3    16  LYS16       0.0311
     29  CG         3.4920  -22.1970    3.0120 C.3    16  LYS16       0.0038
     30  CD         2.3650  -21.1940    3.1010 C.3    16  LYS16       0.0206
     31  CE         2.8220  -20.0140    3.9410 C.3    16  LYS16       0.1093
     32  NZ         3.6560  -19.1080    3.1780 N.3    16  LYS16      -0.1314
     33  N          5.0460  -23.8270    0.3680 N.am   17  GLY17      -0.1940
     34  CA         6.1920  -23.6250   -0.5010 C.3    17  GLY17       0.2014
     35  C          7.1020  -22.4360   -0.2460 C.2    17  GLY17       0.2638
     36  O          7.8110  -22.3900    0.7580 O.2    17  GLY17      -0.2714
     37  N          7.0970  -21.4810   -1.1740 N.am   18  LYS18      -0.1977
     38  CA         8.0490  -20.3720   -1.1410 C.3    18  LYS18       0.1596
     39  C          7.3810  -19.0030   -1.0300 C.2    18  LYS18       0.2287
     40  O          7.1430  -18.5070    0.0710 O.2    18  LYS18      -0.2864
     41  CB         8.9480  -20.4120   -2.3790 C.3    18  LYS18       0.0298
     42  CG         9.7960  -21.6470   -2.4780 C.3    18  LYS18       0.0038
     43  CD        10.6950  -21.6330   -3.6990 C.3    18  LYS18       0.0206
     44  CE        10.1950  -22.5360   -4.8050 C.3    18  LYS18       0.1093
     45  NZ        10.1690  -23.9510   -4.4140 N.3    18  LYS18      -0.1314
     46  N          4.3430  -18.2090   -2.0340 N.3    20  GLY20      -0.1225
     47  CA         2.9310  -18.4120   -2.3000 C.3    20  GLY20       0.1811
     48  C          2.5520  -19.8680   -2.4890 C.2    20  GLY20       0.2280
     49  O          3.3940  -20.7060   -2.8160 O.2    20  GLY20      -0.2866
     50  N          0.2040  -23.3680   -3.7980 N.3    22  VAL22      -0.1245
     51  CA        -0.1600  -24.0010   -5.0600 C.3    22  VAL22       0.1561
     52  C         -1.5260  -24.6580   -4.9240 C.2    22  VAL22       0.2260
     53  O         -1.7540  -25.4570   -4.0130 O.2    22  VAL22      -0.2867
     54  CB         0.8840  -25.0430   -5.4970 C.3    22  VAL22       0.0252
     55  CG1        0.4010  -25.8000   -6.7280 C.3    22  VAL22       0.0019
     56  CG2        2.2090  -24.3670   -5.7790 C.3    22  VAL22       0.0019
     57  N         -2.1260  -27.8810  -11.8900 N.3    35  ALA35      -0.1245
     58  CA        -1.7120  -27.2340  -10.6490 C.3    35  ALA35       0.1562
     59  C         -1.4440  -25.7610  -10.9190 C.2    35  ALA35       0.2260
     60  O         -0.7370  -25.4220  -11.8690 O.2    35  ALA35      -0.2867
     61  CB        -0.4790  -27.8920  -10.0950 C.3    35  ALA35       0.0290
     62  N          0.2710  -22.4450   -9.5420 N.3    37  LYS37      -0.1245
     63  CA         1.2260  -21.8850   -8.5900 C.3    37  LYS37       0.1561
     64  C          1.0940  -20.3650   -8.5100 C.2    37  LYS37       0.2260
     65  O          1.1990  -19.6680   -9.5220 O.2    37  LYS37      -0.2867
     66  CB         2.6490  -22.2690   -8.9980 C.3    37  LYS37       0.0271
     67  CG         3.7290  -21.9010   -7.9970 C.3    37  LYS37       0.0035
     68  CD         5.0310  -22.5900   -8.3670 C.3    37  LYS37       0.0206
     69  CE         6.0000  -22.6050   -7.2030 C.3    37  LYS37       0.1093
     70  NZ         7.1130  -23.5690   -7.4300 N.3    37  LYS37      -0.1314
     71  N          2.3910  -16.6950   -6.9250 N.3    39  LEU39      -0.1245
     72  CA         3.5400  -16.0060   -6.3400 C.3    39  LEU39       0.1561
     73  C          3.3130  -14.4950   -6.3430 C.2    39  LEU39       0.2260
     74  O          2.9030  -13.9330   -7.3560 O.2    39  LEU39      -0.2867
     75  CB         4.8200  -16.3570   -7.1070 C.3    39  LEU39       0.0270
     76  CG         5.2160  -17.8370   -7.1570 C.3    39  LEU39       0.0019
     77  CD1        5.8640  -18.1830   -8.4880 C.3    39  LEU39       0.0001
     78  CD2        6.1510  -18.1860   -6.0130 C.3    39  LEU39       0.0001
     79  N          8.0270  -32.1070  -14.7200 N.3    69  LEU69      -0.1245
     80  CA         6.6790  -31.5430  -14.6360 C.3    69  LEU69       0.1561
     81  C          6.4730  -30.4960  -15.7270 C.2    69  LEU69       0.2260
     82  O          7.1970  -29.4990  -15.7940 O.2    69  LEU69      -0.2867
     83  CB         6.4270  -30.9180  -13.2630 C.3    69  LEU69       0.0270
     84  CG         4.9570  -30.8250  -12.8520 C.3    69  LEU69       0.0019
     85  CD1        4.3990  -32.2190  -12.6120 C.3    69  LEU69       0.0001
     86  CD2        4.7710  -29.9480  -11.6180 C.3    69  LEU69       0.0001
     87  N          0.7690  -25.4520  -14.1790 N.3    85  LEU85      -0.1231
     88  CA         1.6510  -26.6130  -14.1930 C.3    85  LEU85       0.1693
     89  C          0.9060  -27.9340  -14.3310 C.2    85  LEU85       0.2592
     90  O         -0.2990  -28.0160  -14.0780 O.2    85  LEU85      -0.2718
     91  CB         2.5000  -26.6300  -12.9200 C.3    85  LEU85       0.0284
     92  CG         3.4340  -25.4310  -12.7500 C.3    85  LEU85       0.0019
     93  CD1        3.8920  -25.2900  -11.3100 C.3    85  LEU85       0.0001
     94  CD2        4.6250  -25.5940  -13.6620 C.3    85  LEU85       0.0001
     95  N          1.6340  -28.9670  -14.7420 N.am   86  GLU86      -0.1966
     96  CA         1.0950  -30.3210  -14.7710 C.3    86  GLU86       0.1733
     97  C          0.7590  -30.7760  -13.3520 C.2    86  GLU86       0.2616
     98  O          1.5680  -30.6250  -12.4320 O.2    86  GLU86      -0.2715
     99  CB         2.1060  -31.2870  -15.3930 C.3    86  GLU86       0.0429
    100  CG         1.7480  -32.7500  -15.2000 C.3    86  GLU86       0.1163
    101  CD         2.6680  -33.6940  -15.9510 C.2    86  GLU86       0.3649
    102  OE1        3.8040  -33.2920  -16.2890 O.co2  86  GLU86      -0.2457
    103  OE2        2.2520  -34.8460  -16.1950 O.co2  86  GLU86      -0.2457
    104  N         -0.4400  -31.3210  -13.1720 N.am   87  TYR87      -0.1960
    105  CA        -0.8420  -31.8590  -11.8770 C.3    87  TYR87       0.1771
    106  C         -0.3820  -33.3040  -11.7010 C.2    87  TYR87       0.2619
    107  O         -0.7870  -34.1920  -12.4550 O.2    87  TYR87      -0.2715
    108  CB        -2.3590  -31.7700  -11.7050 C.3    87  TYR87       0.0574
    109  CG        -2.8950  -32.6000  -10.5640 C.ar   87  TYR87      -0.0198
    110  CD1       -2.5060  -32.3540   -9.2570 C.ar   87  TYR87      -0.0009
    111  CD2       -3.8050  -33.6220  -10.7940 C.ar   87  TYR87      -0.0009
    112  CE1       -3.0010  -33.1110   -8.2110 C.ar   87  TYR87       0.0417
    113  CE2       -4.3070  -34.3820   -9.7530 C.ar   87  TYR87       0.0417
    114  CZ        -3.9020  -34.1220   -8.4640 C.ar   87  TYR87       0.1957
    115  OH        -4.3980  -34.8740   -7.4230 O.3    87  TYR87      -0.2866
    116  N          0.4620  -33.5280  -10.6970 N.am   88  ALA88      -0.1964
    117  CA         0.9120  -34.8710  -10.3430 C.3    88  ALA88       0.1713
    118  C          0.0520  -35.4350   -9.2120 C.2    88  ALA88       0.2458
    119  O          0.1600  -34.9940   -8.0650 O.2    88  ALA88      -0.2730
    120  CB         2.3690  -34.8490   -9.9370 C.3    88  ALA88       0.0333
    121  N         -0.7950  -36.4250   -9.5380 N.am   89  PRO89      -0.2716
    122  CA        -1.8390  -36.9650   -8.6540 C.3    89  PRO89       0.1536
    123  C         -1.3570  -37.7380   -7.4270 C.2    89  PRO89       0.2598
    124  O         -2.1350  -37.8770   -6.4820 O.2    89  PRO89      -0.2715
    125  CB        -2.6120  -37.9250   -9.5720 C.3    89  PRO89       0.0310
    126  CG        -2.2620  -37.5150  -10.9620 C.3    89  PRO89       0.0237
    127  CD        -0.8520  -37.0280  -10.8820 C.3    89  PRO89       0.0939
    128  N         -0.1300  -38.2510   -7.4400 N.am   90  LEU90      -0.1964
    129  CA         0.3190  -39.1200   -6.3510 C.3    90  LEU90       0.1728
    130  C          1.1970  -38.4190   -5.3130 C.2    90  LEU90       0.2617
    131  O          1.6900  -39.0540   -4.3800 O.2    90  LEU90      -0.2715
    132  CB         1.0120  -40.3720   -6.8960 C.3    90  LEU90       0.0311
    133  CG         0.1210  -41.2760   -7.7500 C.3    90  LEU90       0.0022
    134  CD1        0.7650  -42.6360   -7.9770 C.3    90  LEU90       0.0001
    135  CD2       -1.2430  -41.4310   -7.1030 C.3    90  LEU90       0.0001
    136  N          1.3850  -37.1130   -5.4740 N.am   91  GLY91      -0.1940
    137  CA         2.0800  -36.3190   -4.4750 C.3    91  GLY91       0.2014
    138  C          3.5930  -36.2960   -4.6050 C.2    91  GLY91       0.2639
    139  O          4.1430  -36.6220   -5.6580 O.2    91  GLY91      -0.2714
    140  N          4.2650  -35.9060   -3.5240 N.am   92  THR92      -0.1950
    141  CA         5.7220  -35.8090   -3.5130 C.3    92  THR92       0.1897
    142  C          6.3830  -37.1280   -3.1160 C.2    92  THR92       0.2313
    143  O          5.7510  -37.9880   -2.4960 O.2    92  THR92      -0.2863
    144  CB         6.2070  -34.6890   -2.5680 C.3    92  THR92       0.1794
    145  OG1        6.0880  -35.1180   -1.2060 O.3    92  THR92      -0.2208
    146  CG2        5.3910  -33.4230   -2.7750 C.3    92  THR92       0.0378
    147  N          6.9340  -37.2520    0.8520 N.3    95  ARG95      -0.1245
    148  CA         5.8280  -37.7540    1.6600 C.3    95  ARG95       0.1563
    149  C          5.7990  -39.2790    1.6360 C.2    95  ARG95       0.2260
    150  O          5.6120  -39.9210    2.6710 O.2    95  ARG95      -0.2867
    151  CB         4.4950  -37.1840    1.1630 C.3    95  ARG95       0.0307
    152  CG         3.2930  -37.5670    2.0150 C.3    95  ARG95       0.0489
    153  CD         3.3710  -36.9460    3.4010 C.3    95  ARG95       0.2205
    154  NE         2.2270  -37.2970    4.2410 N.pl3  95  ARG95      -0.0865
    155  CZ         2.3170  -37.9540    5.3930 C.cat  95  ARG95       0.5346
    156  NH1        3.5020  -38.3290    5.8510 N.pl3  95  ARG95       0.1354
    157  NH2        1.2240  -38.2300    6.0920 N.pl3  95  ARG95       0.1354
    158  N         11.1540  -32.9080   -1.8980 N.3   135  GLU135     -0.1231
    159  CA        10.0250  -31.9810   -1.8530 C.3   135  GLU135      0.1699
    160  C          9.6250  -31.4810   -3.2450 C.2   135  GLU135      0.2592
    161  O          8.4740  -31.1030   -3.4670 O.2   135  GLU135     -0.2718
    162  CB        10.3490  -30.7850   -0.9490 C.3   135  GLU135      0.0402
    163  CG        10.4610  -31.1030    0.5410 C.3   135  GLU135      0.1161
    164  CD        11.8760  -31.4460    0.9790 C.2   135  GLU135      0.3649
    165  OE1       12.5870  -32.1430    0.2260 O.co2 135  GLU135     -0.2457
    166  OE2       12.2800  -31.0190    2.0810 O.co2 135  GLU135     -0.2457
    167  N         10.5800  -31.4780   -4.1720 N.am  136  ASN136     -0.1974
    168  CA        10.3320  -31.0290   -5.5400 C.3   136  ASN136      0.1688
    169  C         10.2410  -32.1940   -6.5190 C.2   136  ASN136      0.2292
    170  O         10.1550  -31.9980   -7.7310 O.2   136  ASN136     -0.2864
    171  CB        11.4100  -30.0370   -5.9900 C.3   136  ASN136      0.1181
    172  CG        11.5010  -28.8240   -5.0830 C.2   136  ASN136      0.2629
    173  OD1       10.5680  -28.5190   -4.3380 O.2   136  ASN136     -0.2716
    174  ND2       12.6270  -28.1220   -5.1450 N.am  136  ASN136     -0.0877
    175  N          7.9330  -35.1470   -7.8050 N.3   138  LEU138     -0.1245
    176  CA         6.5140  -35.4900   -7.7940 C.3   138  LEU138      0.1561
    177  C          6.2330  -36.8100   -8.5070 C.2   138  LEU138      0.2260
    178  O          7.0810  -37.3280   -9.2330 O.2   138  LEU138     -0.2867
    179  CB         5.6880  -34.3620   -8.4120 C.3   138  LEU138      0.0270
    180  CG         5.2220  -33.2400   -7.4820 C.3   138  LEU138      0.0019
    181  CD1        6.3800  -32.4800   -6.8620 C.3   138  LEU138      0.0001
    182  CD2        4.3510  -32.2950   -8.2590 C.3   138  LEU138      0.0001
    183  N         10.0230  -30.9880  -10.5460 N.3   148  ALA148     -0.1231
    184  CA         9.3660  -29.6820  -10.5640 C.3   148  ALA148      0.1694
    185  C         10.3760  -28.5610  -10.3130 C.2   148  ALA148      0.2592
    186  O         11.4440  -28.7970   -9.7450 O.2   148  ALA148     -0.2718
    187  CB         8.2500  -29.6370   -9.5340 C.3   148  ALA148      0.0304
    188  N         10.0270  -27.3460  -10.7350 N.am  149  ASP149     -0.1974
    189  CA        10.9180  -26.1870  -10.6400 C.3   149  ASP149      0.1709
    190  C         12.2510  -26.4170  -11.3500 C.2   149  ASP149      0.2293
    191  O         13.2240  -26.8420  -10.7440 O.2   149  ASP149     -0.2864
    192  CB        11.1450  -25.7780   -9.1760 C.3   149  ASP149      0.1436
    193  CG         9.9560  -25.0500   -8.5800 C.2   149  ASP149      0.3671
    194  OD1        9.4340  -24.1250   -9.2360 O.co2 149  ASP149     -0.2456
    195  OD2        9.5410  -25.4100   -7.4600 O.co2 149  ASP149     -0.2456
@<TRIPOS>BOND
     1   102   101   ar
     2   103   101   ar
     3   101   100    1
     4    82    81    2
     5    81    80    1
     6    99   100    1
     7    99    96    1
     8    96    95    1
     9    96    97    1
    10    95    89   am
    11    79    80    1
    12    80    83    1
    13    89    88    1
    14    89    90    2
    15    88    87    1
    16    88    91    1
    17    94    92    1
    18    97   104   am
    19    97    98    2
    20    83    84    1
    21   104   105    1
    22    91    92    1
    23    84    85    1
    24    84    86    1
    25    92    93    1
    26   107   106    2
    27    57    58    1
    28   105   108    1
    29   105   106    1
    30    60    59    2
    31   108   109    1
    32   106   116   am
    33   190   191    2
    34   190   189    1
    35   126   127    1
    36   126   125    1
    37    59    58    1
    38   127   121    1
    39   111   109   ar
    40   111   113   ar
    41   188   189    1
    42   188   185   am
    43   116   117    1
    44    58    61    1
    45   189   192    1
    46   109   110   ar
    47   184   183    1
    48   184   185    1
    49   184   187    1
    50   117   120    1
    51   117   118    1
    52   185   186    2
    53   113   114   ar
    54   125   122    1
    55    62    63    1
    56   121   118   am
    57   121   122    1
    58    65    64    2
    59   110   112   ar
    60   194   193   ar
    61   178   177    2
    62   118   119    2
    63   192   193    1
    64    66    63    1
    65    66    67    1
    66   122   123    1
    67    63    64    1
    68   193   195   ar
    69   177   176    1
    70    77    76    1
    71   114   112   ar
    72   114   115    1
    73   179   176    1
    74   179   180    1
    75    68    67    1
    76    68    69    1
    77   182   180    1
    78   134   133    1
    79   175   176    1
    80   133   135    1
    81   133   132    1
    82   170   169    2
    83   180   181    1
    84   128   123   am
    85   128   129    1
    86    70    69    1
    87   123   124    2
    88    74    73    2
    89    76    75    1
    90    76    78    1
    91    75    72    1
    92    71    72    1
    93   132   129    1
    94    55    54    1
    95   169   168    1
    96    18    17    1
    97   129   130    1
    98    73    72    1
    99   171   168    1
   100   171   172    1
   101    56    54    1
   102   139   138    2
   103   168   167    1
   104    54    51    1
   105   136   130   am
   106   136   137    1
   107   130   131    2
   108   174   172   am
   109   172   173    2
   110    51    52    1
   111    51    50    1
   112    52    53    2
   113    17    19    1
   114    17    16    1
   115    44    45    1
   116    44    43    1
   117   138   137    1
   118   138   140   am
   119   167   160   am
   120    16    13    1
   121     1     2    1
   122     4     3    2
   123    43    42    1
   124   140   141    1
   125   141   142    1
   126   141   144    1
   127   161   160    2
   128   160   159    1
   129   142   143    2
   130    10     9    1
   131     6     7    1
   132     6     5    1
   133    49    48    2
   134   146   144    1
   135     3     2    1
   136    13    12    1
   137    13    14    1
   138     2     5    1
   139   144   145    1
   140    48    47    1
   141    42    41    1
   142    41    38    1
   143    47    46    1
   144     7     8    1
   145     9     8    2
   146     9    11    1
   147   158   159    1
   148   159   162    1
   149    14    20   am
   150    14    15    2
   151    20    21    1
   152    23    22    2
   153    37    38    1
   154    37    35   am
   155    38    39    1
   156    39    40    2
   157   162   163    1
   158    21    22    1
   159    27    26    2
   160    34    35    1
   161    34    33    1
   162    22    24   am
   163    35    36    2
   164    26    33   am
   165    26    25    1
   166   165   164   ar
   167   163   164    1
   168    24    25    1
   169   147   148    1
   170   164   166   ar
   171    25    28    1
   172   151   148    1
   173   151   152    1
   174   149   148    1
   175   149   150    2
   176   152   153    1
   177    28    29    1
   178    29    30    1
   179    30    31    1
   180    32    31    1
   181   153   154    1
   182   154   155    2
   183   155   156    1
   184   155   157    1
