@<TRIPOS>MOLECULE
tmp/4bz5A00.pdb
 119 117 0 0 0
SMALL
GASTEIGER

@<TRIPOS>ATOM
      1  N         52.4090   42.5510   85.0700 N.3    19  LYS19      -0.1231
      2  CA        51.6260   41.7020   85.9630 C.3    19  LYS19       0.1693
      3  C         52.4550   41.0640   87.0820 C.2    19  LYS19       0.2592
      4  O         52.0380   41.0530   88.2430 O.2    19  LYS19      -0.2718
      5  CB        50.8790   40.6090   85.1950 C.3    19  LYS19       0.0285
      6  CG        50.0610   39.7090   86.1150 C.3    19  LYS19       0.0035
      7  CD        49.5010   38.4940   85.3920 C.3    19  LYS19       0.0206
      8  CE        48.6130   37.6670   86.3210 C.3    19  LYS19       0.1093
      9  NZ        48.2800   36.3330   85.7310 N.3    19  LYS19      -0.1314
     10  N         53.6250   40.5320   86.7440 N.am   20  PHE20      -0.1976
     11  CA        54.3940   39.7810   87.7400 C.3    20  PHE20       0.1639
     12  C         55.5110   40.5880   88.3750 C.2    20  PHE20       0.2290
     13  O         56.1450   40.1370   89.3290 O.2    20  PHE20      -0.2864
     14  CB        54.8880   38.4440   87.1720 C.3    20  PHE20       0.0560
     15  CG        53.7840   37.4480   86.9750 C.ar   20  PHE20      -0.0200
     16  CD1       53.1600   36.8670   88.0660 C.ar   20  PHE20      -0.0042
     17  CD2       53.3430   37.1210   85.7060 C.ar   20  PHE20      -0.0042
     18  CE1       52.1270   35.9620   87.8910 C.ar   20  PHE20      -0.0003
     19  CE2       52.3120   36.2150   85.5280 C.ar   20  PHE20      -0.0003
     20  CZ        51.7020   35.6390   86.6270 C.ar   20  PHE20      -0.0000
     21  N         54.4020   28.8420   81.7230 N.3   139  TRP139     -0.1227
     22  CA        53.3370   29.6410   81.1080 C.3   139  TRP139      0.1737
     23  C         52.3690   28.8160   80.2560 C.2   139  TRP139      0.2595
     24  O         52.3410   28.8830   79.0220 O.2   139  TRP139     -0.2718
     25  CB        53.9450   30.8640   80.4170 C.3   139  TRP139      0.0564
     26  CG        54.8290   31.5940   81.4040 C.ar  139  TRP139      0.0003
     27  CD1       56.1840   31.7720   81.3230 C.ar  139  TRP139      0.0946
     28  CD2       54.4250   32.1760   82.6530 C.ar  139  TRP139      0.0152
     29  NE1       56.6400   32.4490   82.4290 N.ar  139  TRP139     -0.2442
     30  CE2       55.5820   32.7120   83.2590 C.ar  139  TRP139      0.0810
     31  CE3       53.1940   32.3130   83.3070 C.ar  139  TRP139      0.0012
     32  CZ2       55.5480   33.3690   84.4960 C.ar  139  TRP139      0.0191
     33  CZ3       53.1570   32.9650   84.5320 C.ar  139  TRP139      0.0001
     34  CH2       54.3300   33.4870   85.1140 C.ar  139  TRP139      0.0015
     35  N         51.5360   28.0620   80.9690 N.am  140  HIS140     -0.1961
     36  CA        50.7900   26.9550   80.3920 C.3   140  HIS140      0.1787
     37  C         49.6310   27.3110   79.4600 C.2   140  HIS140      0.2620
     38  O         49.1740   26.4460   78.7190 O.2   140  HIS140     -0.2715
     39  CB        50.3160   26.0010   81.4990 C.3   140  HIS140      0.0785
     40  CG        49.5090   26.6570   82.5800 C.ar  140  HIS140      0.0821
     41  ND1       48.7970   25.9290   83.5110 N.ar  140  HIS140     -0.2267
     42  CD2       49.3100   27.9640   82.8870 C.ar  140  HIS140      0.1154
     43  CE1       48.1900   26.7580   84.3460 C.ar  140  HIS140      0.1986
     44  NE2       48.4880   27.9960   83.9940 N.ar  140  HIS140     -0.2212
     45  N         49.1650   28.5590   79.4900 N.am  141  HIS141     -0.1973
     46  CA        47.9910   28.9500   78.6900 C.3   141  HIS141      0.1656
     47  C         48.2990   29.3890   77.2500 C.2   141  HIS141      0.2291
     48  O         47.3860   29.4970   76.4370 O.2   141  HIS141     -0.2864
     49  CB        47.2110   30.0820   79.3710 C.3   141  HIS141      0.0771
     50  CG        46.7140   29.7490   80.7440 C.ar  141  HIS141      0.0820
     51  ND1       45.8950   28.6680   81.0020 N.ar  141  HIS141     -0.2267
     52  CD2       46.8920   30.3770   81.9290 C.ar  141  HIS141      0.1154
     53  CE1       45.6090   28.6330   82.2910 C.ar  141  HIS141      0.1986
     54  NE2       46.2000   29.6620   82.8780 N.ar  141  HIS141     -0.2212
     55  N         45.8580   34.4600   79.2320 N.3   149  GLY149     -0.1225
     56  CA        46.1510   34.4730   80.6650 C.3   149  GLY149      0.1811
     57  C         47.5510   34.9310   81.0620 C.2   149  GLY149      0.2280
     58  O         48.1960   34.3240   81.9270 O.2   149  GLY149     -0.2866
     59  N         50.1100   34.5680   79.4040 N.3   151  CYS151     -0.1235
     60  CA        51.0850   33.6480   78.8280 C.3   151  CYS151      0.1677
     61  C         51.2470   33.9670   77.3460 C.2   151  CYS151      0.2270
     62  O         50.2850   33.8840   76.5840 O.2   151  CYS151     -0.2867
     63  CB        50.6190   32.2000   79.0000 C.3   151  CYS151      0.0956
     64  SG        50.3610   31.7080   80.7330 S.3   151  CYS151     -0.0801
     65  N         48.7000   24.1350   89.0220 N.3   176  ASP176     -0.1239
     66  CA        48.1670   25.5060   89.0490 C.3   176  ASP176      0.1674
     67  C         46.6670   25.5300   89.3890 C.2   176  ASP176      0.2266
     68  O         45.9770   24.5310   89.2590 O.2   176  ASP176     -0.2867
     69  CB        48.4150   26.1180   87.6600 C.3   176  ASP176      0.1410
     70  CG        48.2430   27.6200   87.6180 C.2   176  ASP176      0.3668
     71  OD1       47.1040   28.0830   87.4450 O.co2 176  ASP176     -0.2456
     72  OD2       49.2510   28.3430   87.7030 O.co2 176  ASP176     -0.2456
     73  N         44.5260   26.9870   87.6960 N.3   178  HIS178     -0.1241
     74  CA        43.8160   27.0250   86.4170 C.3   178  HIS178      0.1621
     75  C         44.1730   25.8350   85.5460 C.2   178  HIS178      0.2264
     76  O         45.3000   25.3830   85.5690 O.2   178  HIS178     -0.2867
     77  CB        44.1840   28.3020   85.6770 C.3   178  HIS178      0.0745
     78  CG        43.8300   29.5420   86.4270 C.ar  178  HIS178      0.0817
     79  ND1       44.7190   30.1860   87.2630 N.ar  178  HIS178     -0.2268
     80  CD2       42.6750   30.2450   86.4910 C.ar  178  HIS178      0.1154
     81  CE1       44.1300   31.2410   87.7970 C.ar  178  HIS178      0.1986
     82  NE2       42.8900   31.3000   87.3450 N.ar  178  HIS178     -0.2212
     83  N         38.0550   31.1420   84.3580 N.3   206  PHE206     -0.1241
     84  CA        39.0710   30.9600   83.3120 C.3   206  PHE206      0.1605
     85  C         39.8310   29.6280   83.4350 C.2   206  PHE206      0.2264
     86  O         40.1940   29.2300   84.5370 O.2   206  PHE206     -0.2867
     87  CB        40.0580   32.1340   83.3790 C.3   206  PHE206      0.0534
     88  CG        41.1420   32.0840   82.3410 C.ar  206  PHE206     -0.0203
     89  CD1       40.9160   32.5520   81.0540 C.ar  206  PHE206     -0.0042
     90  CD2       42.3940   31.5950   82.6620 C.ar  206  PHE206     -0.0042
     91  CE1       41.9200   32.5130   80.1020 C.ar  206  PHE206     -0.0003
     92  CE2       43.4050   31.5550   81.7120 C.ar  206  PHE206     -0.0003
     93  CZ        43.1650   32.0140   80.4340 C.ar  206  PHE206     -0.0000
     94  N         48.9040   29.6570   92.8320 N.3   275  ASP275     -0.1239
     95  CA        47.6150   30.3120   93.0520 C.3   275  ASP275      0.1674
     96  C         46.5570   29.4560   93.7650 C.2   275  ASP275      0.2266
     97  O         45.4290   29.9060   93.9840 O.2   275  ASP275     -0.2867
     98  CB        47.0580   30.9400   91.7600 C.3   275  ASP275      0.1410
     99  CG        47.2750   30.0790   90.5300 C.2   275  ASP275      0.3668
    100  OD1       47.7020   28.9150   90.6370 O.co2 275  ASP275     -0.2456
    101  OD2       46.9920   30.5970   89.4370 O.co2 275  ASP275     -0.2456
    102  N         42.7250   35.0960   94.5730 N.3   282  HIS282     -0.1241
    103  CA        41.5600   34.4260   93.9900 C.3   282  HIS282      0.1621
    104  C         40.6560   33.9070   95.0930 C.2   282  HIS282      0.2264
    105  O         39.4270   33.9020   94.9590 O.2   282  HIS282     -0.2867
    106  CB        41.9770   33.2570   93.1010 C.3   282  HIS282      0.0745
    107  CG        42.4880   33.6710   91.7560 C.ar  282  HIS282      0.0817
    108  ND1       43.8210   33.9240   91.5120 N.ar  282  HIS282     -0.2268
    109  CD2       41.8450   33.8790   90.5820 C.ar  282  HIS282      0.1154
    110  CE1       43.9770   34.2710   90.2460 C.ar  282  HIS282      0.1986
    111  NE2       42.7920   34.2510   89.6590 N.ar  282  HIS282     -0.2212
    112  N         51.2590   30.5700   87.8940 N.3   316  GLY316     -0.1210
    113  CA        50.4680   31.6280   88.4990 C.3   316  GLY316      0.1956
    114  C         50.8290   31.9090   89.9480 C.2   316  GLY316      0.2612
    115  O         51.6230   31.1930   90.5550 O.2   316  GLY316     -0.2717
    116  N         50.2420   32.9660   90.4980 N.am  317  GLY317     -0.1956
    117  CA        50.4730   33.3410   91.8840 C.3   317  GLY317      0.1869
    118  C         50.7130   34.8330   91.9840 C.2   317  GLY317      0.2309
    119  O         51.8060   35.3110   91.6890 O.2   317  GLY317     -0.2863
@<TRIPOS>BOND
     1    48    47    2
     2    62    61    2
     3    47    46    1
     4    61    60    1
     5    46    49    1
     6    46    45    1
     7    38    37    2
     8    60    63    1
     9    60    59    1
    10    63    64    1
    11    24    23    2
    12    55    56    1
    13    49    50    1
    14    37    45   am
    15    37    36    1
    16    91    93   ar
    17    91    89   ar
    18    23    35   am
    19    23    22    1
    20    36    35    1
    21    36    39    1
    22    25    22    1
    23    25    26    1
    24    93    92   ar
    25    56    57    1
    26    50    51   ar
    27    50    52   ar
    28    51    53   ar
    29    89    88   ar
    30    57    58    2
    31    22    21    1
    32    27    26   ar
    33    27    29   ar
    34    26    28   ar
    35    39    40    1
    36    92    90   ar
    37    52    54   ar
    38    53    54   ar
    39    88    90   ar
    40    88    87    1
    41    29    30   ar
    42    40    42   ar
    43    40    41   ar
    44    28    30   ar
    45    28    31   ar
    46    42    44   ar
    47    30    32   ar
    48    31    33   ar
    49    84    87    1
    50    84    85    1
    51    84    83    1
    52    85    86    2
    53    41    43   ar
    54    44    43   ar
    55    32    34   ar
    56    33    34   ar
    57     1     2    1
    58     5     2    1
    59     5     6    1
    60     7     6    1
    61     7     8    1
    62    19    17   ar
    63    19    20   ar
    64    75    76    2
    65    75    74    1
    66    77    74    1
    67    77    78    1
    68    17    15   ar
    69     9     8    1
    70     2     3    1
    71    74    73    1
    72    78    80   ar
    73    78    79   ar
    74    80    82   ar
    75    20    18   ar
    76    10     3   am
    77    10    11    1
    78    15    14    1
    79    15    16   ar
    80     3     4    2
    81    14    11    1
    82    79    81   ar
    83    82    81   ar
    84    71    70   ar
    85    70    69    1
    86    70    72   ar
    87    69    66    1
    88    11    12    1
    89    18    16   ar
    90   112   113    1
    91    12    13    2
    92   113   114    1
    93    65    66    1
    94    66    67    1
    95    68    67    2
    96   101    99   ar
    97   111   110   ar
    98   111   109   ar
    99   114   116   am
   100   114   115    2
   101   110   108   ar
   102   116   117    1
   103    99   100   ar
   104    99    98    1
   105   109   107   ar
   106   108   107   ar
   107   119   118    2
   108   107   106    1
   109    98    95    1
   110   117   118    1
   111    94    95    1
   112    95    96    1
   113   106   103    1
   114    96    97    2
   115   103   102    1
   116   103   104    1
   117   105   104    2
