@<TRIPOS>MOLECULE
tmp/4bz6D00.pdb
 131 128 0 0 0
SMALL
GASTEIGER

@<TRIPOS>ATOM
      1  N         47.4080   38.8340   26.6410 N.3    19  LYS19      -0.1245
      2  CA        48.3900   39.5130   25.8120 C.3    19  LYS19       0.1561
      3  C         48.9430   38.6370   24.6790 C.2    19  LYS19       0.2260
      4  O         49.0360   39.1050   23.5300 O.2    19  LYS19      -0.2867
      5  CB        49.5280   40.0400   26.6710 C.3    19  LYS19       0.0271
      6  CG        50.4350   40.9670   25.9130 C.3    19  LYS19       0.0035
      7  CD        51.1470   41.8820   26.8670 C.3    19  LYS19       0.0206
      8  CE        52.4510   42.3190   26.2970 C.3    19  LYS19       0.1093
      9  NZ        52.2240   42.9650   24.9870 N.3    19  LYS19      -0.1314
     10  N         50.1240   46.6200   32.8760 N.3    99  ASP99      -0.1239
     11  CA        50.5600   45.6780   31.8290 C.3    99  ASP99       0.1674
     12  C         50.7310   44.2560   32.3420 C.2    99  ASP99       0.2266
     13  O         50.9570   43.3430   31.5470 O.2    99  ASP99      -0.2867
     14  CB        51.7960   46.1800   31.0540 C.3    99  ASP99       0.1410
     15  CG        51.5260   47.4260   30.2300 C.2    99  ASP99       0.3668
     16  OD1       50.3480   47.6630   29.8740 O.co2  99  ASP99      -0.2456
     17  OD2       52.4860   48.1640   29.9420 O.co2  99  ASP99      -0.2456
     18  N         60.8720   35.3270   29.7840 N.3   139  TRP139     -0.1227
     19  CA        60.2260   36.4230   30.5140 C.3   139  TRP139      0.1737
     20  C         61.1810   37.2560   31.3610 C.2   139  TRP139      0.2595
     21  O         61.1220   37.2950   32.5890 O.2   139  TRP139     -0.2718
     22  CB        58.9300   35.9270   31.1970 C.3   139  TRP139      0.0564
     23  CG        58.0750   35.1700   30.2210 C.ar  139  TRP139      0.0003
     24  CD1       57.7870   33.8380   30.2540 C.ar  139  TRP139      0.0946
     25  CD2       57.5670   35.6600   28.9610 C.ar  139  TRP139      0.0152
     26  NE1       57.0460   33.4830   29.1430 N.ar  139  TRP139     -0.2442
     27  CE2       56.9130   34.5790   28.3240 C.ar  139  TRP139      0.0810
     28  CE3       57.5510   36.9260   28.3330 C.ar  139  TRP139      0.0012
     29  CZ2       56.2700   34.7170   27.0800 C.ar  139  TRP139      0.0191
     30  CZ3       56.9130   37.0610   27.1080 C.ar  139  TRP139      0.0001
     31  CH2       56.2690   35.9670   26.5010 C.ar  139  TRP139      0.0015
     32  N         61.9990   38.0170   30.6410 N.am  140  HIS140     -0.1961
     33  CA        63.1230   38.7700   31.1370 C.3   140  HIS140      0.1787
     34  C         62.9200   39.9200   32.1310 C.2   140  HIS140      0.2620
     35  O         63.8800   40.2720   32.7990 O.2   140  HIS140     -0.2715
     36  CB        64.0840   39.1410   29.9670 C.3   140  HIS140      0.0785
     37  CG        63.5460   40.0900   28.9340 C.ar  140  HIS140      0.0821
     38  ND1       64.3900   40.7310   28.0570 N.ar  140  HIS140     -0.2267
     39  CD2       62.2660   40.4440   28.6390 C.ar  140  HIS140      0.1154
     40  CE1       63.6210   41.4890   27.2920 C.ar  140  HIS140      0.1986
     41  NE2       62.3330   41.3260   27.5810 N.ar  140  HIS140     -0.2212
     42  N         61.7220   40.5010   32.2440 N.am  141  HIS141     -0.1973
     43  CA        61.5180   41.6870   33.0970 C.3   141  HIS141      0.1656
     44  C         61.1050   41.3830   34.5270 C.2   141  HIS141      0.2291
     45  O         61.1820   42.2920   35.3400 O.2   141  HIS141     -0.2864
     46  CB        60.4510   42.6360   32.4850 C.3   141  HIS141      0.0771
     47  CG        60.7700   43.1260   31.1010 C.ar  141  HIS141      0.0820
     48  ND1       61.9320   43.8280   30.8330 N.ar  141  HIS141     -0.2267
     49  CD2       60.0440   43.0230   29.9630 C.ar  141  HIS141      0.1154
     50  CE1       61.8860   44.0920   29.5330 C.ar  141  HIS141      0.1986
     51  NE2       60.7540   43.6520   28.9820 N.ar  141  HIS141     -0.2212
     52  N         56.2680   44.3850   32.4360 N.3   149  GLY149     -0.1225
     53  CA        56.1740   44.1150   30.9950 C.3   149  GLY149      0.1811
     54  C         55.6150   42.7470   30.6420 C.2   149  GLY149      0.2280
     55  O         56.1920   42.0360   29.8170 O.2   149  GLY149     -0.2866
     56  N         55.7240   40.0380   32.3170 N.3   151  CYS151     -0.1235
     57  CA        56.5510   38.9500   32.8420 C.3   151  CYS151      0.1677
     58  C         56.1780   38.8680   34.3180 C.2   151  CYS151      0.2270
     59  O         56.3210   39.8550   35.0330 O.2   151  CYS151     -0.2867
     60  CB        58.0410   39.2350   32.6620 C.3   151  CYS151      0.0956
     61  SG        58.5270   39.6230   30.9640 S.3   151  CYS151     -0.0801
     62  N         66.0220   40.6470   22.4700 N.3   177  ASP177     -0.1239
     63  CA        64.7290   41.3220   22.4710 C.3   177  ASP177      0.1674
     64  C         64.9150   42.8390   22.2100 C.2   177  ASP177      0.2266
     65  O         65.9840   43.4000   22.5120 O.2   177  ASP177     -0.2867
     66  CB        64.0850   41.1100   23.8410 C.3   177  ASP177      0.1410
     67  CG        62.6000   41.3750   23.8750 C.2   177  ASP177      0.3668
     68  OD1       62.2180   42.5470   23.9140 O.co2 177  ASP177     -0.2456
     69  OD2       61.8350   40.4120   23.9930 O.co2 177  ASP177     -0.2456
     70  N         63.5170   45.1280   23.8790 N.3   179  HIS179     -0.1241
     71  CA        63.5890   45.7360   25.2050 C.3   179  HIS179      0.1621
     72  C         64.7980   45.2580   25.9940 C.2   179  HIS179      0.2264
     73  O         65.2600   44.1140   25.8210 O.2   179  HIS179     -0.2867
     74  CB        62.2900   45.4570   25.9900 C.3   179  HIS179      0.0745
     75  CG        61.0720   45.9570   25.2740 C.ar  179  HIS179      0.0817
     76  ND1       60.4040   45.1700   24.3570 N.ar  179  HIS179     -0.2268
     77  CD2       60.5170   47.1910   25.2790 C.ar  179  HIS179      0.1154
     78  CE1       59.4290   45.9250   23.8790 C.ar  179  HIS179      0.1986
     79  NE2       59.4760   47.1600   24.3910 N.ar  179  HIS179     -0.2212
     80  N         60.1140   51.8780   27.3750 N.3   207  PHE207     -0.1241
     81  CA        60.2130   50.8090   28.3760 C.3   207  PHE207      0.1605
     82  C         61.5050   49.9560   28.2540 C.2   207  PHE207      0.2264
     83  O         61.8620   49.6120   27.1340 O.2   207  PHE207     -0.2867
     84  CB        58.9780   49.8790   28.2420 C.3   207  PHE207      0.0534
     85  CG        58.8510   48.8030   29.2940 C.ar  207  PHE207     -0.0203
     86  CD1       58.2330   49.0690   30.5140 C.ar  207  PHE207     -0.0042
     87  CD2       59.3620   47.5260   29.0750 C.ar  207  PHE207     -0.0042
     88  CE1       58.1280   48.0740   31.4930 C.ar  207  PHE207     -0.0003
     89  CE2       59.2520   46.5290   30.0540 C.ar  207  PHE207     -0.0003
     90  CZ        58.6530   46.8140   31.2590 C.ar  207  PHE207     -0.0000
     91  N         60.2710   41.1080   18.7830 N.3   270  ASP270     -0.1239
     92  CA        59.8120   42.5010   18.6240 C.3   270  ASP270      0.1674
     93  C         60.7460   43.4510   17.8770 C.2   270  ASP270      0.2266
     94  O         60.3650   44.6090   17.6430 O.2   270  ASP270     -0.2867
     95  CB        59.2630   43.0940   19.9350 C.3   270  ASP270      0.1410
     96  CG        60.0600   42.7970   21.2080 C.2   270  ASP270      0.3668
     97  OD1       61.1530   42.2020   21.1090 O.co2 270  ASP270     -0.2456
     98  OD2       59.5680   43.1220   22.2920 O.co2 270  ASP270     -0.2456
     99  N         54.3160   45.5000   15.6980 N.3   276  PRO276     -0.2102
    100  CA        53.6140   46.7990   15.8480 C.3   276  PRO276      0.1504
    101  C         54.3630   47.8800   16.6550 C.2   276  PRO276      0.2575
    102  O         53.9640   49.0460   16.6010 O.2   276  PRO276     -0.2718
    103  CB        52.2690   46.4200   16.4830 C.3   276  PRO276      0.0282
    104  CG        52.5260   45.0970   17.1420 C.3   276  PRO276      0.0208
    105  CD        53.5380   44.3960   16.3020 C.3   276  PRO276      0.0893
    106  N         55.4750   47.5270   17.3580 N.am  277  HIS277     -0.1976
    107  CA        56.2780   48.5440   18.0530 C.3   277  HIS277      0.1656
    108  C         56.9300   49.4060   16.9560 C.2   277  HIS277      0.2291
    109  O         57.0650   50.6160   17.1290 O.2   277  HIS277     -0.2864
    110  CB        57.3710   47.9120   18.9440 C.3   277  HIS277      0.0771
    111  CG        56.8960   47.5130   20.3090 C.ar  277  HIS277      0.0820
    112  ND1       56.4670   46.2240   20.5750 N.ar  277  HIS277     -0.2267
    113  CD2       56.8200   48.2410   21.4490 C.ar  277  HIS277      0.1154
    114  CE1       56.1190   46.2160   21.8570 C.ar  277  HIS277      0.1986
    115  NE2       56.3070   47.4050   22.4240 N.ar  277  HIS277     -0.2212
    116  N         59.3480   38.7450   23.7940 N.3   312  GLY312     -0.1225
    117  CA        58.4360   39.6250   23.0800 C.3   312  GLY312      0.1811
    118  C         58.1800   39.1830   21.6460 C.2   312  GLY312      0.2280
    119  O         58.8430   38.2800   21.1310 O.2   312  GLY312     -0.2866
    120  N         54.8040   40.7140   19.0230 N.3   314  TYR314     -0.1241
    121  CA        53.3880   41.1010   18.9600 C.3   314  TYR314      0.1605
    122  C         52.6780   40.9130   17.6250 C.2   314  TYR314      0.2264
    123  O         51.4670   41.0910   17.5460 O.2   314  TYR314     -0.2867
    124  CB        53.1950   42.4950   19.6130 C.3   314  TYR314      0.0534
    125  CG        53.8900   42.5120   20.9560 C.ar  314  TYR314     -0.0201
    126  CD1       53.2980   41.9280   22.0700 C.ar  314  TYR314     -0.0009
    127  CD2       55.2090   42.9450   21.0720 C.ar  314  TYR314     -0.0009
    128  CE1       53.9920   41.7910   23.2700 C.ar  314  TYR314      0.0417
    129  CE2       55.9030   42.8400   22.2750 C.ar  314  TYR314      0.0417
    130  CZ        55.2910   42.2560   23.3700 C.ar  314  TYR314      0.1957
    131  OH        55.9590   42.1220   24.5510 O.3   314  TYR314     -0.2866
@<TRIPOS>BOND
     1    99   100    1
     2    99   105    1
     3   100   103    1
     4   100   101    1
     5   105   104    1
     6   103   104    1
     7   102   101    2
     8   101   106   am
     9   108   109    2
    10   108   107    1
    11   106   107    1
    12   123   122    2
    13   122   121    1
    14    94    93    2
    15    93    92    1
    16   107   110    1
    17    92    91    1
    18    92    95    1
    19   110   111    1
    20   121   120    1
    21   121   124    1
    22   124   125    1
    23    95    96    1
    24   111   112   ar
    25   111   113   ar
    26   112   114   ar
    27   125   127   ar
    28   125   126   ar
    29   127   129   ar
    30    97    96   ar
    31   119   118    2
    32    96    98   ar
    33   113   115   ar
    34   118   117    1
    35   114   115   ar
    36   126   128   ar
    37    64    63    1
    38    64    65    2
    39   129   130   ar
    40    62    63    1
    41    63    66    1
    42   117   116    1
    43   128   130   ar
    44   130   131    1
    45     4     3    2
    46    66    67    1
    47    67    68   ar
    48    67    69   ar
    49    78    76   ar
    50    78    79   ar
    51    70    71    1
    52    76    75   ar
    53    79    77   ar
    54     3     2    1
    55     9     8    1
    56    71    74    1
    57    71    72    1
    58    75    77   ar
    59    75    74    1
    60     2     1    1
    61     2     5    1
    62    73    72    2
    63     6     5    1
    64     6     7    1
    65     8     7    1
    66    31    29   ar
    67    31    30   ar
    68    29    27   ar
    69    30    28   ar
    70    83    82    2
    71    40    41   ar
    72    40    38   ar
    73    80    81    1
    74    41    39   ar
    75    38    37   ar
    76    84    81    1
    77    84    85    1
    78    82    81    1
    79    27    25   ar
    80    27    26   ar
    81    28    25   ar
    82    39    37   ar
    83    37    36    1
    84    25    23   ar
    85    51    50   ar
    86    51    49   ar
    87    87    85   ar
    88    87    89   ar
    89    26    24   ar
    90    85    86   ar
    91    50    48   ar
    92    18    19    1
    93    55    54    2
    94    16    15   ar
    95    17    15   ar
    96    49    47   ar
    97    36    33    1
    98    89    90   ar
    99    23    24   ar
   100    23    22    1
   101    15    14    1
   102    19    22    1
   103    19    20    1
   104    86    88   ar
   105    32    33    1
   106    32    20   am
   107    54    53    1
   108    48    47   ar
   109    61    60    1
   110    53    52    1
   111    14    11    1
   112    47    46    1
   113    33    34    1
   114    90    88   ar
   115    20    21    2
   116    13    12    2
   117    11    12    1
   118    11    10    1
   119    34    42   am
   120    34    35    2
   121    42    43    1
   122    56    57    1
   123    46    43    1
   124    60    57    1
   125    57    58    1
   126    43    44    1
   127    58    59    2
   128    44    45    2
