@<TRIPOS>MOLECULE
tmp/4bz7D00.pdb
 82 82 0 0 0
SMALL
GASTEIGER

@<TRIPOS>ATOM
      1  N         61.3020   17.9170   24.4420 N.3    43  VAL43      -0.1231
      2  CA        61.7210   18.0990   25.8200 C.3    43  VAL43       0.1678
      3  C         60.4630   18.3800   26.5870 C.2    43  VAL43       0.2434
      4  O         59.7790   19.3790   26.3270 O.2    43  VAL43      -0.2733
      5  CB        62.7960   19.1920   26.0300 C.3    43  VAL43       0.0265
      6  CG1       63.0130   19.4390   27.5240 C.3    43  VAL43       0.0020
      7  CG2       64.1140   18.7880   25.3670 C.3    43  VAL43       0.0020
      8  N         60.0870   17.4680   27.5040 N.am   44  PRO44      -0.2718
      9  CA        58.8540   17.6980   28.2470 C.3    44  PRO44       0.1520
     10  C         59.0360   18.7600   29.3230 C.2    44  PRO44       0.2440
     11  O         60.0390   18.7200   30.0370 O.2    44  PRO44      -0.2731
     12  CB        58.5820   16.3410   28.8920 C.3    44  PRO44       0.0310
     13  CG        59.9650   15.7570   29.1090 C.3    44  PRO44       0.0237
     14  CD        60.7630   16.2230   27.9280 C.3    44  PRO44       0.0939
     15  N         58.0620   19.6680   29.5050 N.am   45  PRO45      -0.2716
     16  CA        58.1570   20.6330   30.6040 C.3    45  PRO45       0.1536
     17  C         58.2690   19.9440   31.9630 C.2    45  PRO45       0.2598
     18  O         57.7080   18.8550   32.1750 O.2    45  PRO45      -0.2715
     19  CB        56.8400   21.4060   30.4950 C.3    45  PRO45       0.0310
     20  CG        56.4520   21.2840   29.0400 C.3    45  PRO45       0.0237
     21  CD        56.8210   19.8630   28.7220 C.3    45  PRO45       0.0939
     22  N         59.0210   20.5550   32.8770 N.am   46  LEU46      -0.1964
     23  CA        59.2070   20.0020   34.2200 C.3    46  LEU46       0.1728
     24  C         57.9320   20.0750   35.0520 C.2    46  LEU46       0.2616
     25  O         57.3050   21.1240   35.1170 O.2    46  LEU46      -0.2715
     26  CB        60.3360   20.7590   34.9460 C.3    46  LEU46       0.0311
     27  CG        60.6920   20.3130   36.3790 C.3    46  LEU46       0.0022
     28  CD1       61.2290   18.8820   36.3840 C.3    46  LEU46       0.0001
     29  CD2       61.7320   21.2400   36.9680 C.3    46  LEU46       0.0001
     30  N         57.5760   18.9700   35.7240 N.am   47  GLN47      -0.1963
     31  CA        56.4630   18.9690   36.6850 C.3    47  GLN47       0.1733
     32  C         57.0580   18.5300   38.0010 C.2    47  GLN47       0.2616
     33  O         58.0990   17.8470   38.0140 O.2    47  GLN47      -0.2715
     34  CB        55.2940   18.0920   36.2410 C.3    47  GLN47       0.0408
     35  CG        54.7110   18.5970   34.9020 C.3    47  GLN47       0.0908
     36  CD        53.4640   17.8490   34.5380 C.2    47  GLN47       0.2608
     37  OE1       52.3780   18.1990   34.9750 O.2    47  GLN47      -0.2717
     38  NE2       53.5960   16.8540   33.6900 N.am   47  GLN47      -0.0878
     39  N         56.4480   18.9640   39.1100 N.am   48  TRP48      -0.1960
     40  CA        56.9970   18.7140   40.4330 C.3    48  TRP48       0.1771
     41  C         56.2220   17.7120   41.2660 C.2    48  TRP48       0.2619
     42  O         55.0730   17.3380   40.9500 O.2    48  TRP48      -0.2715
     43  CB        57.1150   20.0330   41.1990 C.3    48  TRP48       0.0590
     44  CG        58.1400   20.9820   40.6120 C.ar   48  TRP48       0.0006
     45  CD1       59.4840   20.9870   40.8530 C.ar   48  TRP48       0.0946
     46  CD2       57.8860   22.0810   39.7340 C.ar   48  TRP48       0.0152
     47  NE1       60.0810   22.0280   40.1910 N.ar   48  TRP48      -0.2442
     48  CE2       59.1260   22.7150   39.4850 C.ar   48  TRP48       0.0810
     49  CE3       56.7210   22.6180   39.1560 C.ar   48  TRP48       0.0012
     50  CZ2       59.2390   23.8630   38.6830 C.ar   48  TRP48       0.0191
     51  CZ3       56.8320   23.7410   38.3550 C.ar   48  TRP48       0.0001
     52  CH2       58.0730   24.3810   38.1570 C.ar   48  TRP48       0.0015
     53  N         56.9030   17.2260   42.3340 N.am   49  ASP49      -0.1971
     54  CA        56.3660   16.2330   43.2520 C.3    49  ASP49       0.1709
     55  C         55.4180   16.8060   44.2650 C.2    49  ASP49       0.2293
     56  O         54.7790   16.0180   44.9640 O.2    49  ASP49      -0.2864
     57  CB        57.4990   15.5770   44.0680 C.3    49  ASP49       0.1436
     58  CG        58.5810   14.8930   43.2690 C.2    49  ASP49       0.3671
     59  OD1       58.2520   14.2660   42.2490 O.co2  49  ASP49      -0.2456
     60  OD2       59.7560   14.9430   43.7010 O.co2  49  ASP49      -0.2456
     61  N         63.2480   22.5240   32.2670 N.3   119  ALA119     -0.1245
     62  CA        63.4080   21.2050   31.6280 C.3   119  ALA119      0.1562
     63  C         64.4860   21.3170   30.5370 C.2   119  ALA119      0.2260
     64  O         65.3490   20.4530   30.4080 O.2   119  ALA119     -0.2867
     65  CB        62.0980   20.7560   31.0150 C.3   119  ALA119      0.0290
     66  N         67.8400   21.2980   32.1810 N.3   122  SER122     -0.1202
     67  CA        68.1670   19.9300   32.6080 C.3   122  SER122      0.2020
     68  C         68.6400   19.0320   31.4490 C.2   122  SER122      0.2618
     69  O         69.5690   18.2270   31.6250 O.2   122  SER122     -0.2717
     70  CB        66.9460   19.3040   33.2650 C.3   122  SER122      0.2103
     71  OG        66.7960   19.9030   34.5390 O.3   122  SER122     -0.2182
     72  N         67.9980   19.1690   30.2760 N.am  123  ALA123     -0.1979
     73  CA        68.3400   18.3900   29.0760 C.3   123  ALA123      0.1597
     74  C         69.7650   18.7340   28.6320 C.2   123  ALA123      0.2287
     75  O         70.4710   17.8850   28.1360 O.2   123  ALA123     -0.2864
     76  CB        67.3520   18.7070   27.9540 C.3   123  ALA123      0.0319
     77  N         72.3700   17.1650   31.4450 N.3   126  CYS126     -0.1235
     78  CA        72.5620   15.7100   31.3890 C.3   126  CYS126      0.1677
     79  C         73.0760   15.2620   30.0160 C.2   126  CYS126      0.2270
     80  O         73.2290   14.0570   29.7750 O.2   126  CYS126     -0.2867
     81  CB        71.2780   14.9930   31.7780 C.3   126  CYS126      0.0956
     82  SG        69.9840   15.0680   30.5170 S.3   126  CYS126     -0.0801
@<TRIPOS>BOND
     1     1     2    1
     2     7     5    1
     3     2     5    1
     4     2     3    1
     5     5     6    1
     6     4     3    2
     7     3     8   am
     8     8    14    1
     9     8     9    1
    10    14    13    1
    11    76    73    1
    12    75    74    2
    13     9    12    1
    14     9    10    1
    15    74    73    1
    16    21    20    1
    17    21    15    1
    18    12    13    1
    19    20    19    1
    20    73    72    1
    21    10    15   am
    22    10    11    2
    23    15    16    1
    24    80    79    2
    25    79    78    1
    26    72    68   am
    27    64    63    2
    28    19    16    1
    29    82    81    1
    30    63    62    1
    31    16    17    1
    32    65    62    1
    33    78    77    1
    34    78    81    1
    35    68    69    2
    36    68    67    1
    37    62    61    1
    38    17    18    2
    39    17    22   am
    40    66    67    1
    41    67    70    1
    42    22    23    1
    43    70    71    1
    44    38    36   am
    45    23    26    1
    46    23    24    1
    47    36    35    1
    48    36    37    2
    49    35    34    1
    50    26    27    1
    51    24    25    2
    52    24    30   am
    53    30    31    1
    54    34    31    1
    55    27    28    1
    56    27    29    1
    57    31    32    1
    58    32    33    2
    59    32    39   am
    60    52    51   ar
    61    52    50   ar
    62    51    49   ar
    63    50    48   ar
    64    39    40    1
    65    49    46   ar
    66    48    46   ar
    67    48    47   ar
    68    46    44   ar
    69    47    45   ar
    70    40    43    1
    71    40    41    1
    72    44    45   ar
    73    44    43    1
    74    42    41    2
    75    41    53   am
    76    59    58   ar
    77    53    54    1
    78    54    57    1
    79    54    55    1
    80    58    60   ar
    81    58    57    1
    82    55    56    2
