@<TRIPOS>MOLECULE
tmp/4bz7D01.pdb
 124 122 0 0 0
SMALL
GASTEIGER

@<TRIPOS>ATOM
      1  N         47.7110   47.1370   35.3050 N.3    98  TYR98      -0.1227
      2  CA        47.9180   47.8530   34.0410 C.3    98  TYR98       0.1736
      3  C         48.3130   46.9060   32.8880 C.2    98  TYR98       0.2595
      4  O         47.4840   46.0700   32.5110 O.2    98  TYR98      -0.2718
      5  CB        48.9070   49.0480   34.2450 C.3    98  TYR98       0.0548
      6  CG        48.4520   50.0080   35.3340 C.ar   98  TYR98      -0.0200
      7  CD1       47.2360   50.6850   35.2320 C.ar   98  TYR98      -0.0009
      8  CD2       49.2050   50.1920   36.4900 C.ar   98  TYR98      -0.0009
      9  CE1       46.7980   51.5520   36.2380 C.ar   98  TYR98       0.0417
     10  CE2       48.7660   51.0500   37.5130 C.ar   98  TYR98       0.0417
     11  CZ        47.5690   51.7320   37.3770 C.ar   98  TYR98       0.1957
     12  OH        47.1320   52.5790   38.3800 O.3    98  TYR98      -0.2866
     13  N         49.5650   46.9680   32.3860 N.am   99  ASP99      -0.1974
     14  CA        50.0240   46.0960   31.2790 C.3    99  ASP99       0.1709
     15  C         50.4300   44.6540   31.6840 C.2    99  ASP99       0.2293
     16  O         50.7000   43.8190   30.8150 O.2    99  ASP99      -0.2864
     17  CB        51.0840   46.7830   30.4040 C.3    99  ASP99       0.1436
     18  CG        50.5620   47.8590   29.4710 C.2    99  ASP99       0.3671
     19  OD1       49.3210   48.0610   29.4160 O.co2  99  ASP99      -0.2456
     20  OD2       51.3910   48.5090   28.7980 O.co2  99  ASP99      -0.2456
     21  N         62.1240   38.0030   29.9310 N.3   140  HIS140     -0.1226
     22  CA        63.2740   38.6920   30.4800 C.3   140  HIS140      0.1752
     23  C         63.0720   39.8450   31.4240 C.2   140  HIS140      0.2596
     24  O         64.0330   40.2230   32.0990 O.2   140  HIS140     -0.2718
     25  CB        64.2670   39.0680   29.3430 C.3   140  HIS140      0.0759
     26  CG        63.7400   40.0150   28.2990 C.ar  140  HIS140      0.0818
     27  ND1       64.5880   40.5970   27.3830 N.ar  140  HIS140     -0.2268
     28  CD2       62.4730   40.4230   28.0300 C.ar  140  HIS140      0.1154
     29  CE1       63.8350   41.3820   26.6280 C.ar  140  HIS140      0.1986
     30  NE2       62.5500   41.2810   26.9550 N.ar  140  HIS140     -0.2212
     31  N         61.8520   40.3840   31.5140 N.am  141  HIS141     -0.1975
     32  CA        61.6740   41.5740   32.3550 C.3   141  HIS141      0.1656
     33  C         61.2480   41.3040   33.8030 C.2   141  HIS141      0.2291
     34  O         61.3000   42.2390   34.6060 O.2   141  HIS141     -0.2864
     35  CB        60.6070   42.4850   31.7320 C.3   141  HIS141      0.0771
     36  CG        60.9640   43.0140   30.3730 C.ar  141  HIS141      0.0820
     37  ND1       62.1010   43.7820   30.1780 N.ar  141  HIS141     -0.2267
     38  CD2       60.2930   42.9090   29.1960 C.ar  141  HIS141      0.1154
     39  CE1       62.0820   44.1280   28.8890 C.ar  141  HIS141      0.1986
     40  NE2       61.0180   43.6170   28.2590 N.ar  141  HIS141     -0.2212
     41  N         56.5340   44.3850   31.8630 N.3   149  GLY149     -0.1210
     42  CA        56.5630   44.1420   30.4240 C.3   149  GLY149      0.1956
     43  C         55.9670   42.8280   29.9730 C.2   149  GLY149      0.2612
     44  O         56.5450   42.1380   29.1210 O.2   149  GLY149     -0.2717
     45  N         54.7690   42.5180   30.4840 N.am  150  PHE150     -0.1962
     46  CA        54.0130   41.2940   30.1720 C.3   150  PHE150      0.1771
     47  C         54.7060   40.0020   30.7180 C.2   150  PHE150      0.2619
     48  O         54.3160   38.8990   30.3460 O.2   150  PHE150     -0.2715
     49  CB        53.6550   41.1850   28.6460 C.3   150  PHE150      0.0574
     50  CG        53.4880   42.4880   27.8640 C.ar  150  PHE150     -0.0200
     51  CD1       52.6330   43.4860   28.3120 C.ar  150  PHE150     -0.0042
     52  CD2       54.1610   42.6940   26.6650 C.ar  150  PHE150     -0.0042
     53  CE1       52.4600   44.6680   27.5860 C.ar  150  PHE150     -0.0003
     54  CE2       53.9720   43.8690   25.9300 C.ar  150  PHE150     -0.0003
     55  CZ        53.1290   44.8530   26.4000 C.ar  150  PHE150     -0.0000
     56  N         55.7400   40.1420   31.5560 N.am  151  CYS151     -0.1968
     57  CA        56.5140   39.0380   32.1220 C.3   151  CYS151      0.1712
     58  C         56.1250   38.9040   33.5820 C.2   151  CYS151      0.2296
     59  O         56.2680   39.8880   34.3340 O.2   151  CYS151     -0.2864
     60  CB        58.0150   39.3070   31.9970 C.3   151  CYS151      0.0983
     61  SG        58.5940   39.5530   30.2900 S.3   151  CYS151     -0.0798
     62  N         66.2600   40.6350   21.8470 N.3   177  ASP177     -0.1239
     63  CA        64.9750   41.3060   21.8100 C.3   177  ASP177      0.1674
     64  C         65.1610   42.8080   21.5240 C.2   177  ASP177      0.2266
     65  O         66.2060   43.3680   21.8320 O.2   177  ASP177     -0.2867
     66  CB        64.2970   41.1460   23.1820 C.3   177  ASP177      0.1410
     67  CG        62.8110   41.4180   23.1950 C.2   177  ASP177      0.3668
     68  OD1       62.4200   42.6120   23.3300 O.co2 177  ASP177     -0.2456
     69  OD2       62.0380   40.4470   23.2130 O.co2 177  ASP177     -0.2456
     70  N         63.8710   45.0990   23.1860 N.3   179  HIS179     -0.1241
     71  CA        63.9490   45.7300   24.5140 C.3   179  HIS179      0.1621
     72  C         65.1290   45.2570   25.3270 C.2   179  HIS179      0.2264
     73  O         65.5560   44.0990   25.2230 O.2   179  HIS179     -0.2867
     74  CB        62.6500   45.4590   25.2960 C.3   179  HIS179      0.0745
     75  CG        61.4230   45.9870   24.6130 C.ar  179  HIS179      0.0817
     76  ND1       60.6840   45.2000   23.7400 N.ar  179  HIS179     -0.2268
     77  CD2       60.9210   47.2490   24.5980 C.ar  179  HIS179      0.1154
     78  CE1       59.7370   45.9910   23.2570 C.ar  179  HIS179      0.1986
     79  NE2       59.8320   47.2340   23.7610 N.ar  179  HIS179     -0.2212
     80  N         60.5270   51.8660   26.6860 N.3   207  PHE207     -0.1241
     81  CA        60.5960   50.8560   27.7240 C.3   207  PHE207      0.1605
     82  C         61.8420   49.9590   27.5800 C.2   207  PHE207      0.2264
     83  O         62.1660   49.5700   26.4620 O.2   207  PHE207     -0.2867
     84  CB        59.3480   49.9630   27.5970 C.3   207  PHE207      0.0534
     85  CG        59.2330   48.8990   28.6560 C.ar  207  PHE207     -0.0203
     86  CD1       58.6390   49.1800   29.8840 C.ar  207  PHE207     -0.0042
     87  CD2       59.7660   47.6250   28.4500 C.ar  207  PHE207     -0.0042
     88  CE1       58.5260   48.1900   30.8670 C.ar  207  PHE207     -0.0003
     89  CE2       59.6470   46.6310   29.4350 C.ar  207  PHE207     -0.0003
     90  CZ        59.0650   46.9300   30.6490 C.ar  207  PHE207     -0.0000
     91  N         60.6540   41.0180   18.0920 N.3   269  ASP269     -0.1239
     92  CA        60.1810   42.3910   17.9510 C.3   269  ASP269      0.1674
     93  C         61.1160   43.3540   17.2320 C.2   269  ASP269      0.2266
     94  O         60.7220   44.5090   16.9920 O.2   269  ASP269     -0.2867
     95  CB        59.6160   42.9590   19.2640 C.3   269  ASP269      0.1410
     96  CG        60.4340   42.6740   20.5040 C.2   269  ASP269      0.3668
     97  OD1       61.5840   42.1890   20.3580 O.co2 269  ASP269     -0.2456
     98  OD2       59.9590   43.0220   21.6120 O.co2 269  ASP269     -0.2456
     99  N         55.9310   47.4540   16.5730 N.3   276  HIS276     -0.1241
    100  CA        56.7470   48.5220   17.2040 C.3   276  HIS276      0.1621
    101  C         57.3450   49.3900   16.1170 C.2   276  HIS276      0.2264
    102  O         57.4930   50.5970   16.3300 O.2   276  HIS276     -0.2867
    103  CB        57.8910   47.9850   18.0700 C.3   276  HIS276      0.0745
    104  CG        57.4670   47.4990   19.4100 C.ar  276  HIS276      0.0817
    105  ND1       57.0680   46.1850   19.6010 N.ar  276  HIS276     -0.2268
    106  CD2       57.4050   48.1550   20.5960 C.ar  276  HIS276      0.1154
    107  CE1       56.8000   46.0750   20.8970 C.ar  276  HIS276      0.1986
    108  NE2       56.9610   47.2300   21.5340 N.ar  276  HIS276     -0.2212
    109  N         59.6230   38.6640   23.0490 N.3   311  GLY311     -0.1225
    110  CA        58.7260   39.5650   22.3400 C.3   311  GLY311      0.1811
    111  C         58.4480   39.1340   20.9200 C.2   311  GLY311      0.2280
    112  O         59.0910   38.2300   20.4060 O.2   311  GLY311     -0.2866
    113  N         55.1900   40.6830   18.2610 N.3   313  TYR313     -0.1241
    114  CA        53.7830   41.0370   18.2600 C.3   313  TYR313      0.1605
    115  C         53.0600   40.8780   16.9200 C.2   313  TYR313      0.2264
    116  O         51.8490   41.0640   16.8550 O.2   313  TYR313     -0.2867
    117  CB        53.5990   42.4110   18.9490 C.3   313  TYR313      0.0534
    118  CG        54.2820   42.4120   20.3060 C.ar  313  TYR313     -0.0201
    119  CD1       53.6430   41.8890   21.4270 C.ar  313  TYR313     -0.0009
    120  CD2       55.6280   42.7660   20.4320 C.ar  313  TYR313     -0.0009
    121  CE1       54.2960   41.8030   22.6590 C.ar  313  TYR313      0.0417
    122  CE2       56.3030   42.6410   21.6480 C.ar  313  TYR313      0.0417
    123  CZ        55.6370   42.1430   22.7560 C.ar  313  TYR313      0.1957
    124  OH        56.3030   42.0270   23.9580 O.3   313  TYR313     -0.2866
@<TRIPOS>BOND
     1   101   102    2
     2   101   100    1
     3    99   100    1
     4   116   115    2
     5   115   114    1
     6    94    93    2
     7   100   103    1
     8    93    92    1
     9    92    91    1
    10    92    95    1
    11   103   104    1
    12   114   113    1
    13   114   117    1
    14   117   118    1
    15    95    96    1
    16   104   105   ar
    17   104   106   ar
    18   105   107   ar
    19   118   120   ar
    20   118   119   ar
    21    97    96   ar
    22   112   111    2
    23   120   122   ar
    24    96    98   ar
    25   106   108   ar
    26   107   108   ar
    27   111   110    1
    28   119   121   ar
    29    64    63    1
    30    64    65    2
    31   122   123   ar
    32    63    62    1
    33    63    66    1
    34   110   109    1
    35   121   123   ar
    36   123   124    1
    37    66    67    1
    38    70    71    1
    39    67    69   ar
    40    67    68   ar
    41    78    76   ar
    42    78    79   ar
    43    76    75   ar
    44    79    77   ar
    45    71    74    1
    46    71    72    1
    47    77    75   ar
    48    75    74    1
    49    73    72    2
    50    54    55   ar
    51    54    52   ar
    52    55    53   ar
    53    83    82    2
    54    29    30   ar
    55    29    27   ar
    56    52    50   ar
    57    80    81    1
    58    30    28   ar
    59    27    26   ar
    60    82    81    1
    61    53    51   ar
    62    84    81    1
    63    84    85    1
    64    50    51   ar
    65    50    49    1
    66    28    26   ar
    67    40    39   ar
    68    40    38   ar
    69    26    25    1
    70    87    85   ar
    71    87    89   ar
    72    49    46    1
    73    85    86   ar
    74    20    18   ar
    75    39    37   ar
    76    44    43    2
    77    38    36   ar
    78    25    22    1
    79    19    18   ar
    80    89    90   ar
    81    18    17    1
    82    86    88   ar
    83    21    22    1
    84    43    42    1
    85    43    45   am
    86    46    45    1
    87    46    47    1
    88    37    36   ar
    89    61    60    1
    90    48    47    2
    91    36    35    1
    92    17    14    1
    93    42    41    1
    94    22    23    1
    95    90    88   ar
    96    47    56   am
    97    16    15    2
    98    14    15    1
    99    14    13    1
   100    23    31   am
   101    23    24    2
   102    31    32    1
   103    56    57    1
   104    35    32    1
   105    60    57    1
   106    57    58    1
   107    32    33    1
   108    13     3   am
   109     4     3    2
   110     3     2    1
   111    58    59    2
   112    33    34    2
   113     2     5    1
   114     2     1    1
   115     5     6    1
   116     7     6   ar
   117     7     9   ar
   118     6     8   ar
   119     9    11   ar
   120     8    10   ar
   121    11    10   ar
   122    11    12    1
