@<TRIPOS>MOLECULE
tmp/4bz7D02.pdb
 76 73 0 0 0
SMALL
GASTEIGER

@<TRIPOS>ATOM
      1  N         72.2760   18.9890   22.6730 N.3   130  GLU130     -0.1231
      2  CA        73.3830   19.9390   22.5030 C.3   130  GLU130      0.1699
      3  C         72.7930   21.3300   22.5310 C.2   130  GLU130      0.2592
      4  O         73.4570   22.2850   22.9380 O.2   130  GLU130     -0.2718
      5  CB        74.0730   19.7250   21.1590 C.3   130  GLU130      0.0402
      6  CG        75.0020   18.5260   21.1640 C.3   130  GLU130      0.1161
      7  CD        75.0600   17.8240   19.8240 C.2   130  GLU130      0.3649
      8  OE1       74.0560   17.1780   19.4450 O.co2 130  GLU130     -0.2457
      9  OE2       76.0940   17.9560   19.1320 O.co2 130  GLU130     -0.2457
     10  N         71.5370   21.4580   22.0650 N.am  131  VAL131     -0.1980
     11  CA        70.8100   22.7310   22.0480 C.3   131  VAL131      0.1595
     12  C         69.3840   22.4050   22.4020 C.2   131  VAL131      0.2287
     13  O         68.8840   21.3480   21.9920 O.2   131  VAL131     -0.2864
     14  CB        70.8450   23.3650   20.6160 C.3   131  VAL131      0.0276
     15  CG1       69.9880   24.6390   20.5410 C.3   131  VAL131      0.0022
     16  CG2       72.2730   23.6890   20.1860 C.3   131  VAL131      0.0022
     17  N         76.0730   29.2230   17.5470 N.3   299  LEU299     -0.1245
     18  CA        76.1290   27.7590   17.3850 C.3   299  LEU299      0.1561
     19  C         77.4870   27.2760   16.8670 C.2   299  LEU299      0.2260
     20  O         77.8660   26.1300   17.1250 O.2   299  LEU299     -0.2867
     21  CB        75.0060   27.2740   16.4670 C.3   299  LEU299      0.0270
     22  CG        73.6060   27.5060   16.9920 C.3   299  LEU299      0.0019
     23  CD1       72.5860   27.1170   15.9510 C.3   299  LEU299      0.0001
     24  CD2       73.3950   26.7960   18.3390 C.3   299  LEU299      0.0001
     25  N         80.0560   25.7320   19.4300 N.3   302  LYS302     -0.1231
     26  CA        79.8660   24.3430   19.8950 C.3   302  LYS302      0.1693
     27  C         79.8100   24.2730   21.4230 C.2   302  LYS302      0.2592
     28  O         80.3930   23.3850   22.0490 O.2   302  LYS302     -0.2718
     29  CB        80.8860   23.3800   19.2440 C.3   302  LYS302      0.0285
     30  CG        80.8200   23.4200   17.7090 C.3   302  LYS302      0.0035
     31  CD        81.7150   22.3780   17.0500 C.3   302  LYS302      0.0206
     32  CE        81.7270   22.5700   15.5500 C.3   302  LYS302      0.1093
     33  NZ        82.3350   21.4050   14.8470 N.3   302  LYS302     -0.1314
     34  N         79.0680   25.2420   22.0180 N.am  303  VAL303     -0.1966
     35  CA        78.8530   25.3240   23.4510 C.3   303  VAL303      0.1712
     36  C         77.3740   24.9430   23.6470 C.2   303  VAL303      0.2458
     37  O         76.5370   25.4800   22.9010 O.2   303  VAL303     -0.2730
     38  CB        79.1360   26.7840   23.9360 C.3   303  VAL303      0.0289
     39  CG1       78.7650   26.9640   25.4050 C.3   303  VAL303      0.0023
     40  CG2       80.6030   27.1630   23.7060 C.3   303  VAL303      0.0023
     41  N         77.0080   24.0650   24.6210 N.am  304  PRO304     -0.2727
     42  CA        75.5700   23.7750   24.8440 C.3   304  PRO304      0.1402
     43  C         74.7750   25.0630   25.0130 C.2   304  PRO304      0.2269
     44  O         75.1600   25.9300   25.8030 O.2   304  PRO304     -0.2865
     45  CB        75.5760   22.9160   26.1100 C.3   304  PRO304      0.0296
     46  CG        76.9360   22.2220   26.0590 C.3   304  PRO304      0.0237
     47  CD        77.8540   23.3110   25.5730 C.3   304  PRO304      0.0939
     48  N         73.0240   23.4110   11.6850 N.3   332  GLU332     -0.1231
     49  CA        74.3130   23.6990   12.3070 C.3   332  GLU332      0.1699
     50  C         74.7460   22.6490   13.3190 C.2   332  GLU332      0.2592
     51  O         75.9360   22.3420   13.4000 O.2   332  GLU332     -0.2718
     52  CB        74.3050   25.1160   12.9300 C.3   332  GLU332      0.0402
     53  CG        74.0530   26.2460   11.9350 C.3   332  GLU332      0.1161
     54  CD        74.9640   26.2750   10.7170 C.2   332  GLU332      0.3649
     55  OE1       76.2020   26.2710   10.9010 O.co2 332  GLU332     -0.2457
     56  OE2       74.4400   26.2620    9.5780 O.co2 332  GLU332     -0.2457
     57  N         73.7870   22.0560   14.0550 N.am  333  VAL333     -0.1966
     58  CA        74.1040   21.0730   15.0960 C.3   333  VAL333      0.1727
     59  C         74.2600   19.6710   14.5370 C.2   333  VAL333      0.2616
     60  O         75.2050   18.9590   14.9040 O.2   333  VAL333     -0.2715
     61  CB        73.0590   21.1380   16.2470 C.3   333  VAL333      0.0290
     62  CG1       73.3200   20.0540   17.2990 C.3   333  VAL333      0.0023
     63  CG2       73.0430   22.5230   16.8850 C.3   333  VAL333      0.0023
     64  N         73.3450   19.2710   13.6480 N.am  334  LYS334     -0.1963
     65  CA        73.3440   17.9270   13.0660 C.3   334  LYS334      0.1728
     66  C         74.1580   17.7850   11.7740 C.2   334  LYS334      0.2616
     67  O         74.4790   16.6550   11.3840 O.2   334  LYS334     -0.2715
     68  CB        71.8980   17.4520   12.8410 C.3   334  LYS334      0.0311
     69  CG        71.0530   17.4090   14.1250 C.3   334  LYS334      0.0038
     70  CD        69.5620   17.1830   13.8620 C.3   334  LYS334      0.0206
     71  CE        69.1690   15.7480   13.5760 C.3   334  LYS334      0.1093
     72  NZ        67.7400   15.6360   13.1680 N.3   334  LYS334     -0.1314
     73  N         74.4670   18.9070   11.1150 N.am  335  GLY335     -0.1955
     74  CA        75.1770   18.9120    9.8350 C.3   335  GLY335      0.1869
     75  C         74.2790   18.3080    8.7730 C.2   335  GLY335      0.2309
     76  O         74.7450   17.6070    7.8680 O.2   335  GLY335     -0.2863
@<TRIPOS>BOND
     1    76    75    2
     2    75    74    1
     3    56    54   ar
     4    74    73    1
     5    54    55   ar
     6    54    53    1
     7    73    66   am
     8    67    66    2
     9    48    49    1
    10    66    65    1
    11    53    52    1
    12    49    52    1
    13    49    50    1
    14    68    65    1
    15    68    69    1
    16    65    64    1
    17    72    71    1
    18    50    51    2
    19    50    57   am
    20    71    70    1
    21    64    59   am
    22    70    69    1
    23    57    58    1
    24    59    60    2
    25    59    58    1
    26    33    32    1
    27    58    61    1
    28    32    31    1
    29    23    22    1
    30    61    63    1
    31    61    62    1
    32    21    22    1
    33    21    18    1
    34    19    20    2
    35    19    18    1
    36    22    24    1
    37    31    30    1
    38    18    17    1
    39    30    29    1
    40     9     7   ar
    41    29    26    1
    42    25    26    1
    43     8     7   ar
    44     7     6    1
    45    26    27    1
    46    16    14    1
    47    15    14    1
    48    14    11    1
    49     5     6    1
    50     5     2    1
    51    27    34   am
    52    27    28    2
    53    13    12    2
    54    34    35    1
    55    11    10    1
    56    11    12    1
    57    10     3   am
    58     2     3    1
    59     2     1    1
    60     3     4    2
    61    37    36    2
    62    35    36    1
    63    35    38    1
    64    36    41   am
    65    40    38    1
    66    38    39    1
    67    41    42    1
    68    41    47    1
    69    42    43    1
    70    42    45    1
    71    43    44    2
    72    47    46    1
    73    46    45    1
