@<TRIPOS>MOLECULE
tmp/4bz8B00.pdb
 135 133 0 0 0
SMALL
GASTEIGER

@<TRIPOS>ATOM
      1  N         87.3240   24.3670   71.8600 N.3    19  LYS19      -0.1245
      2  CA        86.5410   25.3440   71.1050 C.3    19  LYS19       0.1561
      3  C         87.3310   26.0410   69.9790 C.2    19  LYS19       0.2260
      4  O         86.8110   26.1720   68.8720 O.2    19  LYS19      -0.2867
      5  CB        85.8970   26.3860   72.0390 C.3    19  LYS19       0.0271
      6  CG        85.0470   27.4600   71.3310 C.3    19  LYS19       0.0035
      7  CD        83.8220   26.8810   70.6290 C.3    19  LYS19       0.0206
      8  CE        82.9620   27.9470   70.0080 C.3    19  LYS19       0.1093
      9  NZ        81.7240   27.3780   69.4070 N.3    19  LYS19      -0.1314
     10  N         79.4570   26.4150   78.0470 N.3    99  ASP99      -0.1239
     11  CA        80.2840   27.0620   77.0230 C.3    99  ASP99       0.1674
     12  C         81.7220   27.3310   77.4890 C.2    99  ASP99       0.2266
     13  O         82.6030   27.5810   76.6620 O.2    99  ASP99      -0.2867
     14  CB        79.5930   28.3320   76.4880 C.3    99  ASP99       0.1410
     15  CG        78.2110   28.0670   75.9030 C.2    99  ASP99       0.3668
     16  OD1       78.1190   27.3060   74.9040 O.co2  99  ASP99      -0.2456
     17  OD2       77.2210   28.6000   76.4540 O.co2  99  ASP99      -0.2456
     18  N         89.6570   38.3490   74.8270 N.3   139  TRP139     -0.1227
     19  CA        88.5840   37.6910   75.5740 C.3   139  TRP139      0.1737
     20  C         87.7430   38.6400   76.4270 C.2   139  TRP139      0.2595
     21  O         87.8680   38.6890   77.6510 O.2   139  TRP139     -0.2718
     22  CB        89.1200   36.4390   76.2860 C.3   139  TRP139      0.0564
     23  CG        89.9410   35.6050   75.3520 C.ar  139  TRP139      0.0003
     24  CD1       91.2900   35.4290   75.3920 C.ar  139  TRP139      0.0946
     25  CD2       89.4970   35.0230   74.1190 C.ar  139  TRP139      0.0152
     26  NE1       91.7020   34.6770   74.3160 N.ar  139  TRP139     -0.2442
     27  CE2       90.6270   34.4500   73.4950 C.ar  139  TRP139      0.0810
     28  CE3       88.2440   34.9070   73.4890 C.ar  139  TRP139      0.0012
     29  CZ2       90.5370   33.7330   72.2980 C.ar  139  TRP139      0.0191
     30  CZ3       88.1590   34.2190   72.2910 C.ar  139  TRP139      0.0001
     31  CH2       89.2930   33.6380   71.7070 C.ar  139  TRP139      0.0015
     32  N         86.8610   39.3950   75.7320 N.am  140  HIS140     -0.1961
     33  CA        86.0090   40.4800   76.2440 C.3   140  HIS140      0.1787
     34  C         84.8310   40.0980   77.1510 C.2   140  HIS140      0.2620
     35  O         84.3440   40.9700   77.8470 O.2   140  HIS140     -0.2715
     36  CB        85.5480   41.3940   75.0730 C.3   140  HIS140      0.0785
     37  CG        84.7020   40.7240   74.0200 C.ar  140  HIS140      0.0821
     38  ND1       84.0390   41.4650   73.0610 N.ar  140  HIS140     -0.2267
     39  CD2       84.4340   39.4100   73.8110 C.ar  140  HIS140      0.1154
     40  CE1       83.3870   40.5880   72.3100 C.ar  140  HIS140      0.1986
     41  NE2       83.5910   39.3400   72.7230 N.ar  140  HIS140     -0.2212
     42  N         84.3680   38.8300   77.1530 N.am  141  HIS141     -0.1973
     43  CA        83.2290   38.4310   77.9990 C.3   141  HIS141      0.1656
     44  C         83.5580   38.0370   79.4460 C.2   141  HIS141      0.2291
     45  O         82.6390   37.9950   80.2570 O.2   141  HIS141     -0.2864
     46  CB        82.3790   37.3180   77.3390 C.3   141  HIS141      0.0771
     47  CG        81.8380   37.6550   75.9860 C.ar  141  HIS141      0.0820
     48  ND1       81.0730   38.8030   75.7640 N.ar  141  HIS141     -0.2267
     49  CD2       81.9270   36.9610   74.8270 C.ar  141  HIS141      0.1154
     50  CE1       80.7440   38.7680   74.4830 C.ar  141  HIS141      0.1986
     51  NE2       81.2400   37.6820   73.8780 N.ar  141  HIS141     -0.2212
     52  N         80.9060   33.1450   77.7860 N.3   149  GLY149     -0.1210
     53  CA        81.0040   33.0230   76.3340 C.3   149  GLY149      0.1956
     54  C         82.3750   32.6970   75.7870 C.2   149  GLY149      0.2612
     55  O         82.9140   33.4530   74.9790 O.2   149  GLY149     -0.2717
     56  N         82.9390   31.5630   76.2300 N.am  150  PHE150     -0.1962
     57  CA        84.2490   31.0230   75.8340 C.3   150  PHE150      0.1771
     58  C         85.4500   31.8020   76.3790 C.2   150  PHE150      0.2619
     59  O         86.5850   31.4400   76.0840 O.2   150  PHE150     -0.2715
     60  CB        84.3510   30.7190   74.3020 C.3   150  PHE150      0.0574
     61  CG        83.0600   30.2940   73.6250 C.ar  150  PHE150     -0.0200
     62  CD1       82.4980   29.0460   73.8770 C.ar  150  PHE150     -0.0042
     63  CD2       82.4140   31.1370   72.7300 C.ar  150  PHE150     -0.0042
     64  CE1       81.2950   28.6600   73.2660 C.ar  150  PHE150     -0.0003
     65  CE2       81.2050   30.7540   72.1280 C.ar  150  PHE150     -0.0003
     66  CZ        80.6540   29.5200   72.4040 C.ar  150  PHE150     -0.0000
     67  N         85.2010   32.8350   77.2060 N.am  151  CYS151     -0.1968
     68  CA        86.2230   33.6720   77.8540 C.3   151  CYS151      0.1712
     69  C         86.3610   33.2610   79.3320 C.2   151  CYS151      0.2296
     70  O         85.3540   33.2620   80.0540 O.2   151  CYS151     -0.2864
     71  CB        85.8780   35.1620   77.7220 C.3   151  CYS151      0.0983
     72  SG        85.5700   35.7280   76.0170 S.3   151  CYS151     -0.0798
     73  N         84.1050   43.2100   67.5300 N.3   177  ASP177     -0.1239
     74  CA        83.4870   41.8770   67.5130 C.3   177  ASP177      0.1674
     75  C         81.9600   41.9770   67.2440 C.2   177  ASP177      0.2266
     76  O         81.3680   43.0110   67.5440 O.2   177  ASP177     -0.2867
     77  CB        83.7020   41.2150   68.8750 C.3   177  ASP177      0.1410
     78  CG        83.4790   39.7210   68.9060 C.2   177  ASP177      0.3668
     79  OD1       82.3010   39.2970   68.9390 O.co2 177  ASP177     -0.2456
     80  OD2       84.4820   38.9750   68.9410 O.co2 177  ASP177     -0.2456
     81  N         79.6920   40.4990   68.9070 N.3   179  HIS179     -0.1241
     82  CA        79.0560   40.5210   70.2200 C.3   179  HIS179      0.1621
     83  C         79.4450   41.7610   71.0280 C.2   179  HIS179      0.2264
     84  O         80.5260   42.3320   70.8330 O.2   179  HIS179     -0.2867
     85  CB        79.3930   39.2180   70.9990 C.3   179  HIS179      0.0745
     86  CG        78.9740   37.9680   70.2810 C.ar  179  HIS179      0.0817
     87  ND1       79.7890   37.3760   69.3400 N.ar  179  HIS179     -0.2268
     88  CD2       77.8300   37.2490   70.3780 C.ar  179  HIS179      0.1154
     89  CE1       79.1290   36.3200   68.8920 C.ar  179  HIS179      0.1986
     90  NE2       77.9580   36.1830   69.5050 N.ar  179  HIS179     -0.2212
     91  N         73.3040   36.5060   72.4160 N.3   207  PHE207     -0.1241
     92  CA        74.3330   36.6910   73.4420 C.3   207  PHE207      0.1605
     93  C         75.1130   38.0050   73.3200 C.2   207  PHE207      0.2264
     94  O         75.5280   38.3510   72.2180 O.2   207  PHE207     -0.2867
     95  CB        75.3190   35.5000   73.4170 C.3   207  PHE207      0.0534
     96  CG        76.3360   35.4860   74.5360 C.ar  207  PHE207     -0.0203
     97  CD1       77.5510   36.1550   74.4050 C.ar  207  PHE207     -0.0042
     98  CD2       76.0700   34.8280   75.7300 C.ar  207  PHE207     -0.0042
     99  CE1       78.4890   36.1460   75.4380 C.ar  207  PHE207     -0.0003
    100  CE2       77.0090   34.8200   76.7660 C.ar  207  PHE207     -0.0003
    101  CZ        78.2180   35.4680   76.6070 C.ar  207  PHE207     -0.0000
    102  N         83.9720   37.4890   63.8190 N.3   270  ASP270     -0.1239
    103  CA        82.6300   36.9330   63.6710 C.3   270  ASP270      0.1674
    104  C         81.6280   37.7900   62.8660 C.2   270  ASP270      0.2266
    105  O         80.5050   37.3330   62.6580 O.2   270  ASP270     -0.2867
    106  CB        82.0650   36.3870   65.0000 C.3   270  ASP270      0.1410
    107  CG        82.3880   37.1740   66.2700 C.2   270  ASP270      0.3668
    108  OD1       82.8360   38.3460   66.1560 O.co2 270  ASP270     -0.2456
    109  OD2       82.1670   36.6280   67.3780 O.co2 270  ASP270     -0.2456
    110  N         77.9390   32.1710   62.3170 N.3   277  HIS277     -0.1241
    111  CA        76.8680   32.9970   62.9130 C.3   277  HIS277      0.1621
    112  C         75.9170   33.5360   61.8390 C.2   277  HIS277      0.2264
    113  O         74.7220   33.6420   62.0840 O.2   277  HIS277     -0.2867
    114  CB        77.4360   34.1810   63.7220 C.3   277  HIS277      0.0745
    115  CG        77.8770   33.8140   65.1100 C.ar  277  HIS277      0.0817
    116  ND1       79.1680   33.4180   65.3700 N.ar  277  HIS277     -0.2268
    117  CD2       77.1690   33.7820   66.2650 C.ar  277  HIS277      0.1154
    118  CE1       79.2160   33.1700   66.6700 C.ar  277  HIS277      0.1986
    119  NE2       78.0340   33.3580   67.2480 N.ar  277  HIS277     -0.2212
    120  N         86.4830   36.6510   68.8550 N.3   312  GLY312     -0.1225
    121  CA        85.6160   35.7190   68.1230 C.3   312  GLY312      0.1811
    122  C         86.0270   35.5240   66.6740 C.2   312  GLY312      0.2280
    123  O         86.8340   36.2930   66.1530 O.2   312  GLY312     -0.2866
    124  N         84.7150   31.9940   64.0420 N.3   314  TYR314     -0.1241
    125  CA        84.4420   30.5530   64.0410 C.3   314  TYR314      0.1605
    126  C         84.6430   29.7830   62.7380 C.2   314  TYR314      0.2264
    127  O         84.5070   28.5540   62.7030 O.2   314  TYR314     -0.2867
    128  CB        83.1220   30.2620   64.7780 C.3   314  TYR314      0.0534
    129  CG        83.1300   30.9320   66.1320 C.ar  314  TYR314     -0.0201
    130  CD1       83.7420   30.3250   67.2250 C.ar  314  TYR314     -0.0009
    131  CD2       82.6850   32.2460   66.2840 C.ar  314  TYR314     -0.0009
    132  CE1       83.8630   30.9870   68.4480 C.ar  314  TYR314      0.0417
    133  CE2       82.8190   32.9230   67.4970 C.ar  314  TYR314      0.0417
    134  CZ        83.3980   32.2830   68.5790 C.ar  314  TYR314      0.1957
    135  OH        83.5240   32.9200   69.7880 O.3   314  TYR314     -0.2866
@<TRIPOS>BOND
     1   112   113    2
     2   112   111    1
     3   110   111    1
     4   105   104    2
     5   127   126    2
     6   126   125    1
     7   104   103    1
     8   111   114    1
     9   103   102    1
    10   103   106    1
    11   114   115    1
    12   125   124    1
    13   125   128    1
    14   128   129    1
    15   106   107    1
    16   115   116   ar
    17   115   117   ar
    18   116   118   ar
    19   129   131   ar
    20   129   130   ar
    21   123   122    2
    22   108   107   ar
    23   117   119   ar
    24   107   109   ar
    25   131   133   ar
    26   118   119   ar
    27   122   121    1
    28   130   132   ar
    29    75    74    1
    30    75    76    2
    31   133   134   ar
    32    74    73    1
    33    74    77    1
    34   121   120    1
    35   132   134   ar
    36   134   135    1
    37     4     3    2
    38    77    78    1
    39    89    87   ar
    40    89    90   ar
    41    78    79   ar
    42    78    80   ar
    43    81    82    1
    44    87    86   ar
    45     9     8    1
    46    90    88   ar
    47     3     2    1
    48     8     7    1
    49    82    85    1
    50    82    83    1
    51    86    88   ar
    52    86    85    1
    53     7     6    1
    54    84    83    2
    55     2     1    1
    56     2     5    1
    57     6     5    1
    58    31    30   ar
    59    31    29   ar
    60    65    66   ar
    61    65    63   ar
    62    94    93    2
    63    30    28   ar
    64    29    27   ar
    65    40    41   ar
    66    40    38   ar
    67    66    64   ar
    68    91    92    1
    69    41    39   ar
    70    63    61   ar
    71    38    37   ar
    72    64    62   ar
    73    93    92    1
    74    95    92    1
    75    95    96    1
    76    28    25   ar
    77    27    25   ar
    78    27    26   ar
    79    61    62   ar
    80    61    60    1
    81    39    37   ar
    82    51    50   ar
    83    51    49   ar
    84    37    36    1
    85    25    23   ar
    86    60    57    1
    87    26    24   ar
    88    97    96   ar
    89    97    99   ar
    90    50    48   ar
    91    96    98   ar
    92    49    47   ar
    93    18    19    1
    94    16    15   ar
    95    55    54    2
    96    36    33    1
    97    23    24   ar
    98    23    22    1
    99    99   101   ar
   100    19    22    1
   101    19    20    1
   102    98   100   ar
   103    32    33    1
   104    32    20   am
   105    48    47   ar
   106    54    56   am
   107    54    53    1
   108    57    56    1
   109    57    58    1
   110    15    17   ar
   111    15    14    1
   112    47    46    1
   113    72    71    1
   114    59    58    2
   115    33    34    1
   116    53    52    1
   117    58    67   am
   118    20    21    2
   119    14    11    1
   120   101   100   ar
   121    13    12    2
   122    11    12    1
   123    11    10    1
   124    34    42   am
   125    34    35    2
   126    42    43    1
   127    67    68    1
   128    46    43    1
   129    71    68    1
   130    68    69    1
   131    43    44    1
   132    69    70    2
   133    44    45    2
