@<TRIPOS>MOLECULE
tmp/4bz9B00.pdb
 150 150 0 0 0
SMALL
GASTEIGER

@<TRIPOS>ATOM
      1  N         87.1450   24.5220   71.6880 N.3    19  LYS19      -0.1231
      2  CA        86.3500   25.4500   70.8760 C.3    19  LYS19       0.1693
      3  C         87.1470   26.0950   69.7360 C.2    19  LYS19       0.2592
      4  O         86.6460   26.1470   68.6250 O.2    19  LYS19      -0.2718
      5  CB        85.6950   26.5540   71.7250 C.3    19  LYS19       0.0285
      6  CG        84.5740   27.3080   70.9910 C.3    19  LYS19       0.0035
      7  CD        83.5320   27.9100   71.9310 C.3    19  LYS19       0.0206
      8  CE        82.5920   26.8910   72.5400 C.3    19  LYS19       0.1093
      9  NZ        81.9490   27.4020   73.7800 N.3    19  LYS19      -0.1314
     10  N         88.3340   26.6400   70.0190 N.am   20  PHE20      -0.1976
     11  CA        89.1050   27.3450   68.9990 C.3    20  PHE20       0.1639
     12  C         90.1330   26.5010   68.2560 C.2    20  PHE20       0.2290
     13  O         90.7590   26.9900   67.3260 O.2    20  PHE20      -0.2864
     14  CB        89.6580   28.6780   69.5450 C.3    20  PHE20       0.0560
     15  CG        88.5420   29.6980   69.6830 C.ar   20  PHE20      -0.0200
     16  CD1       88.0380   30.3570   68.5660 C.ar   20  PHE20      -0.0042
     17  CD2       87.9880   29.9830   70.9250 C.ar   20  PHE20      -0.0042
     18  CE1       86.9940   31.2870   68.6890 C.ar   20  PHE20      -0.0003
     19  CE2       86.9380   30.8970   71.0500 C.ar   20  PHE20      -0.0003
     20  CZ        86.4590   31.5590   69.9340 C.ar   20  PHE20      -0.0000
     21  N         78.9350   26.5990   78.2370 N.3    96  ASP96      -0.1239
     22  CA        79.6830   27.3640   77.2290 C.3    96  ASP96       0.1674
     23  C         81.1770   27.4980   77.5390 C.2    96  ASP96       0.2266
     24  O         81.9630   27.7550   76.6230 O.2    96  ASP96      -0.2867
     25  CB        79.0780   28.7760   77.0480 C.3    96  ASP96       0.1410
     26  CG        77.6950   28.8760   76.4220 C.2    96  ASP96       0.3668
     27  OD1       77.2840   27.9230   75.7200 O.co2  96  ASP96      -0.2456
     28  OD2       77.0540   29.9470   76.5700 O.co2  96  ASP96      -0.2456
     29  N         89.6030   38.2920   74.6870 N.3   136  TRP136     -0.1227
     30  CA        88.5500   37.5560   75.4100 C.3   136  TRP136      0.1737
     31  C         87.6630   38.4520   76.2680 C.2   136  TRP136      0.2595
     32  O         87.6860   38.4360   77.4920 O.2   136  TRP136     -0.2718
     33  CB        89.1300   36.2800   76.0590 C.3   136  TRP136      0.0564
     34  CG        89.9240   35.4950   75.0420 C.ar  136  TRP136      0.0003
     35  CD1       91.2820   35.3770   74.9850 C.ar  136  TRP136      0.0946
     36  CD2       89.4220   34.9250   73.8170 C.ar  136  TRP136      0.0152
     37  NE1       91.6540   34.6820   73.8470 N.ar  136  TRP136     -0.2442
     38  CE2       90.5290   34.3900   73.1160 C.ar  136  TRP136      0.0810
     39  CE3       88.1340   34.7710   73.2650 C.ar  136  TRP136      0.0012
     40  CZ2       90.3870   33.6810   71.9110 C.ar  136  TRP136      0.0191
     41  CZ3       88.0010   34.1010   72.0540 C.ar  136  TRP136      0.0001
     42  CH2       89.1220   33.5650   71.3920 C.ar  136  TRP136      0.0015
     43  N         86.8860   39.2770   75.5570 N.am  137  HIS137     -0.1961
     44  CA        86.0610   40.3630   76.0700 C.3   137  HIS137      0.1787
     45  C         84.8820   40.0240   76.9860 C.2   137  HIS137      0.2620
     46  O         84.3620   40.9240   77.6230 O.2   137  HIS137     -0.2715
     47  CB        85.6290   41.2870   74.8900 C.3   137  HIS137      0.0785
     48  CG        84.7330   40.6600   73.8570 C.ar  137  HIS137      0.0821
     49  ND1       84.0060   41.4490   72.9640 N.ar  137  HIS137     -0.2267
     50  CD2       84.4940   39.3590   73.5720 C.ar  137  HIS137      0.1154
     51  CE1       83.3590   40.6040   72.1820 C.ar  137  HIS137      0.1986
     52  NE2       83.6010   39.3360   72.5250 N.ar  137  HIS137     -0.2212
     53  N         84.4250   38.7670   77.0330 N.am  138  HIS138     -0.1973
     54  CA        83.2440   38.4420   77.8370 C.3   138  HIS138      0.1656
     55  C         83.5400   38.0540   79.2690 C.2   138  HIS138      0.2291
     56  O         82.6190   38.0090   80.0650 O.2   138  HIS138     -0.2864
     57  CB        82.3970   37.3320   77.1840 C.3   138  HIS138      0.0771
     58  CG        81.9010   37.6450   75.8130 C.ar  138  HIS138      0.0820
     59  ND1       81.1400   38.7790   75.5590 N.ar  138  HIS138     -0.2267
     60  CD2       82.0130   36.9270   74.6730 C.ar  138  HIS138      0.1154
     61  CE1       80.8610   38.7400   74.2640 C.ar  138  HIS138      0.1986
     62  NE2       81.3810   37.6570   73.6850 N.ar  138  HIS138     -0.2212
     63  N         80.9900   33.0740   77.5110 N.3   146  GLY146     -0.1210
     64  CA        81.1740   32.9540   76.0610 C.3   146  GLY146      0.1956
     65  C         82.5530   32.4940   75.6300 C.2   146  GLY146      0.2612
     66  O         83.1640   33.1110   74.7570 O.2   146  GLY146     -0.2717
     67  N         83.0320   31.3910   76.2280 N.am  147  PHE147     -0.1962
     68  CA        84.3790   30.8100   76.0390 C.3   147  PHE147      0.1771
     69  C         85.5350   31.7470   76.4500 C.2   147  PHE147      0.2619
     70  O         86.6700   31.5630   76.0120 O.2   147  PHE147     -0.2715
     71  CB        84.5930   30.1070   74.6580 C.3   147  PHE147      0.0574
     72  CG        85.5430   28.9230   74.7710 C.ar  147  PHE147     -0.0200
     73  CD1       85.1080   27.7070   75.2820 C.ar  147  PHE147     -0.0042
     74  CD2       86.8880   29.0470   74.4210 C.ar  147  PHE147     -0.0042
     75  CE1       85.9930   26.6300   75.4150 C.ar  147  PHE147     -0.0003
     76  CE2       87.7710   27.9860   74.5850 C.ar  147  PHE147     -0.0003
     77  CZ        87.3150   26.7770   75.0750 C.ar  147  PHE147     -0.0000
     78  N         85.2410   32.7560   77.2860 N.am  148  CYS148     -0.1968
     79  CA        86.2430   33.7000   77.8180 C.3   148  CYS148      0.1712
     80  C         86.3780   33.3660   79.3090 C.2   148  CYS148      0.2296
     81  O         85.3710   33.3990   80.0350 O.2   148  CYS148     -0.2864
     82  CB        85.8160   35.1600   77.6080 C.3   148  CYS148      0.0983
     83  SG        85.5110   35.6270   75.8820 S.3   148  CYS148     -0.0798
     84  N         83.9260   43.1940   67.3830 N.3   173  ASP173     -0.1239
     85  CA        83.3690   41.8560   67.3870 C.3   173  ASP173      0.1674
     86  C         81.8540   41.8930   67.1970 C.2   173  ASP173      0.2266
     87  O         81.2110   42.8610   67.5910 O.2   173  ASP173     -0.2867
     88  CB        83.7080   41.1950   68.7170 C.3   173  ASP173      0.1410
     89  CG        83.4470   39.7050   68.7720 C.2   173  ASP173      0.3668
     90  OD1       82.2900   39.3180   69.0180 O.co2 173  ASP173     -0.2456
     91  OD2       84.4160   38.9410   68.7130 O.co2 173  ASP173     -0.2456
     92  N         79.6410   40.4340   68.8500 N.3   175  HIS175     -0.1241
     93  CA        79.0190   40.4580   70.1640 C.3   175  HIS175      0.1621
     94  C         79.4170   41.6810   70.9630 C.2   175  HIS175      0.2264
     95  O         80.5140   42.1950   70.8090 O.2   175  HIS175     -0.2867
     96  CB        79.3640   39.1600   70.9300 C.3   175  HIS175      0.0745
     97  CG        78.9190   37.9190   70.2100 C.ar  175  HIS175      0.0817
     98  ND1       79.7530   37.2530   69.3330 N.ar  175  HIS175     -0.2268
     99  CD2       77.7480   37.2430   70.2950 C.ar  175  HIS175      0.1154
    100  CE1       79.0690   36.1980   68.9080 C.ar  175  HIS175      0.1986
    101  NE2       77.8600   36.1470   69.4730 N.ar  175  HIS175     -0.2212
    102  N         73.2910   36.3850   72.3120 N.3   203  PHE203     -0.1241
    103  CA        74.3540   36.5370   73.3220 C.3   203  PHE203      0.1605
    104  C         75.1600   37.8410   73.1870 C.2   203  PHE203      0.2264
    105  O         75.4940   38.2020   72.0730 O.2   203  PHE203     -0.2867
    106  CB        75.3050   35.3140   73.2600 C.3   203  PHE203      0.0534
    107  CG        76.3850   35.3120   74.3210 C.ar  203  PHE203     -0.0203
    108  CD1       76.1570   34.7370   75.5650 C.ar  203  PHE203     -0.0042
    109  CD2       77.6180   35.9060   74.0820 C.ar  203  PHE203     -0.0042
    110  CE1       77.1520   34.7480   76.5460 C.ar  203  PHE203     -0.0003
    111  CE2       78.6000   35.9310   75.0660 C.ar  203  PHE203     -0.0003
    112  CZ        78.3630   35.3420   76.2860 C.ar  203  PHE203     -0.0000
    113  N         83.9480   37.4590   63.7730 N.3   265  ASP265     -0.1239
    114  CA        82.6150   36.8940   63.6090 C.3   265  ASP265      0.1674
    115  C         81.6170   37.7310   62.8150 C.2   265  ASP265      0.2266
    116  O         80.4990   37.2580   62.5960 O.2   265  ASP265     -0.2867
    117  CB        82.0280   36.3570   64.9320 C.3   265  ASP265      0.1410
    118  CG        82.4000   37.1570   66.1600 C.2   265  ASP265      0.3668
    119  OD1       82.8170   38.3250   66.0060 O.co2 265  ASP265     -0.2456
    120  OD2       82.3230   36.6020   67.2650 O.co2 265  ASP265     -0.2456
    121  N         77.8460   32.2520   62.3010 N.3   272  HIS272     -0.1241
    122  CA        76.7580   33.0100   62.9480 C.3   272  HIS272      0.1621
    123  C         75.8180   33.5530   61.8620 C.2   272  HIS272      0.2264
    124  O         74.6100   33.6120   62.0770 O.2   272  HIS272     -0.2867
    125  CB        77.2920   34.1860   63.7930 C.3   272  HIS272      0.0745
    126  CG        77.8970   33.7940   65.1070 C.ar  272  HIS272      0.0817
    127  ND1       79.2640   33.6050   65.2460 N.ar  272  HIS272     -0.2268
    128  CD2       77.3060   33.6290   66.3150 C.ar  272  HIS272      0.1154
    129  CE1       79.4560   33.3120   66.5250 C.ar  272  HIS272      0.1986
    130  NE2       78.3040   33.2970   67.2030 N.ar  272  HIS272     -0.2212
    131  N         86.3590   36.6170   68.6440 N.3   312  GLY312     -0.1210
    132  CA        85.4770   35.6410   68.0060 C.3   312  GLY312      0.1956
    133  C         85.8140   35.3590   66.5620 C.2   312  GLY312      0.2612
    134  O         86.5640   36.1110   65.9380 O.2   312  GLY312     -0.2717
    135  N         85.2480   34.2760   66.0420 N.am  313  GLY313     -0.1942
    136  CA        85.4370   33.8460   64.6590 C.3   313  GLY313      0.2014
    137  C         85.5720   32.3410   64.6060 C.2   313  GLY313      0.2638
    138  O         86.6290   31.8080   64.9370 O.2   313  GLY313     -0.2714
    139  N         84.4820   31.6460   64.2210 N.am  314  TYR314     -0.1973
    140  CA        84.4150   30.1830   64.1550 C.3   314  TYR314      0.1639
    141  C         84.8260   29.6120   62.7950 C.2   314  TYR314      0.2290
    142  O         85.0130   28.4050   62.6860 O.2   314  TYR314     -0.2864
    143  CB        83.0010   29.6790   64.4930 C.3   314  TYR314      0.0560
    144  CG        82.5590   29.7740   65.9370 C.ar  314  TYR314     -0.0198
    145  CD1       83.4910   29.8310   66.9730 C.ar  314  TYR314     -0.0009
    146  CD2       81.2090   29.6920   66.2770 C.ar  314  TYR314     -0.0009
    147  CE1       83.0860   29.8970   68.3080 C.ar  314  TYR314      0.0417
    148  CE2       80.7950   29.7220   67.6110 C.ar  314  TYR314      0.0417
    149  CZ        81.7370   29.8380   68.6210 C.ar  314  TYR314      0.1957
    150  OH        81.3300   29.8640   69.9290 O.3   314  TYR314     -0.2866
@<TRIPOS>BOND
     1   123   124    2
     2   123   122    1
     3   121   122    1
     4   116   115    2
     5   142   141    2
     6   141   140    1
     7   115   114    1
     8   122   125    1
     9   114   113    1
    10   114   117    1
    11   125   126    1
    12   140   139    1
    13   140   143    1
    14   139   137   am
    15   143   144    1
    16   137   136    1
    17   137   138    2
    18   136   135    1
    19   117   118    1
    20   126   127   ar
    21   126   128   ar
    22   127   129   ar
    23   144   146   ar
    24   144   145   ar
    25   134   133    2
    26   119   118   ar
    27   135   133   am
    28   118   120   ar
    29   146   148   ar
    30   128   130   ar
    31   129   130   ar
    32   133   132    1
    33   145   147   ar
    34    86    85    1
    35    86    87    2
    36    13    12    2
    37    84    85    1
    38    85    88    1
    39   148   149   ar
    40   132   131    1
    41    12    11    1
    42   147   149   ar
    43    16    18   ar
    44    16    15   ar
    45   149   150    1
    46     4     3    2
    47    18    20   ar
    48    91    89   ar
    49    88    89    1
    50    89    90   ar
    51    92    93    1
    52   100    98   ar
    53   100   101   ar
    54    11    14    1
    55    11    10    1
    56    98    97   ar
    57   101    99   ar
    58    14    15    1
    59    15    17   ar
    60     3    10   am
    61     3     2    1
    62    20    19   ar
    63    93    96    1
    64    93    94    1
    65    97    99   ar
    66    97    96    1
    67    95    94    2
    68     2     1    1
    69     2     5    1
    70    17    19   ar
    71     6     5    1
    72     6     7    1
    73    42    40   ar
    74    42    41   ar
    75    40    38   ar
    76     7     8    1
    77    41    39   ar
    78   105   104    2
    79    51    52   ar
    80    51    49   ar
    81   102   103    1
    82    52    50   ar
    83     8     9    1
    84    49    48   ar
    85    38    36   ar
    86    38    37   ar
    87   104   103    1
    88   106   103    1
    89   106   107    1
    90    39    36   ar
    91    50    48   ar
    92    62    61   ar
    93    62    60   ar
    94    36    34   ar
    95    37    35   ar
    96    48    47    1
    97   109   107   ar
    98   109   111   ar
    99    61    59   ar
   100   107   108   ar
   101    74    76   ar
   102    74    72   ar
   103    76    77   ar
   104    71    72    1
   105    71    68    1
   106    60    58   ar
   107    29    30    1
   108    66    65    2
   109    72    73   ar
   110    47    44    1
   111    35    34   ar
   112    34    33    1
   113   111   112   ar
   114    77    75   ar
   115    73    75   ar
   116    30    33    1
   117    30    31    1
   118    43    44    1
   119    43    31   am
   120    59    58   ar
   121   108   110   ar
   122    65    64    1
   123    65    67   am
   124    27    26   ar
   125    58    57    1
   126    83    82    1
   127    70    69    2
   128    68    67    1
   129    68    69    1
   130    64    63    1
   131    44    45    1
   132    31    32    2
   133   112   110   ar
   134    26    28   ar
   135    26    25    1
   136    69    78   am
   137    24    23    2
   138    45    53   am
   139    45    46    2
   140    53    54    1
   141    25    22    1
   142    57    54    1
   143    22    23    1
   144    22    21    1
   145    78    79    1
   146    82    79    1
   147    79    80    1
   148    54    55    1
   149    55    56    2
   150    80    81    2
