@<TRIPOS>MOLECULE
tmp/4bzbC03.pdb
 236 222 0 0 0
SMALL
GASTEIGER

@<TRIPOS>ATOM
      1  N         14.4630  -13.2460  -35.7940 N.3    37  GLN37      -0.1231
      2  CA        13.3510  -13.6980  -34.9690 C.3    37  GLN37       0.1698
      3  C         12.0610  -12.9500  -35.2820 C.2    37  GLN37       0.2592
      4  O         11.0030  -13.5670  -35.4060 O.2    37  GLN37      -0.2718
      5  CB        13.6970  -13.5140  -33.4880 C.3    37  GLN37       0.0381
      6  CG        12.6160  -13.9630  -32.5120 C.3    37  GLN37       0.0905
      7  CD        12.6050  -15.4590  -32.2470 C.2    37  GLN37       0.2608
      8  OE1       13.4680  -16.2050  -32.7190 O.2    37  GLN37      -0.2717
      9  NE2       11.6210  -15.9050  -31.4680 N.am   37  GLN37      -0.0878
     10  N         12.1550  -11.6250  -35.4040 N.am   38  LEU38      -0.1980
     11  CA        10.9700  -10.7700  -35.5560 C.3    38  LEU38       0.1596
     12  C         10.8040  -10.1840  -36.9670 C.2    38  LEU38       0.2287
     13  O          9.9660   -9.3080  -37.1800 O.2    38  LEU38      -0.2864
     14  CB        10.9830   -9.6450  -34.5090 C.3    38  LEU38       0.0297
     15  CG        11.0950  -10.1100  -33.0520 C.3    38  LEU38       0.0022
     16  CD1       11.0260   -8.9300  -32.0930 C.3    38  LEU38       0.0001
     17  CD2       10.0030  -11.1160  -32.7280 C.3    38  LEU38       0.0001
     18  N         10.0760   -6.5190  -37.9960 N.3    41  GLY41      -0.1225
     19  CA        10.1260   -5.7870  -36.7290 C.3    41  GLY41       0.1811
     20  C         11.4290   -5.0280  -36.5170 C.2    41  GLY41       0.2280
     21  O         11.4370   -3.9560  -35.9030 O.2    41  GLY41      -0.2866
     22  N         16.9130  -16.5290  -34.9570 N.3    52  ARG52      -0.1245
     23  CA        16.3040  -17.7560  -34.4620 C.3    52  ARG52       0.1563
     24  C         17.3000  -18.6720  -33.7520 C.2    52  ARG52       0.2260
     25  O         16.9100  -19.4630  -32.9010 O.2    52  ARG52      -0.2867
     26  CB        15.6260  -18.5130  -35.6110 C.3    52  ARG52       0.0307
     27  CG        14.3460  -17.8650  -36.1020 C.3    52  ARG52       0.0489
     28  CD        13.1510  -18.2740  -35.2600 C.3    52  ARG52       0.2205
     29  NE        12.0950  -17.2760  -35.3520 N.pl3  52  ARG52      -0.0865
     30  CZ        10.9700  -17.2870  -34.6470 C.cat  52  ARG52       0.5346
     31  NH1       10.7050  -18.2680  -33.7820 N.pl3  52  ARG52       0.1354
     32  NH2       10.1010  -16.2970  -34.8090 N.pl3  52  ARG52       0.1354
     33  N         17.6340  -17.7670  -29.9510 N.3    55  HIS55      -0.1241
     34  CA        16.3570  -18.1640  -29.3790 C.3    55  HIS55       0.1621
     35  C         16.3010  -19.6830  -29.1630 C.2    55  HIS55       0.2264
     36  O         15.8850  -20.1470  -28.1000 O.2    55  HIS55      -0.2867
     37  CB        15.2160  -17.6920  -30.2830 C.3    55  HIS55       0.0745
     38  CG        13.8740  -18.2480  -29.9250 C.ar   55  HIS55       0.0817
     39  ND1       13.3200  -18.1170  -28.6700 N.ar   55  HIS55      -0.2268
     40  CD2       12.9630  -18.9200  -30.6700 C.ar   55  HIS55       0.1154
     41  CE1       12.1280  -18.6890  -28.6550 C.ar   55  HIS55       0.1986
     42  NE2       11.8880  -19.1840  -29.8560 N.ar   55  HIS55      -0.2212
     43  N         13.0510  -27.0860  -32.1870 N.3    94  ARG94      -0.1231
     44  CA        11.6840  -26.7360  -32.5610 C.3    94  ARG94       0.1694
     45  C         11.5650  -25.4580  -33.3970 C.2    94  ARG94       0.2592
     46  O         10.4710  -25.1000  -33.8030 O.2    94  ARG94      -0.2718
     47  CB        10.7640  -26.6600  -31.3400 C.3    94  ARG94       0.0321
     48  CG        11.0530  -25.5290  -30.3700 C.3    94  ARG94       0.0489
     49  CD         9.7720  -25.0880  -29.6830 C.3    94  ARG94       0.2205
     50  NE         8.9510  -24.2550  -30.5580 N.pl3  94  ARG94      -0.0865
     51  CZ         7.7160  -23.8470  -30.2790 C.cat  94  ARG94       0.5346
     52  NH1        7.1290  -24.1970  -29.1420 N.pl3  94  ARG94       0.1354
     53  NH2        7.0680  -23.0750  -31.1500 N.pl3  94  ARG94       0.1354
     54  N         12.6690  -24.7650  -33.6590 N.am   95  ASN95      -0.1974
     55  CA        12.6250  -23.6070  -34.5480 C.3    95  ASN95       0.1688
     56  C         13.3240  -23.8510  -35.8880 C.2    95  ASN95       0.2292
     57  O         13.4500  -22.9340  -36.6930 O.2    95  ASN95      -0.2864
     58  CB        13.1980  -22.3720  -33.8460 C.3    95  ASN95       0.1181
     59  CG        12.2110  -21.7480  -32.8820 C.2    95  ASN95       0.2629
     60  OD1       11.3830  -20.9200  -33.2720 O.2    95  ASN95      -0.2716
     61  ND2       12.2820  -22.1500  -31.6170 N.am   95  ASN95      -0.0877
     62  N         11.6910  -22.6180  -39.4810 N.3    98  HIS98      -0.1241
     63  CA        11.4070  -21.2420  -39.8580 C.3    98  HIS98       0.1621
     64  C         12.1140  -20.8490  -41.1430 C.2    98  HIS98       0.2264
     65  O         13.1900  -21.3540  -41.4620 O.2    98  HIS98      -0.2867
     66  CB        11.7400  -20.2730  -38.7230 C.3    98  HIS98       0.0745
     67  CG        10.6500  -20.1720  -37.7100 C.ar   98  HIS98       0.0817
     68  ND1        9.4730  -19.4980  -37.9560 N.ar   98  HIS98      -0.2268
     69  CD2       10.5280  -20.7070  -36.4730 C.ar   98  HIS98       0.1154
     70  CE1        8.6850  -19.5960  -36.9010 C.ar   98  HIS98       0.1986
     71  NE2        9.3020  -20.3240  -35.9880 N.ar   98  HIS98      -0.2212
     72  N          7.9530  -15.3700  -39.1950 N.3   103  HIS103     -0.1241
     73  CA         6.5040  -15.4600  -39.3570 C.3   103  HIS103      0.1621
     74  C          6.0340  -15.0180  -40.7350 C.2   103  HIS103      0.2264
     75  O          5.0670  -15.5520  -41.2730 O.2   103  HIS103     -0.2867
     76  CB         5.8010  -14.6060  -38.3170 C.3   103  HIS103      0.0745
     77  CG         4.3990  -14.2430  -38.6900 C.ar  103  HIS103      0.0817
     78  ND1        3.3120  -15.0150  -38.3360 N.ar  103  HIS103     -0.2268
     79  CD2        3.9070  -13.2020  -39.4040 C.ar  103  HIS103      0.1154
     80  CE1        2.2090  -14.4580  -38.8060 C.ar  103  HIS103      0.1986
     81  NE2        2.5420  -13.3570  -39.4570 N.ar  103  HIS103     -0.2212
     82  N          5.8940  -18.1380  -43.2060 N.3   106  ASP106     -0.1239
     83  CA         4.7780  -19.0690  -43.0010 C.3   106  ASP106      0.1674
     84  C          3.4450  -18.3300  -42.9020 C.2   106  ASP106      0.2266
     85  O          2.4160  -18.8540  -43.3160 O.2   106  ASP106     -0.2867
     86  CB         4.9970  -19.9760  -41.7720 C.3   106  ASP106      0.1410
     87  CG         5.0850  -19.2080  -40.4610 C.2   106  ASP106      0.3668
     88  OD1        5.6470  -18.0970  -40.4450 O.co2 106  ASP106     -0.2456
     89  OD2        4.6070  -19.7300  -39.4320 O.co2 106  ASP106     -0.2456
     90  N          2.6340  -15.1550  -44.2710 N.3   108  ARG108     -0.1245
     91  CA         2.2490  -14.2970  -45.3950 C.3   108  ARG108      0.1563
     92  C          2.6570  -14.8540  -46.7520 C.2   108  ARG108      0.2260
     93  O          1.8240  -14.9520  -47.6480 O.2   108  ARG108     -0.2867
     94  CB         2.8300  -12.8860  -45.2240 C.3   108  ARG108      0.0307
     95  CG         2.1870  -12.0790  -44.1060 C.3   108  ARG108      0.0489
     96  CD         2.8310  -10.7100  -43.9620 C.3   108  ARG108      0.2205
     97  NE         2.3750  -10.0310  -42.7520 N.pl3 108  ARG108     -0.0865
     98  CZ         1.2440   -9.3340  -42.6420 C.cat 108  ARG108      0.5346
     99  NH1        0.4120   -9.2020  -43.6710 N.pl3 108  ARG108      0.1354
    100  NH2        0.9390   -8.7680  -41.4790 N.pl3 108  ARG108      0.1354
    101  N          5.6390  -24.0180  -39.6760 N.3   121  HIS121     -0.1226
    102  CA         7.0280  -24.0880  -39.2400 C.3   121  HIS121      0.1752
    103  C          7.2760  -25.3860  -38.4650 C.2   121  HIS121      0.2595
    104  O          8.3630  -25.9530  -38.5450 O.2   121  HIS121     -0.2718
    105  CB         7.4640  -22.8300  -38.4540 C.3   121  HIS121      0.0759
    106  CG         6.7870  -22.6460  -37.1290 C.ar  121  HIS121      0.0818
    107  ND1        5.8220  -21.6850  -36.9140 N.ar  121  HIS121     -0.2268
    108  CD2        6.9690  -23.2670  -35.9390 C.ar  121  HIS121      0.1154
    109  CE1        5.4220  -21.7370  -35.6560 C.ar  121  HIS121      0.1986
    110  NE2        6.1020  -22.6900  -35.0420 N.ar  121  HIS121     -0.2212
    111  N          6.2580  -25.8730  -37.7560 N.am  122  GLU122     -0.1979
    112  CA         6.3800  -27.1210  -36.9900 C.3   122  GLU122      0.1602
    113  C          6.7080  -28.3070  -37.8970 C.2   122  GLU122      0.2287
    114  O          7.5880  -29.1110  -37.5900 O.2   122  GLU122     -0.2864
    115  CB         5.0960  -27.4320  -36.2100 C.3   122  GLU122      0.0415
    116  CG         4.8040  -26.5000  -35.0400 C.3   122  GLU122      0.1163
    117  CD         3.8940  -25.3350  -35.4000 C.2   122  GLU122      0.3649
    118  OE1        3.7720  -24.9950  -36.5950 O.co2 122  GLU122     -0.2457
    119  OE2        3.2940  -24.7470  -34.4810 O.co2 122  GLU122     -0.2457
    120  N          6.5420  -27.7460  -26.6030 N.3   184  SER184     -0.1217
    121  CA         5.4300  -27.1660  -27.3350 C.3   184  SER184      0.1889
    122  C          4.1370  -27.7190  -26.7690 C.2   184  SER184      0.2288
    123  O          3.7420  -28.8430  -27.0670 O.2   184  SER184     -0.2866
    124  CB         5.5430  -27.4590  -28.8260 C.3   184  SER184      0.2089
    125  OG         4.4540  -26.8780  -29.5220 O.3   184  SER184     -0.2183
    126  N          4.4930  -23.1210  -22.4570 N.3   191  ASP191     -0.1239
    127  CA         5.7180  -23.8620  -22.7210 C.3   191  ASP191      0.1674
    128  C          6.9440  -22.9580  -22.6940 C.2   191  ASP191      0.2266
    129  O          6.8320  -21.7270  -22.6500 O.2   191  ASP191     -0.2867
    130  CB         5.6170  -24.6360  -24.0430 C.3   191  ASP191      0.1410
    131  CG         5.2370  -23.7610  -25.2240 C.2   191  ASP191      0.3668
    132  OD1        5.8700  -22.7020  -25.4270 O.co2 191  ASP191     -0.2456
    133  OD2        4.3190  -24.1620  -25.9780 O.co2 191  ASP191     -0.2456
    134  N          9.1600  -22.3070  -24.8780 N.3   193  ASP193     -0.1225
    135  CA         9.4090  -21.5120  -26.0730 C.3   193  ASP193      0.1805
    136  C          8.9260  -20.0690  -25.8780 C.2   193  ASP193      0.2597
    137  O          9.6580  -19.1210  -26.1740 O.2   193  ASP193     -0.2718
    138  CB         8.7430  -22.1510  -27.2940 C.3   193  ASP193      0.1424
    139  CG         8.9700  -21.3620  -28.5580 C.2   193  ASP193      0.3668
    140  OD1       10.0170  -21.5600  -29.2150 O.co2 193  ASP193     -0.2456
    141  OD2        8.0880  -20.5470  -28.9030 O.co2 193  ASP193     -0.2456
    142  N          7.7010  -19.9170  -25.3770 N.am  194  LYS194     -0.1979
    143  CA         7.1670  -18.6090  -25.0000 C.3   194  LYS194      0.1596
    144  C          8.0610  -17.9120  -23.9860 C.2   194  LYS194      0.2287
    145  O          8.3470  -16.7310  -24.1140 O.2   194  LYS194     -0.2864
    146  CB         5.7650  -18.7350  -24.4020 C.3   194  LYS194      0.0298
    147  CG         4.6630  -18.9350  -25.4250 C.3   194  LYS194      0.0038
    148  CD         3.2980  -18.7800  -24.7700 C.3   194  LYS194      0.0206
    149  CE         2.1640  -18.9320  -25.7710 C.3   194  LYS194      0.1093
    150  NZ         2.0990  -20.3020  -26.3360 N.3   194  LYS194     -0.1314
    151  N         11.1650  -16.4130  -25.6850 N.3   197  TYR197     -0.1241
    152  CA        10.9400  -15.2560  -26.5580 C.3   197  TYR197      0.1605
    153  C         10.4060  -14.0290  -25.8100 C.2   197  TYR197      0.2264
    154  O         10.7530  -12.9130  -26.1680 O.2   197  TYR197     -0.2867
    155  CB        10.1480  -15.5900  -27.8370 C.3   197  TYR197      0.0534
    156  CG         8.6320  -15.6390  -27.7680 C.ar  197  TYR197     -0.0201
    157  CD1        7.8760  -14.4880  -27.5350 C.ar  197  TYR197     -0.0009
    158  CD2        7.9520  -16.8270  -28.0360 C.ar  197  TYR197     -0.0009
    159  CE1        6.4930  -14.5350  -27.5030 C.ar  197  TYR197      0.0417
    160  CE2        6.5680  -16.8810  -28.0140 C.ar  197  TYR197      0.0417
    161  CZ         5.8470  -15.7300  -27.7480 C.ar  197  TYR197      0.1957
    162  OH         4.4800  -15.7700  -27.7190 O.3   197  TYR197     -0.2866
    163  N         12.9210  -11.2520  -26.6950 N.3   201  ASP201     -0.1239
    164  CA        12.3430  -10.1750  -27.5030 C.3   201  ASP201      0.1674
    165  C         12.3110   -8.8660  -26.7080 C.2   201  ASP201      0.2266
    166  O         12.6380   -7.8060  -27.2420 O.2   201  ASP201     -0.2867
    167  CB        10.9300  -10.5130  -27.9940 C.3   201  ASP201      0.1410
    168  CG        10.8960  -11.6860  -28.9730 C.2   201  ASP201      0.3668
    169  OD1       11.9630  -12.1250  -29.4530 O.co2 201  ASP201     -0.2456
    170  OD2        9.7830  -12.1680  -29.2740 O.co2 201  ASP201     -0.2456
    171  N          1.8660  -11.7490  -23.5500 N.3   248  ARG248     -0.1245
    172  CA         1.9160  -12.1520  -24.9510 C.3   248  ARG248      0.1563
    173  C          1.0930  -11.2180  -25.8360 C.2   248  ARG248      0.2260
    174  O          1.5540  -10.7880  -26.8920 O.2   248  ARG248     -0.2867
    175  CB         1.4220  -13.5860  -25.1020 C.3   248  ARG248      0.0307
    176  CG         1.4350  -14.1120  -26.5230 C.3   248  ARG248      0.0489
    177  CD         1.1590  -15.6040  -26.5100 C.3   248  ARG248      0.2205
    178  NE         0.9680  -16.1490  -27.8460 N.pl3 248  ARG248     -0.0865
    179  CZ        -0.1720  -16.1070  -28.5350 C.cat 248  ARG248      0.5346
    180  NH1       -1.2640  -15.5280  -28.0310 N.pl3 248  ARG248      0.1354
    181  NH2       -0.2170  -16.6490  -29.7450 N.pl3 248  ARG248      0.1354
    182  N          2.4140   -8.5710  -28.7940 N.3   252  HIS252     -0.1241
    183  CA         1.8170   -8.5180  -30.1180 C.3   252  HIS252      0.1621
    184  C          1.3290   -7.1160  -30.4500 C.2   252  HIS252      0.2264
    185  O          1.5910   -6.6100  -31.5400 O.2   252  HIS252     -0.2867
    186  CB         0.6900   -9.5410  -30.2510 C.3   252  HIS252      0.0745
    187  CG         1.1760  -10.8900  -30.6670 C.ar  252  HIS252      0.0817
    188  ND1        1.4270  -11.2060  -31.9830 N.ar  252  HIS252     -0.2268
    189  CD2        1.5090  -11.9870  -29.9470 C.ar  252  HIS252      0.1154
    190  CE1        1.8680  -12.4470  -32.0620 C.ar  252  HIS252      0.1986
    191  NE2        1.9330  -12.9420  -30.8380 N.ar  252  HIS252     -0.2212
    192  N          4.9600   -7.0600  -32.3040 N.3   256  TYR256     -0.1227
    193  CA         4.8590   -8.0380  -33.3820 C.3   256  TYR256      0.1736
    194  C          3.8450   -7.6300  -34.4550 C.2   256  TYR256      0.2595
    195  O          4.0450   -7.9320  -35.6300 O.2   256  TYR256     -0.2718
    196  CB         4.5150   -9.4370  -32.8630 C.3   256  TYR256      0.0548
    197  CG         5.3260   -9.9030  -31.6650 C.ar  256  TYR256     -0.0200
    198  CD1        6.6790   -9.5880  -31.5320 C.ar  256  TYR256     -0.0009
    199  CD2        4.7410  -10.6870  -30.6850 C.ar  256  TYR256     -0.0009
    200  CE1        7.4110  -10.0250  -30.4370 C.ar  256  TYR256      0.0417
    201  CE2        5.4620  -11.1310  -29.5920 C.ar  256  TYR256      0.0417
    202  CZ         6.7950  -10.8000  -29.4720 C.ar  256  TYR256      0.1957
    203  OH         7.4930  -11.2530  -28.3760 O.3   256  TYR256     -0.2866
    204  N          2.7700   -6.9580  -34.0420 N.am  257  GLN257     -0.1979
    205  CA         1.7450   -6.4710  -34.9660 C.3   257  GLN257      0.1601
    206  C          1.8340   -4.9610  -35.1840 C.2   257  GLN257      0.2287
    207  O          0.8560   -4.3260  -35.5940 O.2   257  GLN257     -0.2864
    208  CB         0.3440   -6.8360  -34.4480 C.3   257  GLN257      0.0394
    209  CG         0.1540   -8.3190  -34.1570 C.3   257  GLN257      0.0908
    210  CD         0.5290   -9.1900  -35.3450 C.2   257  GLN257      0.2608
    211  OE1        0.3520   -8.7900  -36.4960 O.2   257  GLN257     -0.2717
    212  NE2        1.0590  -10.3790  -35.0750 N.am  257  GLN257     -0.0878
    213  N          5.6770   -2.3350  -39.0300 N.3   261  GLY261     -0.1210
    214  CA         6.3680   -3.6130  -39.1630 C.3   261  GLY261      0.1956
    215  C          5.5910   -4.5440  -40.0710 C.2   261  GLY261      0.2611
    216  O          6.1630   -5.2250  -40.9220 O.2   261  GLY261     -0.2717
    217  N          4.2730   -4.5520  -39.9040 N.am  262  ASN262     -0.1974
    218  CA         3.4100   -5.3730  -40.7340 C.3   262  ASN262      0.1688
    219  C          3.4310   -4.9460  -42.1960 C.2   262  ASN262      0.2292
    220  O          3.4530   -5.7940  -43.0890 O.2   262  ASN262     -0.2864
    221  CB         1.9790   -5.3760  -40.1890 C.3   262  ASN262      0.1181
    222  CG         1.8210   -6.2890  -38.9820 C.2   262  ASN262      0.2629
    223  OD1        2.8030   -6.7720  -38.4140 O.2   262  ASN262     -0.2716
    224  ND2        0.5800   -6.5430  -38.5940 N.am  262  ASN262     -0.0877
    225  N          6.6230   -6.0530  -43.7210 N.3   265  ASP265     -0.1239
    226  CA         6.5160   -7.4930  -43.9760 C.3   265  ASP265      0.1674
    227  C          5.6890   -7.7380  -45.2420 C.2   265  ASP265      0.2266
    228  O          6.0240   -8.5980  -46.0550 O.2   265  ASP265     -0.2867
    229  CB         5.8820   -8.2260  -42.7870 C.3   265  ASP265      0.1410
    230  CG         6.9040   -8.6230  -41.7110 C.2   265  ASP265      0.3668
    231  OD1        8.1260   -8.4490  -41.9170 O.co2 265  ASP265     -0.2456
    232  OD2        6.4730   -9.1210  -40.6500 O.co2 265  ASP265     -0.2456
    233  N         -4.2530  -17.8780  -27.7390 N.3   390  GLY390     -0.1225
    234  CA        -3.6140  -19.0700  -28.2780 C.3   390  GLY390      0.1811
    235  C         -4.5170  -20.2670  -28.5030 C.2   390  GLY390      0.2280
    236  O         -4.0630  -21.2790  -29.0220 O.2   390  GLY390     -0.2866
@<TRIPOS>BOND
     1    93    92    2
     2    92    91    1
     3   228   227    2
     4    91    94    1
     5    91    90    1
     6   227   226    1
     7    94    95    1
     8    95    96    1
     9   226   225    1
    10   226   229    1
    11    96    97    1
    12    99    98    1
    13    85    84    2
    14    82    83    1
    15   220   219    2
    16    83    84    1
    17    83    86    1
    18   229   230    1
    19    97    98    2
    20    98   100    1
    21   219   218    1
    22   231   230   ar
    23    86    87    1
    24   230   232   ar
    25    65    64    2
    26    75    74    2
    27    64    63    1
    28   216   215    2
    29    74    73    1
    30   218   221    1
    31   218   217    1
    32    87    88   ar
    33    87    89   ar
    34   221   222    1
    35   215   217   am
    36   215   214    1
    37    63    62    1
    38    63    66    1
    39   101   102    1
    40    81    79   ar
    41    81    80   ar
    42    79    77   ar
    43    73    72    1
    44    73    76    1
    45   102   103    1
    46   102   105    1
    47   214   213    1
    48   222   224   am
    49   222   223    2
    50    80    78   ar
    51    66    67    1
    52    77    78   ar
    53    77    76    1
    54   104   103    2
    55   103   111   am
    56   105   106    1
    57    18    19    1
    58    68    67   ar
    59    68    70   ar
    60   113   114    2
    61   113   112    1
    62   111   112    1
    63    67    69   ar
    64    13    12    2
    65   106   107   ar
    66   106   108   ar
    67   112   115    1
    68    12    11    1
    69   107   109   ar
    70    70    71   ar
    71    19    20    1
    72    57    56    2
    73   118   117   ar
    74    20    21    2
    75   211   210    2
    76    69    71   ar
    77   115   116    1
    78    27    26    1
    79    27    28    1
    80   108   110   ar
    81    56    55    1
    82     1     2    1
    83   109   110   ar
    84   195   194    2
    85    26    23    1
    86   207   206    2
    87    11    10    1
    88    11    14    1
    89     4     3    2
    90    10     3   am
    91   117   116    1
    92   117   119   ar
    93    29    28    1
    94    29    30    2
    95   210   212   am
    96   210   209    1
    97     3     2    1
    98   206   205    1
    99     2     5    1
   100   205   208    1
   101   205   204    1
   102    22    23    1
   103    32    30    1
   104    30    31    1
   105    55    58    1
   106    55    54    1
   107    14    15    1
   108    23    24    1
   109   194   204   am
   110   194   193    1
   111   208   209    1
   112    58    59    1
   113    46    45    2
   114    24    25    2
   115    54    45   am
   116     5     6    1
   117    45    44    1
   118   193   196    1
   119   193   192    1
   120    60    59    2
   121    15    17    1
   122    15    16    1
   123    59    61   am
   124   196   197    1
   125     8     7    2
   126    44    43    1
   127    44    47    1
   128     6     7    1
   129     7     9   am
   130   190   188   ar
   131   190   191   ar
   132   188   187   ar
   133   197   198   ar
   134   197   199   ar
   135   185   184    2
   136   198   200   ar
   137    47    48    1
   138    53    51    1
   139   191   189   ar
   140   199   201   ar
   141    40    38   ar
   142    40    42   ar
   143   187   186    1
   144   187   189   ar
   145    50    51    2
   146    50    49    1
   147   184   183    1
   148   200   202   ar
   149    48    49    1
   150    37    38    1
   151    37    34    1
   152    51    52    1
   153   186   183    1
   154   183   182    1
   155    33    34    1
   156    38    39   ar
   157    42    41   ar
   158   181   179    1
   159   201   202   ar
   160   125   124    1
   161   202   203    1
   162   169   168   ar
   163    34    35    1
   164   170   168   ar
   165   140   139   ar
   166    35    36    2
   167   236   235    2
   168   168   167    1
   169   141   139   ar
   170   124   121    1
   171    39    41   ar
   172   139   138    1
   173   179   180    1
   174   179   178    2
   175   235   234    1
   176   234   233    1
   177   158   160   ar
   178   158   156   ar
   179   160   161   ar
   180   167   164    1
   181   178   177    1
   182   155   156    1
   183   155   152    1
   184   156   157   ar
   185   161   162    1
   186   161   159   ar
   187   157   159   ar
   188   164   165    1
   189   164   163    1
   190   121   122    1
   191   121   120    1
   192   138   135    1
   193   166   165    2
   194   123   122    2
   195   174   173    2
   196   152   153    1
   197   152   151    1
   198   176   177    1
   199   176   175    1
   200   150   149    1
   201   137   136    2
   202   154   153    2
   203   135   136    1
   204   135   134    1
   205   133   131   ar
   206   136   142   am
   207   173   172    1
   208   149   148    1
   209   132   131   ar
   210   147   148    1
   211   147   146    1
   212   142   143    1
   213   131   130    1
   214   175   172    1
   215   143   146    1
   216   143   144    1
   217   172   171    1
   218   145   144    2
   219   130   127    1
   220   127   128    1
   221   127   126    1
   222   128   129    2
