@<TRIPOS>MOLECULE
tmp/4bzcD04.pdb
 82 81 0 0 0
SMALL
GASTEIGER

@<TRIPOS>ATOM
      1  N         42.3570   28.2220   44.1020 N.3    44  VAL44      -0.1231
      2  CA        42.8980   28.6380   42.8080 C.3    44  VAL44       0.1692
      3  C         42.1100   28.0920   41.6310 C.2    44  VAL44       0.2592
      4  O         41.9280   28.7910   40.6280 O.2    44  VAL44      -0.2718
      5  CB        44.3290   28.1310   42.6480 C.3    44  VAL44       0.0266
      6  CG1       44.9130   28.5640   41.3110 C.3    44  VAL44       0.0020
      7  CG2       45.1810   28.6640   43.7840 C.3    44  VAL44       0.0020
      8  N         41.6920   26.8410   41.7340 N.am   45  PHE45      -0.1963
      9  CA        40.8800   26.1900   40.7210 C.3    45  PHE45       0.1756
     10  C         39.4930   25.9710   41.3080 C.2    45  PHE45       0.2461
     11  O         39.2990   25.0860   42.1320 O.2    45  PHE45      -0.2730
     12  CB        41.4880   24.8250   40.3920 C.3    45  PHE45       0.0574
     13  CG        42.8070   24.8950   39.6780 C.ar   45  PHE45      -0.0200
     14  CD1       43.9820   25.0280   40.3780 C.ar   45  PHE45      -0.0042
     15  CD2       42.8640   24.8530   38.3140 C.ar   45  PHE45      -0.0042
     16  CE1       45.1980   25.0890   39.7280 C.ar   45  PHE45      -0.0003
     17  CE2       44.0800   24.9310   37.6540 C.ar   45  PHE45      -0.0003
     18  CZ        45.2490   25.0470   38.3580 C.ar   45  PHE45      -0.0000
     19  N         38.5070   26.7890   40.9250 N.am   46  PRO46      -0.2727
     20  CA        37.1760   26.6700   41.4730 C.3    46  PRO46       0.1402
     21  C         36.5060   25.3350   41.0980 C.2    46  PRO46       0.2269
     22  O         35.5510   24.9340   41.7600 O.2    46  PRO46      -0.2865
     23  CB        36.4480   27.8040   40.7970 C.3    46  PRO46       0.0296
     24  CG        37.4780   28.8120   40.6020 C.3    46  PRO46       0.0237
     25  CD        38.6790   28.0440   40.2130 C.3    46  PRO46       0.0939
     26  N         39.7390   20.1330   37.5790 N.3   204  LEU204     -0.1231
     27  CA        40.6430   21.2500   37.3010 C.3   204  LEU204      0.1693
     28  C         40.3380   21.9270   35.9900 C.2   204  LEU204      0.2593
     29  O         40.5710   23.1240   35.8510 O.2   204  LEU204     -0.2718
     30  CB        42.0700   20.8230   37.2580 C.3   204  LEU204      0.0284
     31  CG        42.5360   20.3100   38.6150 C.3   204  LEU204      0.0019
     32  CD1       43.8490   19.5120   38.5450 C.3   204  LEU204      0.0001
     33  CD2       42.5700   21.3640   39.7050 C.3   204  LEU204      0.0001
     34  N         39.8200   21.1860   35.0250 N.am  205  GLY205     -0.1942
     35  CA        39.6180   21.6920   33.6700 C.3   205  GLY205      0.2014
     36  C         40.8920   21.5630   32.8470 C.2   205  GLY205      0.2638
     37  O         41.2380   22.4370   32.0420 O.2   205  GLY205     -0.2714
     38  N         41.6060   20.4480   33.0590 N.am  206  ILE206     -0.1977
     39  CA        42.7850   20.0610   32.2790 C.3   206  ILE206      0.1596
     40  C         42.4180   18.7650   31.5250 C.2   206  ILE206      0.2287
     41  O         41.8790   17.8750   32.1400 O.2   206  ILE206     -0.2864
     42  CB        43.9680   19.8700   33.2620 C.3   206  ILE206      0.0276
     43  CG1       44.3400   21.2070   33.8990 C.3   206  ILE206      0.0022
     44  CG2       45.1870   19.2300   32.6050 C.3   206  ILE206      0.0022
     45  CD1       45.3700   21.0720   35.0040 C.3   206  ILE206      0.0001
     46  N         51.5400   22.3840   37.4480 N.3   253  ARG253     -0.1245
     47  CA        50.4580   23.2970   37.1340 C.3   253  ARG253      0.1563
     48  C         49.5070   23.5530   38.3020 C.2   253  ARG253      0.2260
     49  O         49.0830   24.6770   38.5090 O.2   253  ARG253     -0.2867
     50  CB        49.6360   22.7680   35.9390 C.3   253  ARG253      0.0307
     51  CG        50.3990   22.5440   34.6470 C.3   253  ARG253      0.0489
     52  CD        49.5060   21.8300   33.6500 C.3   253  ARG253      0.2205
     53  NE        49.9630   22.0990   32.2780 N.pl3 253  ARG253     -0.0865
     54  CZ        50.6990   21.2550   31.5350 C.cat 253  ARG253      0.5346
     55  NH1       51.0330   20.0490   31.9910 N.pl3 253  ARG253      0.1354
     56  NH2       51.1010   21.6050   30.3060 N.pl3 253  ARG253      0.1354
     57  N         50.8590   24.6240   42.7200 N.3   257  HIS257     -0.1226
     58  CA        50.6460   25.9730   42.2640 C.3   257  HIS257      0.1752
     59  C         51.0310   26.9010   43.4140 C.2   257  HIS257      0.2596
     60  O         50.7060   26.6610   44.6020 O.2   257  HIS257     -0.2718
     61  CB        49.1930   26.1760   41.8220 C.3   257  HIS257      0.0759
     62  CG        48.8930   27.5340   41.2620 C.ar  257  HIS257      0.0818
     63  ND1       48.7450   28.6430   42.0640 N.ar  257  HIS257     -0.2268
     64  CD2       48.6590   27.9610   39.9960 C.ar  257  HIS257      0.1154
     65  CE1       48.4620   29.7000   41.3220 C.ar  257  HIS257      0.1986
     66  NE2       48.3950   29.3120   40.0610 N.ar  257  HIS257     -0.2212
     67  N         51.8060   27.9280   43.0760 N.am  258  LYS258     -0.1966
     68  CA        52.4290   28.7780   44.0870 C.3   258  LYS258      0.1728
     69  C         51.4130   29.3930   45.0460 C.2   258  LYS258      0.2616
     70  O         51.7030   29.5510   46.2330 O.2   258  LYS258     -0.2715
     71  CB        53.2200   29.8880   43.4030 C.3   258  LYS258      0.0311
     72  CG        52.3610   30.7490   42.4320 C.3   258  LYS258      0.0038
     73  CD        52.3940   32.2490   42.7570 C.3   258  LYS258      0.0206
     74  CE        51.9850   33.0900   41.5140 C.3   258  LYS258      0.1093
     75  NZ        51.6330   34.5290   41.6840 N.3   258  LYS258     -0.1314
     76  N         50.2440   29.7630   44.5410 N.am  259  VAL259     -0.1977
     77  CA        49.2100   30.3510   45.3950 C.3   259  VAL259      0.1596
     78  C         48.4370   29.3020   46.1750 C.2   259  VAL259      0.2287
     79  O         48.0780   29.5260   47.3170 O.2   259  VAL259     -0.2864
     80  CB        48.2120   31.2050   44.6180 C.3   259  VAL259      0.0276
     81  CG1       47.1340   31.7120   45.5530 C.3   259  VAL259      0.0022
     82  CG2       48.9080   32.3920   43.9750 C.3   259  VAL259      0.0022
@<TRIPOS>BOND
     1    56    54    1
     2    40    41    2
     3    40    39    1
     4    54    55    1
     5    54    53    2
     6    37    36    2
     7    53    52    1
     8    39    38    1
     9    39    42    1
    10    44    42    1
    11    36    38   am
    12    36    35    1
    13    42    43    1
    14    52    51    1
    15    35    34    1
    16    43    45    1
    17    51    50    1
    18    34    28   am
    19    29    28    2
    20    50    47    1
    21    28    27    1
    22    47    46    1
    23    47    48    1
    24    30    27    1
    25    30    31    1
    26    27    26    1
    27    17    15   ar
    28    17    18   ar
    29    48    49    2
    30    15    13   ar
    31    18    16   ar
    32    32    31    1
    33    31    33    1
    34    13    14   ar
    35    13    12    1
    36    16    14   ar
    37    64    66   ar
    38    64    62   ar
    39    66    65   ar
    40    25    24    1
    41    25    19    1
    42    12     9    1
    43    24    23    1
    44     4     3    2
    45     9    10    1
    46     9     8    1
    47    23    20    1
    48    19    10   am
    49    19    20    1
    50    21    20    1
    51    21    22    2
    52    62    61    1
    53    62    63   ar
    54    10    11    2
    55     6     5    1
    56    65    63   ar
    57    74    75    1
    58    74    73    1
    59     3     8   am
    60     3     2    1
    61    61    58    1
    62    58    57    1
    63    58    59    1
    64    72    73    1
    65    72    71    1
    66     5     2    1
    67     5     7    1
    68     2     1    1
    69    67    59   am
    70    67    68    1
    71    71    68    1
    72    59    60    2
    73    82    80    1
    74    68    69    1
    75    76    69   am
    76    76    77    1
    77    80    77    1
    78    80    81    1
    79    69    70    2
    80    77    78    1
    81    78    79    2
