@<TRIPOS>MOLECULE
tmp/4bzdA00.pdb
 184 177 0 0 0
SMALL
GASTEIGER

@<TRIPOS>ATOM
      1  N         14.1000  -19.1890    7.1010 N.3     8  GLU8       -0.1231
      2  CA        13.8540  -18.3520    5.9190 C.3     8  GLU8        0.1699
      3  C         14.4100  -16.9560    6.1020 C.2     8  GLU8        0.2592
      4  O         14.5490  -16.4770    7.2300 O.2     8  GLU8       -0.2718
      5  CB        12.3520  -18.2490    5.5800 C.3     8  GLU8        0.0402
      6  CG        11.4390  -17.8900    6.7530 C.3     8  GLU8        0.1161
      7  CD        10.0580  -17.3180    6.3450 C.2     8  GLU8        0.3649
      8  OE1        9.8760  -16.8090    5.2070 O.co2   8  GLU8       -0.2457
      9  OE2        9.1550  -17.3560    7.2040 O.co2   8  GLU8       -0.2457
     10  N         14.7110  -16.3070    4.9780 N.am    9  LYS9       -0.1966
     11  CA        15.1300  -14.9080    4.9910 C.3     9  LYS9        0.1728
     12  C         13.8930  -14.0470    5.1690 C.2     9  LYS9        0.2616
     13  O         12.9230  -14.2030    4.4430 O.2     9  LYS9       -0.2715
     14  CB        15.8500  -14.5160    3.6900 C.3     9  LYS9        0.0311
     15  CG        16.3960  -13.1040    3.6790 C.3     9  LYS9        0.0038
     16  CD        17.0190  -12.8050    2.3180 C.3     9  LYS9        0.0206
     17  CE        17.1690  -11.3140    2.0710 C.3     9  LYS9        0.1093
     18  NZ        16.4820  -10.9150    0.8000 N.3     9  LYS9       -0.1314
     19  N         13.9390  -13.1330    6.1220 N.am   10  ILE10      -0.1963
     20  CA        12.7820  -12.3060    6.4640 C.3    10  ILE10       0.1730
     21  C         13.0650  -10.8060    6.2860 C.2    10  ILE10       0.2656
     22  O         12.2020   -9.9740    6.5210 O.2    10  ILE10      -0.2711
     23  CB        12.3040  -12.5800    7.9220 C.3    10  ILE10       0.0290
     24  CG1       13.3980  -12.2210    8.9450 C.3    10  ILE10       0.0022
     25  CG2       11.8780  -14.0190    8.0770 C.3    10  ILE10       0.0023
     26  CD1       13.0480  -12.5830   10.3940 C.3    10  ILE10       0.0001
     27  N         14.2750  -10.4390    5.8920 N.am   11  GLY11      -0.1716
     28  CA        14.5730   -9.0200    5.7720 C.2    11  GLY11       0.1480
     29  C         16.0040   -8.6680    5.4790 C.2    11  GLY11       0.2820
     30  O         16.8820   -9.5470    5.3880 O.2    11  GLY11      -0.2669
     31  N         16.2080   -7.3590    5.3100 N.am   12  GLU12      -0.1929
     32  CA        17.5260   -6.7650    5.1500 C.3    12  GLU12       0.1736
     33  C         17.5920   -5.5340    6.0560 C.2    12  GLU12       0.2617
     34  O         16.8010   -4.5860    5.9030 O.2    12  GLU12      -0.2715
     35  CB        17.7910   -6.3960    3.6800 C.3    12  GLU12       0.0429
     36  CG        19.0950   -5.6270    3.5510 C.3    12  GLU12       0.1163
     37  CD        20.1320   -6.4640    2.8870 C.2    12  GLU12       0.3649
     38  OE1       19.5830   -7.2790    2.0090 O.co2  12  GLU12      -0.2457
     39  OE2       21.3270   -6.4070    3.1500 O.co2  12  GLU12      -0.2457
     40  N         18.4740   -5.5800    7.0520 N.am   13  GLY13      -0.1955
     41  CA        18.8550   -4.3780    7.7800 C.3    13  GLY13       0.1869
     42  C         19.8130   -3.5770    6.9000 C.2    13  GLY13       0.2309
     43  O         20.2690   -2.4930    7.2800 O.2    13  GLY13      -0.2863
     44  N         18.6160  -10.5470    7.5370 N.3    17  VAL17      -0.1245
     45  CA        17.9310  -11.1160    8.7050 C.3    17  VAL17       0.1561
     46  C         17.2150  -12.4050    8.2940 C.2    17  VAL17       0.2260
     47  O         16.4730  -12.4210    7.3020 O.2    17  VAL17      -0.2867
     48  CB        16.8950  -10.1270    9.3190 C.3    17  VAL17       0.0252
     49  CG1       16.2440  -10.7250   10.5880 C.3    17  VAL17       0.0019
     50  CG2       17.5470   -8.8030    9.6430 C.3    17  VAL17       0.0019
     51  N         15.2690  -14.4660   15.4370 N.3    30  ALA30      -0.1245
     52  CA        15.6640  -13.6880   14.2790 C.3    30  ALA30       0.1562
     53  C         17.1680  -13.5400   14.3680 C.2    30  ALA30       0.2260
     54  O         17.6960  -13.0690   15.3800 O.2    30  ALA30      -0.2867
     55  CB        14.9590  -12.3110   14.2540 C.3    30  ALA30       0.0290
     56  N         20.4150  -11.8470   12.6210 N.3    32  LYS32      -0.1245
     57  CA        20.9740  -10.8540   11.7230 C.3    32  LYS32       0.1561
     58  C         22.4800  -11.1230   11.5550 C.2    32  LYS32       0.2260
     59  O         23.2320  -11.1430   12.5330 O.2    32  LYS32      -0.2867
     60  CB        20.7280   -9.4680   12.3010 C.3    32  LYS32       0.0271
     61  CG        21.2100   -8.3120   11.4730 C.3    32  LYS32       0.0035
     62  CD        20.7160   -7.0140   12.1030 C.3    32  LYS32       0.0206
     63  CE        21.4810   -5.8080   11.6470 C.3    32  LYS32       0.1093
     64  NZ        20.8840   -5.1930   10.4280 N.3    32  LYS32      -0.1314
     65  N         12.9710   -4.8030   20.5530 N.3    57  VAL57      -0.1245
     66  CA        13.2260   -6.2120   20.2600 C.3    57  VAL57       0.1561
     67  C         14.4610   -6.6930   21.0640 C.2    57  VAL57       0.2260
     68  O         15.5330   -6.0790   21.0300 O.2    57  VAL57      -0.2867
     69  CB        13.3630   -6.4590   18.7420 C.3    57  VAL57       0.0252
     70  CG1       13.8010   -7.8950   18.4580 C.3    57  VAL57       0.0019
     71  CG2       12.0220   -6.1340   18.0320 C.3    57  VAL57       0.0019
     72  N         18.2750  -12.2590   17.9320 N.3    73  PHE73      -0.1227
     73  CA        17.1640  -11.5260   18.5500 C.3    73  PHE73       0.1736
     74  C         15.9990  -12.4780   18.8100 C.2    73  PHE73       0.2595
     75  O         15.8530  -13.5010   18.1280 O.2    73  PHE73      -0.2718
     76  CB        16.6330  -10.4200   17.6370 C.3    73  PHE73       0.0547
     77  CG        17.6140   -9.3210   17.3300 C.ar   73  PHE73      -0.0202
     78  CD1       17.7760   -8.2620   18.1970 C.ar   73  PHE73      -0.0042
     79  CD2       18.3260   -9.3280   16.1530 C.ar   73  PHE73      -0.0042
     80  CE1       18.6640   -7.2350   17.9050 C.ar   73  PHE73      -0.0003
     81  CE2       19.2210   -8.3140   15.8570 C.ar   73  PHE73      -0.0003
     82  CZ        19.3760   -7.2570   16.7360 C.ar   73  PHE73      -0.0000
     83  N         15.1610  -12.1300   19.7940 N.am   74  GLU74      -0.1965
     84  CA        13.8330  -12.7280   19.8920 C.3    74  GLU74       0.1733
     85  C         13.0710  -12.5400   18.5900 C.2    74  GLU74       0.2616
     86  O         13.2080  -11.5120   17.9350 O.2    74  GLU74      -0.2715
     87  CB        13.0170  -12.0950   21.0170 C.3    74  GLU74       0.0429
     88  CG        12.6610  -10.6530   20.7970 C.3    74  GLU74       0.1163
     89  CD        11.6970  -10.0830   21.8330 C.2    74  GLU74       0.3649
     90  OE1       10.9060  -10.8650   22.4010 O.co2  74  GLU74      -0.2457
     91  OE2       11.7610   -8.8620   22.0920 O.co2  74  GLU74      -0.2457
     92  N         12.2630  -13.5360   18.2490 N.am   75  PHE75      -0.1960
     93  CA        11.4980  -13.5430   17.0040 C.3    75  PHE75       0.1771
     94  C         10.0950  -12.9730   17.2620 C.2    75  PHE75       0.2619
     95  O          9.4000  -13.4380   18.1500 O.2    75  PHE75      -0.2715
     96  CB        11.3760  -14.9840   16.4410 C.3    75  PHE75       0.0574
     97  CG        10.6680  -15.0440   15.1200 C.ar   75  PHE75      -0.0200
     98  CD1       11.3090  -14.5940   13.9660 C.ar   75  PHE75      -0.0042
     99  CD2        9.3460  -15.4640   15.0290 C.ar   75  PHE75      -0.0042
    100  CE1       10.6550  -14.5660   12.7320 C.ar   75  PHE75      -0.0003
    101  CE2        8.6690  -15.4550   13.7880 C.ar   75  PHE75      -0.0003
    102  CZ         9.3290  -15.0130   12.6350 C.ar   75  PHE75      -0.0000
    103  N          9.7140  -11.9690   16.4880 N.am   76  LEU76      -0.1963
    104  CA         8.3280  -11.4770   16.4360 C.3    76  LEU76       0.1728
    105  C          7.7450  -11.8820   15.0540 C.2    76  LEU76       0.2616
    106  O          8.4840  -12.0140   14.0540 O.2    76  LEU76      -0.2715
    107  CB         8.2640   -9.9730   16.7350 C.3    76  LEU76       0.0311
    108  CG         8.3660   -9.6120   18.2190 C.3    76  LEU76       0.0022
    109  CD1        9.8450   -9.4110   18.7160 C.3    76  LEU76       0.0001
    110  CD2        7.4510   -8.4270   18.6090 C.3    76  LEU76       0.0001
    111  N          6.4310  -12.1030   14.9860 N.am   77  HIS77      -0.1959
    112  CA         5.8770  -12.8050   13.8150 C.3    77  HIS77       0.1787
    113  C          5.5430  -11.9830   12.5940 C.2    77  HIS77       0.2620
    114  O          5.3850  -12.5470   11.5010 O.2    77  HIS77      -0.2715
    115  CB         4.6820  -13.6640   14.2080 C.3    77  HIS77       0.0785
    116  CG         5.0840  -15.0230   14.6820 C.ar   77  HIS77       0.0821
    117  ND1        5.6530  -15.2330   15.9190 N.ar   77  HIS77      -0.2267
    118  CD2        5.0430  -16.2330   14.0730 C.ar   77  HIS77       0.1154
    119  CE1        5.9240  -16.5180   16.0600 C.ar   77  HIS77       0.1986
    120  NE2        5.5660  -17.1460   14.9530 N.ar   77  HIS77      -0.2212
    121  N          5.4690  -10.6620   12.7550 N.am   78  GLN78      -0.1963
    122  CA         5.0900   -9.7910   11.6430 C.3    78  GLN78       0.1733
    123  C          5.6530   -8.3940   11.8410 C.2    78  GLN78       0.2616
    124  O          5.8580   -7.9550   12.9800 O.2    78  GLN78      -0.2715
    125  CB         3.5670   -9.7170   11.5380 C.3    78  GLN78       0.0408
    126  CG         3.0540   -9.1980   10.2340 C.3    78  GLN78       0.0908
    127  CD         1.6210   -9.6050    9.9850 C.2    78  GLN78       0.2608
    128  OE1        0.7020   -8.8040   10.1600 O.2    78  GLN78      -0.2717
    129  NE2        1.4160  -10.8690    9.5810 N.am   78  GLN78      -0.0878
    130  N          5.8830   -7.7000   10.7240 N.am   79  ASP79      -0.1971
    131  CA         6.3120   -6.2800   10.8070 C.3    79  ASP79       0.1709
    132  C          5.1300   -5.3760   10.5040 C.2    79  ASP79       0.2293
    133  O          4.0850   -5.8340   10.0490 O.2    79  ASP79      -0.2864
    134  CB         7.5570   -5.9980    9.9430 C.3    79  ASP79       0.1436
    135  CG         7.2870   -6.0280    8.4240 C.2    79  ASP79       0.3671
    136  OD1        6.1900   -5.7420    7.9630 O.co2  79  ASP79      -0.2456
    137  OD2        8.2160   -6.3270    7.6830 O.co2  79  ASP79      -0.2456
    138  N          3.9100   -5.0850    6.6980 N.3    82  LYS82      -0.1245
    139  CA         3.0190   -6.1640    6.3440 C.3    82  LYS82       0.1561
    140  C          1.6170   -5.9990    6.9720 C.2    82  LYS82       0.2260
    141  O          0.6150   -6.1840    6.3120 O.2    82  LYS82      -0.2867
    142  CB         3.6410   -7.5000    6.7580 C.3    82  LYS82       0.0271
    143  CG         2.7150   -8.6900    6.6190 C.3    82  LYS82       0.0035
    144  CD         2.3590   -8.9370    5.1870 C.3    82  LYS82       0.0206
    145  CE         1.6110  -10.2660    5.0610 C.3    82  LYS82       0.1093
    146  NZ         0.8170  -10.3390    3.7910 N.3    82  LYS82      -0.1314
    147  N          9.0040   -1.3000    8.2930 N.3   124  GLN124     -0.1231
    148  CA         9.7540   -2.5760    8.1630 C.3   124  GLN124      0.1698
    149  C         10.5970   -2.9500    9.3920 C.2   124  GLN124      0.2592
    150  O         10.8280   -4.1400    9.6400 O.2   124  GLN124     -0.2718
    151  CB        10.6140   -2.5770    6.9040 C.3   124  GLN124      0.0381
    152  CG         9.8300   -2.2420    5.6630 C.3   124  GLN124      0.0905
    153  CD         9.9470   -0.7580    5.2460 C.2   124  GLN124      0.2608
    154  OE1        9.4340    0.1890    5.9160 O.2   124  GLN124     -0.2717
    155  NE2       10.6560   -0.5520    4.1360 N.am  124  GLN124     -0.0878
    156  N         11.0110   -1.9880   10.2140 N.am  125  ASN125     -0.1974
    157  CA        11.7260   -2.3790   11.4410 C.3   125  ASN125      0.1688
    158  C         10.9340   -2.1720   12.7360 C.2   125  ASN125      0.2292
    159  O         11.5030   -2.1050   13.8400 O.2   125  ASN125     -0.2864
    160  CB        13.1380   -1.7810   11.4810 C.3   125  ASN125      0.1181
    161  CG        13.1470   -0.2880   11.3960 C.2   125  ASN125      0.2629
    162  OD1       12.2370    0.3890   11.9190 O.2   125  ASN125     -0.2716
    163  ND2       14.1840    0.2530   10.7750 N.am  125  ASN125     -0.0877
    164  N          8.1010   -4.2080   14.8470 N.3   127  LEU127     -0.1245
    165  CA         7.6630   -5.6050   14.9080 C.3   127  LEU127      0.1561
    166  C          6.5250   -5.7520   15.8860 C.2   127  LEU127      0.2260
    167  O          6.5440   -5.1840   16.9800 O.2   127  LEU127     -0.2867
    168  CB         8.8190   -6.5360   15.2980 C.3   127  LEU127      0.0270
    169  CG         9.7970   -6.8680   14.1530 C.3   127  LEU127      0.0019
    170  CD1        9.1000   -7.4900   12.8970 C.3   127  LEU127      0.0001
    171  CD2       10.5890   -5.6560   13.7160 C.3   127  LEU127      0.0001
    172  N         13.1520   -2.3900   16.3020 N.3   137  ALA137     -0.1231
    173  CA        14.2620   -3.2200   15.8680 C.3   137  ALA137      0.1694
    174  C         15.2230   -2.4120   15.0020 C.2   137  ALA137      0.2592
    175  O         14.8820   -1.3250   14.4580 O.2   137  ALA137     -0.2718
    176  CB        13.7450   -4.4070   15.0640 C.3   137  ALA137      0.0304
    177  N         16.4300   -2.9410   14.8670 N.am  138  ASP138     -0.1974
    178  CA        17.3850   -2.4690   13.8610 C.3   138  ASP138      0.1709
    179  C         17.9550   -1.0980   14.1600 C.2   138  ASP138      0.2293
    180  O         18.0910   -0.2740   13.2470 O.2   138  ASP138     -0.2864
    181  CB        16.7340   -2.4430   12.4750 C.3   138  ASP138      0.1436
    182  CG        17.7390   -2.6430   11.3520 C.2   138  ASP138      0.3671
    183  OD1       18.8490   -3.1450   11.6130 O.co2 138  ASP138     -0.2456
    184  OD2       17.3940   -2.3340   10.2020 O.co2 138  ASP138     -0.2456
@<TRIPOS>BOND
     1    18    17    1
     2    38    37   ar
     3    17    16    1
     4    16    15    1
     5    37    39   ar
     6    37    36    1
     7    36    35    1
     8    15    14    1
     9    35    32    1
    10    14    11    1
    11   146   145    1
    12   155   153   am
    13    13    12    2
    14    10    11    1
    15    10     3   am
    16    11    12    1
    17   145   144    1
    18    32    31    1
    19    32    33    1
    20    12    19   am
    21   144   143    1
    22     8     7   ar
    23   153   152    1
    24   153   154    2
    25    31    29   am
    26    30    29    2
    27    29    28    1
    28     5     2    1
    29     5     6    1
    30   152   151    1
    31    28    27    2
    32    27    21    1
    33    34    33    2
    34     2     3    1
    35     2     1    1
    36    33    40   am
    37     3     4    2
    38    19    20    1
    39    21    20    1
    40    21    22    2
    41   141   140    2
    42   139   138    1
    43   139   142    1
    44   139   140    1
    45     7     6    1
    46     7     9   ar
    47    20    23    1
    48   143   142    1
    49    42    43    2
    50    42    41    1
    51   151   148    1
    52    40    41    1
    53    47    46    2
    54    44    45    1
    55   137   135   ar
    56    23    25    1
    57    23    24    1
    58   136   135   ar
    59   148   147    1
    60   148   149    1
    61    46    45    1
    62   135   134    1
    63    45    48    1
    64    24    26    1
    65    48    50    1
    66    48    49    1
    67   149   150    2
    68   149   156   am
    69   129   127   am
    70   134   131    1
    71   127   128    2
    72   127   126    1
    73   133   132    2
    74   184   182   ar
    75   156   157    1
    76   126   125    1
    77    64    63    1
    78   132   131    1
    79   130   131    1
    80   130   123   am
    81   163   161   am
    82   182   183   ar
    83   182   181    1
    84   161   160    1
    85   161   162    2
    86   157   160    1
    87   157   158    1
    88    61    62    1
    89    61    60    1
    90   114   113    2
    91   125   122    1
    92    58    57    1
    93    58    59    2
    94   122   123    1
    95   122   121    1
    96    63    62    1
    97    57    60    1
    98    57    56    1
    99   123   124    2
   100   181   178    1
   101   113   121   am
   102   113   112    1
   103   102   100   ar
   104   102   101   ar
   105   100    98   ar
   106   158   159    2
   107   170   169    1
   108   180   179    2
   109   171   169    1
   110   101    99   ar
   111   112   115    1
   112   112   111    1
   113   178   179    1
   114   178   177    1
   115    98    97   ar
   116   106   105    2
   117   118   116   ar
   118   118   120   ar
   119   169   168    1
   120   115   116    1
   121    55    52    1
   122    52    53    1
   123    52    51    1
   124    53    54    2
   125   175   174    2
   126   116   117   ar
   127   164   165    1
   128   177   174   am
   129   165   168    1
   130   165   166    1
   131   120   119   ar
   132   111   105   am
   133   174   173    1
   134    99    97   ar
   135   105   104    1
   136   176   173    1
   137    97    96    1
   138    81    79   ar
   139    81    82   ar
   140   173   172    1
   141   166   167    2
   142   117   119   ar
   143    79    77   ar
   144   104   103    1
   145   104   107    1
   146    96    93    1
   147   103    94   am
   148   107   108    1
   149    82    80   ar
   150    93    94    1
   151    93    92    1
   152    94    95    2
   153    77    76    1
   154    77    78   ar
   155    76    73    1
   156    80    78   ar
   157    72    73    1
   158    86    85    2
   159    71    69    1
   160    75    74    2
   161   108   110    1
   162   108   109    1
   163    92    85   am
   164    70    69    1
   165    73    74    1
   166    85    84    1
   167    69    66    1
   168    74    83   am
   169    83    84    1
   170    84    87    1
   171    66    65    1
   172    66    67    1
   173    88    87    1
   174    88    89    1
   175    68    67    2
   176    89    91   ar
   177    89    90   ar
