@<TRIPOS>MOLECULE
tmp/4bzfA02.pdb
 124 116 0 0 0
SMALL
GASTEIGER

@<TRIPOS>ATOM
      1  N         -2.9710   10.2560   -6.9320 N.3    61  THR61      -0.1203
      2  CA        -3.8310   11.4020   -6.5710 C.3    61  THR61       0.1994
      3  C         -3.0770   12.4370   -5.7130 C.2    61  THR61       0.2617
      4  O         -3.6450   13.4360   -5.2840 O.2    61  THR61      -0.2717
      5  CB        -5.1530   10.9680   -5.8830 C.3    61  THR61       0.1784
      6  OG1       -4.8300   10.2440   -4.6890 O.3    61  THR61      -0.2211
      7  CG2       -5.9990   10.1160   -6.7750 C.3    61  THR61       0.0376
      8  N         -1.7800   12.2030   -5.4800 N.am   62  LEU62      -0.1979
      9  CA        -0.9750   13.1070   -4.6550 C.3    62  LEU62       0.1596
     10  C          0.1340   13.8640   -5.3980 C.2    62  LEU62       0.2287
     11  O          1.0460   14.3520   -4.7630 O.2    62  LEU62      -0.2864
     12  CB        -0.4190   12.3700   -3.4230 C.3    62  LEU62       0.0297
     13  CG        -1.5000   11.9240   -2.4350 C.3    62  LEU62       0.0022
     14  CD1       -0.8960   11.1540   -1.2650 C.3    62  LEU62       0.0001
     15  CD2       -2.2900   13.1380   -1.9040 C.3    62  LEU62       0.0001
     16  N        -13.7670   11.8460   -4.2390 N.3    72  ASN72      -0.1225
     17  CA       -13.7550   11.4400   -2.8570 C.3    72  ASN72       0.1785
     18  C        -14.6000   10.1820   -2.6510 C.2    72  ASN72       0.2597
     19  O        -14.6420    9.2990   -3.5280 O.2    72  ASN72      -0.2718
     20  CB       -14.1160   12.6600   -1.9600 C.3    72  ASN72       0.1169
     21  CG       -13.4710   12.5890   -0.5920 C.2    72  ASN72       0.2627
     22  OD1      -13.8470   11.7370    0.2420 O.2    72  ASN72      -0.2716
     23  ND2      -12.5260   13.5030   -0.3230 N.am   72  ASN72      -0.0877
     24  N        -15.2230   10.0430   -1.4920 N.am   73  ARG73      -0.1979
     25  CA       -15.6780    8.7210   -1.0170 C.3    73  ARG73       0.1597
     26  C        -17.1400    8.4400   -1.3030 C.2    73  ARG73       0.2287
     27  O        -17.9790    9.3200   -1.1970 O.2    73  ARG73      -0.2864
     28  CB       -15.4370    8.6130    0.5100 C.3    73  ARG73       0.0334
     29  CG       -13.9720    8.3990    0.8470 C.3    73  ARG73       0.0492
     30  CD       -13.6370    8.8550    2.2720 C.3    73  ARG73       0.2205
     31  NE       -12.1950    8.6330    2.5070 N.pl3  73  ARG73      -0.0865
     32  CZ       -11.2500    9.5430    2.3020 C.cat  73  ARG73       0.5346
     33  NH1      -11.5920   10.7690    1.9000 N.pl3  73  ARG73       0.1354
     34  NH2       -9.9520    9.2320    2.5270 N.pl3  73  ARG73       0.1354
     35  N        -10.8200    1.7020   -1.1010 N.3    92  GLU92      -0.1245
     36  CA       -10.3740    2.0980    0.2360 C.3    92  GLU92       0.1567
     37  C        -10.8850    1.1050    1.2870 C.2    92  GLU92       0.2260
     38  O        -11.9910    1.2300    1.8110 O.2    92  GLU92      -0.2867
     39  CB       -10.7650    3.5610    0.5600 C.3    92  GLU92       0.0388
     40  CG       -10.2850    4.0400    1.9480 C.3    92  GLU92       0.1160
     41  CD       -10.6650    5.4970    2.2360 C.2    92  GLU92       0.3649
     42  OE1      -11.8720    5.8530    2.1380 O.co2  92  GLU92      -0.2457
     43  OE2       -9.7730    6.2960    2.5920 O.co2  92  GLU92      -0.2457
     44  N        -11.6790    1.9520    5.4020 N.3    95  LYS95      -0.1245
     45  CA       -12.8820    2.7410    5.6220 C.3    95  LYS95       0.1561
     46  C        -14.0510    2.2260    4.7620 C.2    95  LYS95       0.2260
     47  O        -15.1230    2.8100    4.7630 O.2    95  LYS95      -0.2867
     48  CB       -12.5940    4.2300    5.3300 C.3    95  LYS95       0.0271
     49  CG       -11.6130    4.8540    6.2980 C.3    95  LYS95       0.0035
     50  CD       -11.3860    6.3260    5.9830 C.3    95  LYS95       0.0206
     51  CE       -10.5970    6.9720    7.1150 C.3    95  LYS95       0.1093
     52  NZ        -9.2350    6.3760    7.2560 N.3    95  LYS95      -0.1314
     53  N        -13.2440    5.2620   -3.5270 N.3    99  LEU99      -0.1231
     54  CA       -12.5520    6.5540   -3.3790 C.3    99  LEU99       0.1693
     55  C        -12.0000    7.0750   -4.7260 C.2    99  LEU99       0.2592
     56  O        -11.1510    6.4080   -5.3540 O.2    99  LEU99      -0.2718
     57  CB       -11.3850    6.3890   -2.3990 C.3    99  LEU99       0.0284
     58  CG       -10.4020    7.5300   -2.0970 C.3    99  LEU99       0.0019
     59  CD1      -11.0920    8.8280   -1.6400 C.3    99  LEU99       0.0001
     60  CD2       -9.4570    7.0370   -1.0220 C.3    99  LEU99       0.0001
     61  N        -12.4350    8.2810   -5.1160 N.am  100  HIS100     -0.1976
     62  CA       -11.8600    9.0910   -6.2010 C.3   100  HIS100      0.1656
     63  C        -12.1420    8.7460   -7.6550 C.2   100  HIS100      0.2291
     64  O        -11.4530    9.2660   -8.5740 O.2   100  HIS100     -0.2864
     65  CB       -10.3580    9.3600   -5.9660 C.3   100  HIS100      0.0771
     66  CG       -10.0710   10.3280   -4.8130 C.ar  100  HIS100      0.0820
     67  ND1      -10.9090   11.3330   -4.4730 N.ar  100  HIS100     -0.2267
     68  CD2       -8.9880   10.4160   -3.9470 C.ar  100  HIS100      0.1154
     69  CE1      -10.3940   12.0250   -3.4270 C.ar  100  HIS100      0.1986
     70  NE2       -9.2160   11.4710   -3.1090 N.ar  100  HIS100     -0.2212
     71  N         -7.5190   17.0090   -7.4420 N.3   176  HIS176     -0.1241
     72  CA        -6.7290   16.7470   -6.2270 C.3   176  HIS176      0.1621
     73  C         -5.4340   17.5340   -6.2470 C.2   176  HIS176      0.2264
     74  O         -4.4000   17.1150   -5.7400 O.2   176  HIS176     -0.2867
     75  CB        -6.5420   15.2270   -6.0210 C.3   176  HIS176      0.0745
     76  CG        -6.2880   14.8350   -4.5880 C.ar  176  HIS176      0.0817
     77  ND1       -5.3080   15.4020   -3.8330 N.ar  176  HIS176     -0.2268
     78  CD2       -6.9120   13.8880   -3.7620 C.ar  176  HIS176      0.1154
     79  CE1       -5.2920   14.8100   -2.6100 C.ar  176  HIS176      0.1986
     80  NE2       -6.2790   13.9060   -2.5750 N.ar  176  HIS176     -0.2212
     81  N        -14.6500    9.2780    7.2190 N.3   202  LEU202     -0.1245
     82  CA       -14.5670   10.5140    6.4030 C.3   202  LEU202      0.1561
     83  C        -15.7980   10.7630    5.5210 C.2   202  LEU202      0.2260
     84  O        -15.7210   11.3640    4.4290 O.2   202  LEU202     -0.2867
     85  CB       -13.2400   10.5690    5.6120 C.3   202  LEU202      0.0270
     86  CG       -12.0260   10.6800    6.5590 C.3   202  LEU202      0.0019
     87  CD1      -10.7090   10.5960    5.8070 C.3   202  LEU202      0.0001
     88  CD2      -12.0430   11.9610    7.3950 C.3   202  LEU202      0.0001
     89  N         -7.9370   17.5170    6.7800 N.3   229  ASP229     -0.1239
     90  CA        -8.5210   16.6390    5.7900 C.3   229  ASP229      0.1674
     91  C        -10.0200   16.8880    5.8630 C.2   229  ASP229      0.2266
     92  O        -10.7860   16.0180    6.3060 O.2   229  ASP229     -0.2867
     93  CB        -8.2010   15.1850    6.0880 C.3   229  ASP229      0.1410
     94  CG        -8.4880   14.2590    4.8970 C.2   229  ASP229      0.3668
     95  OD1       -8.9470   14.6930    3.8040 O.co2 229  ASP229     -0.2456
     96  OD2       -8.2590   13.0560    5.0670 O.co2 229  ASP229     -0.2456
     97  N        -12.2650   20.4020   -0.4810 N.3   268  VAL268     -0.1245
     98  CA       -11.5430   19.6030    0.5060 C.3   268  VAL268      0.1561
     99  C        -10.1150   20.0840    0.6650 C.2   268  VAL268      0.2260
    100  O         -9.4190   20.3710   -0.3400 O.2   268  VAL268     -0.2867
    101  CB       -11.5330   18.1180    0.0930 C.3   268  VAL268      0.0252
    102  CG1      -10.4780   17.3640    0.8950 C.3   268  VAL268      0.0019
    103  CG2      -12.9260   17.5570    0.2990 C.3   268  VAL268      0.0019
    104  N         -6.4190   19.1140    2.2480 N.3   270  TYR270     -0.1241
    105  CA        -5.6730   17.9830    2.7850 C.3   270  TYR270      0.1605
    106  C         -4.1900   18.3790    2.8110 C.2   270  TYR270      0.2264
    107  O         -3.6460   18.7540    1.7610 O.2   270  TYR270     -0.2867
    108  CB        -5.8140   16.7790    1.8750 C.3   270  TYR270      0.0534
    109  CG        -4.9810   15.5810    2.3350 C.ar  270  TYR270     -0.0201
    110  CD1       -5.2990   14.9100    3.5100 C.ar  270  TYR270     -0.0009
    111  CD2       -3.8620   15.1620    1.6160 C.ar  270  TYR270     -0.0009
    112  CE1       -4.5570   13.8070    3.9400 C.ar  270  TYR270      0.0417
    113  CE2       -3.1090   14.0400    2.0240 C.ar  270  TYR270      0.0417
    114  CZ        -3.4580   13.3860    3.1940 C.ar  270  TYR270      0.1957
    115  OH        -2.7040   12.3080    3.6150 O.3   270  TYR270     -0.2866
    116  N         -8.7920   21.2930   -2.8500 N.3   282  GLU282     -0.1245
    117  CA        -9.4790   20.4910   -3.8780 C.3   282  GLU282      0.1567
    118  C        -10.9160   21.0070   -4.0990 C.2   282  GLU282      0.2260
    119  O        -11.7840   20.8170   -3.2330 O.2   282  GLU282     -0.2867
    120  CB        -9.4930   18.9850   -3.4700 C.3   282  GLU282      0.0388
    121  CG        -8.1610   18.4170   -2.9700 C.3   282  GLU282      0.1160
    122  CD        -8.3390   17.0400   -2.3250 C.2   282  GLU282      0.3649
    123  OE1       -9.2650   16.2840   -2.7380 O.co2 282  GLU282     -0.2457
    124  OE2       -7.5710   16.7090   -1.3890 O.co2 282  GLU282     -0.2457
@<TRIPOS>BOND
     1    64    63    2
     2    63    62    1
     3    71    72    1
     4     1     2    1
     5     7     5    1
     6     2     5    1
     7     2     3    1
     8    73    72    1
     9    73    74    2
    10    72    75    1
    11    62    65    1
    12    62    61    1
    13    75    76    1
    14    65    66    1
    15     5     6    1
    16     3     8   am
    17     3     4    2
    18     8     9    1
    19    10    11    2
    20    10     9    1
    21    56    55    2
    22    61    55   am
    23    66    67   ar
    24    66    68   ar
    25    55    54    1
    26     9    12    1
    27    76    77   ar
    28    76    78   ar
    29    67    69   ar
    30    16    17    1
    31   118   117    1
    32   118   119    2
    33    68    70   ar
    34   117   120    1
    35   117   116    1
    36    77    79   ar
    37    78    80   ar
    38    19    18    2
    39    53    54    1
    40   120   121    1
    41    69    70   ar
    42    12    13    1
    43    54    57    1
    44   121   122    1
    45    17    18    1
    46    17    20    1
    47   123   122   ar
    48    18    24   am
    49    79    80   ar
    50    13    15    1
    51    13    14    1
    52    57    58    1
    53   122   124   ar
    54    58    59    1
    55    58    60    1
    56    20    21    1
    57    24    25    1
    58    26    27    2
    59    26    25    1
    60    35    36    1
    61    25    28    1
    62    21    23   am
    63    21    22    2
    64    97    98    1
    65   100    99    2
    66   101   103    1
    67   101    98    1
    68   101   102    1
    69    36    39    1
    70    36    37    1
    71    98    99    1
    72    28    29    1
    73    39    40    1
    74    29    30    1
    75    37    38    2
    76   111   113   ar
    77   111   109   ar
    78   107   106    2
    79   108   109    1
    80   108   105    1
    81    33    32    1
    82    40    41    1
    83   113   114   ar
    84    42    41   ar
    85    41    43   ar
    86   104   105    1
    87    30    31    1
    88    32    31    2
    89    32    34    1
    90   109   110   ar
    91   105   106    1
    92   114   115    1
    93   114   112   ar
    94   110   112   ar
    95    95    94   ar
    96    84    83    2
    97    46    47    2
    98    46    45    1
    99    94    96   ar
   100    94    93    1
   101    48    45    1
   102    48    49    1
   103    44    45    1
   104    83    82    1
   105    85    82    1
   106    85    86    1
   107    90    91    1
   108    90    93    1
   109    90    89    1
   110    87    86    1
   111    91    92    2
   112    50    49    1
   113    50    51    1
   114    82    81    1
   115    86    88    1
   116    51    52    1
