@<TRIPOS>MOLECULE
tmp/4bzfA01.pdb
 92 91 0 0 0
SMALL
GASTEIGER

@<TRIPOS>ATOM
      1  N        -17.3720    4.6610  -22.0400 N.3   129  SER129     -0.1217
      2  CA       -18.0090    3.5010  -22.6690 C.3   129  SER129      0.1889
      3  C        -16.9340    2.5730  -23.2580 C.2   129  SER129      0.2288
      4  O        -17.2140    1.4160  -23.5180 O.2   129  SER129     -0.2866
      5  CB       -19.0920    3.8910  -23.7030 C.3   129  SER129      0.2089
      6  OG       -18.5490    4.3870  -24.9170 O.3   129  SER129     -0.2183
      7  N        -17.4970    0.3070  -17.1070 N.3   135  GLN135     -0.1245
      8  CA       -18.8690   -0.0040  -17.4950 C.3   135  GLN135      0.1566
      9  C        -19.5610   -1.0120  -16.5870 C.2   135  GLN135      0.2260
     10  O        -20.7560   -0.8770  -16.3350 O.2   135  GLN135     -0.2867
     11  CB       -18.9470   -0.4630  -18.9540 C.3   135  GLN135      0.0367
     12  CG       -18.7450    0.6550  -19.9640 C.3   135  GLN135      0.0905
     13  CD       -19.8060    1.7490  -19.8440 C.2   135  GLN135      0.2608
     14  OE1      -20.9930    1.5030  -20.0730 O.2   135  GLN135     -0.2717
     15  NE2      -19.3790    2.9560  -19.5280 N.am  135  GLN135     -0.0878
     16  N        -22.6190    1.7200  -15.9420 N.3   139  PRO139     -0.2102
     17  CA       -22.9760    1.4240  -17.3270 C.3   139  PRO139      0.1504
     18  C        -23.6640    2.6250  -18.0200 C.2   139  PRO139      0.2576
     19  O        -24.8390    2.5760  -18.3620 O.2   139  PRO139     -0.2718
     20  CB       -23.8950    0.1860  -17.1920 C.3   139  PRO139      0.0282
     21  CG       -24.5530    0.3700  -15.8440 C.3   139  PRO139      0.0208
     22  CD       -23.5740    1.1230  -14.9800 C.3   139  PRO139      0.0893
     23  N        -22.9110    3.7010  -18.1970 N.am  140  HIS140     -0.1962
     24  CA       -23.3980    4.8910  -18.8420 C.3   140  HIS140      0.1787
     25  C        -22.3390    5.4350  -19.7460 C.2   140  HIS140      0.2620
     26  O        -21.1440    5.3040  -19.4640 O.2   140  HIS140     -0.2715
     27  CB       -23.8200    5.9410  -17.8170 C.3   140  HIS140      0.0785
     28  CG       -24.9660    5.5070  -16.9430 C.ar  140  HIS140      0.0821
     29  ND1      -26.2040    5.3030  -17.4220 N.ar  140  HIS140     -0.2267
     30  CD2      -25.0300    5.2650  -15.5770 C.ar  140  HIS140      0.1154
     31  CE1      -27.0150    4.9300  -16.4270 C.ar  140  HIS140      0.1986
     32  NE2      -26.2970    4.9100  -15.2940 N.ar  140  HIS140     -0.2212
     33  N        -22.7840    6.0010  -20.8630 N.am  141  HIS141     -0.1973
     34  CA       -21.9080    6.5950  -21.8670 C.3   141  HIS141      0.1656
     35  C        -21.5470    8.0330  -21.5200 C.2   141  HIS141      0.2291
     36  O        -21.9360    8.9950  -22.2170 O.2   141  HIS141     -0.2864
     37  CB       -22.5420    6.4960  -23.2400 C.3   141  HIS141      0.0771
     38  CG       -21.5650    6.7140  -24.3790 C.ar  141  HIS141      0.0820
     39  ND1      -21.8990    6.5100  -25.6680 N.ar  141  HIS141     -0.2267
     40  CD2      -20.2200    7.1270  -24.3740 C.ar  141  HIS141      0.1154
     41  CE1      -20.8330    6.7810  -26.4640 C.ar  141  HIS141      0.1986
     42  NE2      -19.8030    7.1740  -25.6660 N.ar  141  HIS141     -0.2212
     43  N        -23.3570   13.4040  -21.7360 N.3   163  ASN163     -0.1225
     44  CA       -24.1090   12.1640  -21.7570 C.3   163  ASN163      0.1785
     45  C        -24.4400   11.7790  -23.1980 C.2   163  ASN163      0.2597
     46  O        -25.3680   12.3240  -23.7920 O.2   163  ASN163     -0.2718
     47  CB       -25.4100   12.2450  -20.9280 C.3   163  ASN163      0.1169
     48  CG       -26.1010   10.8840  -20.7810 C.2   163  ASN163      0.2627
     49  OD1      -25.7470    9.8950  -21.4510 O.2   163  ASN163     -0.2716
     50  ND2      -27.0560   10.8150  -19.8710 N.am  163  ASN163     -0.0877
     51  N        -23.6760   10.8290  -23.7320 N.am  164  LYS164     -0.1966
     52  CA       -23.8840   10.3240  -25.0870 C.3   164  LYS164      0.1728
     53  C        -24.7100    9.0200  -25.0950 C.2   164  LYS164      0.2617
     54  O        -24.8510    8.3720  -26.1400 O.2   164  LYS164     -0.2715
     55  CB       -22.5370   10.1510  -25.8080 C.3   164  LYS164      0.0311
     56  CG       -21.8340   11.4730  -26.0780 C.3   164  LYS164      0.0038
     57  CD       -20.9240   11.3790  -27.2990 C.3   164  LYS164      0.0206
     58  CE       -19.7590   12.3530  -27.1530 C.3   164  LYS164      0.1093
     59  NZ       -18.5610   12.0030  -27.9720 N.3   164  LYS164     -0.1314
     60  N        -25.2810    8.6510  -23.9460 N.am  165  GLY165     -0.1940
     61  CA       -26.0250    7.3820  -23.8350 C.3   165  GLY165      0.2014
     62  C        -27.5410    7.5370  -23.7730 C.2   165  GLY165      0.2639
     63  O        -28.0670    8.6410  -23.9350 O.2   165  GLY165     -0.2714
     64  N        -28.2450    6.4330  -23.5250 N.am  166  LYS166     -0.1963
     65  CA       -29.7280    6.4070  -23.5670 C.3   166  LYS166      0.1728
     66  C        -30.4350    6.8200  -22.2640 C.2   166  LYS166      0.2616
     67  O        -31.6240    7.1290  -22.2780 O.2   166  LYS166     -0.2715
     68  CB       -30.2200    5.0190  -24.0040 C.3   166  LYS166      0.0311
     69  CG       -29.7200    4.5760  -25.3790 C.3   166  LYS166      0.0038
     70  CD       -30.2400    3.1920  -25.7620 C.3   166  LYS166      0.0206
     71  CE       -29.3940    2.5520  -26.8590 C.3   166  LYS166      0.1093
     72  NZ       -29.5860    3.2130  -28.1870 N.3   166  LYS166     -0.1314
     73  N        -29.7190    6.8290  -21.1380 N.am  167  GLU167     -0.1977
     74  CA       -30.3290    7.1600  -19.8410 C.3   167  GLU167      0.1602
     75  C        -29.5680    8.2540  -19.0960 C.2   167  GLU167      0.2287
     76  O        -28.3740    8.3860  -19.2750 O.2   167  GLU167     -0.2864
     77  CB       -30.3880    5.9210  -18.9600 C.3   167  GLU167      0.0415
     78  CG       -31.3220    4.8310  -19.4840 C.3   167  GLU167      0.1163
     79  CD       -31.2480    3.5770  -18.6330 C.2   167  GLU167      0.3649
     80  OE1      -30.1260    3.0450  -18.4530 O.co2 167  GLU167     -0.2457
     81  OE2      -32.3060    3.1320  -18.1260 O.co2 167  GLU167     -0.2457
     82  N        -27.6780   10.1880  -15.9420 N.3   169  PHE169     -0.1241
     83  CA       -26.7860    9.7820  -14.8570 C.3   169  PHE169      0.1605
     84  C        -26.3810   10.9420  -13.9610 C.2   169  PHE169      0.2264
     85  O        -26.3450   12.0850  -14.4310 O.2   169  PHE169     -0.2867
     86  CB       -25.5480    8.9940  -15.3610 C.3   169  PHE169      0.0534
     87  CG       -24.6600    9.7630  -16.2990 C.ar  169  PHE169     -0.0203
     88  CD1      -23.7540   10.7170  -15.8150 C.ar  169  PHE169     -0.0042
     89  CD2      -24.7080    9.5210  -17.6710 C.ar  169  PHE169     -0.0042
     90  CE1      -22.9270   11.4010  -16.6860 C.ar  169  PHE169     -0.0003
     91  CE2      -23.8590   10.1910  -18.5430 C.ar  169  PHE169     -0.0003
     92  CZ       -22.9880   11.1480  -18.0520 C.ar  169  PHE169     -0.0000
@<TRIPOS>BOND
     1    72    71    1
     2    59    58    1
     3    57    58    1
     4    57    56    1
     5    71    70    1
     6    41    39   ar
     7    41    42   ar
     8    54    53    2
     9    56    55    1
    10    55    52    1
    11    70    69    1
    12    39    38   ar
    13    42    40   ar
    14    69    68    1
    15    53    52    1
    16    53    60   am
    17    52    51    1
    18     6     5    1
    19    38    40   ar
    20    38    37    1
    21    68    65    1
    22    60    61    1
    23    63    62    2
    24    61    62    1
    25    46    45    2
    26    62    64   am
    27    51    45   am
    28     5     2    1
    29    65    64    1
    30    65    66    1
    31     4     3    2
    32     3     2    1
    33    37    34    1
    34    45    44    1
    35     2     1    1
    36    67    66    2
    37    66    73   am
    38    36    35    2
    39    34    35    1
    40    34    33    1
    41    44    43    1
    42    44    47    1
    43    49    48    2
    44    73    74    1
    45    47    48    1
    46    33    25   am
    47    48    50   am
    48    14    13    2
    49    12    13    1
    50    12    11    1
    51    13    15   am
    52    74    75    1
    53    74    77    1
    54    25    26    2
    55    25    24    1
    56    78    77    1
    57    78    79    1
    58    76    75    2
    59    11     8    1
    60    24    23    1
    61    24    27    1
    62    79    80   ar
    63    79    81   ar
    64    91    92   ar
    65    91    89   ar
    66    19    18    2
    67    23    18   am
    68    92    90   ar
    69    18    17    1
    70    27    28    1
    71    89    87   ar
    72     8     7    1
    73     8     9    1
    74    29    28   ar
    75    29    31   ar
    76    17    20    1
    77    17    16    1
    78    20    21    1
    79    28    30   ar
    80    90    88   ar
    81     9    10    2
    82    31    32   ar
    83    87    88   ar
    84    87    86    1
    85    16    22    1
    86    82    83    1
    87    21    22    1
    88    30    32   ar
    89    86    83    1
    90    83    84    1
    91    85    84    2
