@<TRIPOS>MOLECULE
tmp/4bzgB00.pdb
 149 140 0 0 0
SMALL
GASTEIGER

@<TRIPOS>ATOM
      1  N          4.6090   11.2240  -54.4720 N.3    61  THR61      -0.1203
      2  CA         5.4080   12.3580  -54.9440 C.3    61  THR61       0.1994
      3  C          4.6340   13.2990  -55.8830 C.2    61  THR61       0.2617
      4  O          5.1980   14.2680  -56.3920 O.2    61  THR61      -0.2717
      5  CB         6.7380   11.9170  -55.6150 C.3    61  THR61       0.1784
      6  OG1        6.4620   11.2360  -56.8410 O.3    61  THR61      -0.2211
      7  CG2        7.5540   10.9960  -54.6960 C.3    61  THR61       0.0376
      8  N          3.3490   13.0320  -56.1100 N.am   62  LEU62      -0.1979
      9  CA         2.6140   13.8110  -57.1110 C.3    62  LEU62       0.1596
     10  C          1.4880   14.6920  -56.5210 C.2    62  LEU62       0.2287
     11  O          0.6170   15.1850  -57.2680 O.2    62  LEU62      -0.2864
     12  CB         2.1090   12.9060  -58.2600 C.3    62  LEU62       0.0297
     13  CG         3.2160   12.2930  -59.1060 C.3    62  LEU62       0.0022
     14  CD1        2.6460   11.3180  -60.1420 C.3    62  LEU62       0.0001
     15  CD2        4.0460   13.4050  -59.7530 C.3    62  LEU62       0.0001
     16  N         15.5560   12.6330  -57.0410 N.3    72  ASN72      -0.1225
     17  CA        15.6310   12.0230  -58.3650 C.3    72  ASN72       0.1785
     18  C         16.5060   10.7540  -58.4090 C.2    72  ASN72       0.2597
     19  O         16.6390   10.0510  -57.3860 O.2    72  ASN72      -0.2718
     20  CB        16.0180   13.0640  -59.4310 C.3    72  ASN72       0.1169
     21  CG        15.3290   12.8170  -60.7770 C.2    72  ASN72       0.2627
     22  OD1       15.6130   11.8300  -61.4630 O.2    72  ASN72      -0.2716
     23  ND2       14.4300   13.7350  -61.1670 N.am   72  ASN72      -0.0877
     24  N         17.0770   10.4620  -59.5780 N.am   73  ARG73      -0.1979
     25  CA        17.6700    9.1520  -59.8640 C.3    73  ARG73       0.1597
     26  C         19.1340    9.0070  -59.4790 C.2    73  ARG73       0.2287
     27  O         19.9370    9.9310  -59.6590 O.2    73  ARG73      -0.2864
     28  CB        17.5150    8.7900  -61.3500 C.3    73  ARG73       0.0334
     29  CG        16.1030    8.4060  -61.7440 C.3    73  ARG73       0.0492
     30  CD        15.7820    8.7700  -63.1940 C.3    73  ARG73       0.2205
     31  NE        14.3750    8.4760  -63.4770 N.pl3  73  ARG73      -0.0865
     32  CZ        13.4150    9.3850  -63.6500 C.cat  73  ARG73       0.5346
     33  NH1       13.6810   10.6910  -63.6250 N.pl3  73  ARG73       0.1354
     34  NH2       12.1780    8.9800  -63.8820 N.pl3  73  ARG73       0.1354
     35  N         12.8610    2.0700  -59.3100 N.3    92  GLU92      -0.1245
     36  CA        12.4580    2.3400  -60.6740 C.3    92  GLU92       0.1567
     37  C         12.9570    1.2000  -61.5450 C.2    92  GLU92       0.2260
     38  O         14.0680    1.2400  -62.0960 O.2    92  GLU92      -0.2867
     39  CB        12.9830    3.6830  -61.1780 C.3    92  GLU92       0.0388
     40  CG        12.3480    4.0920  -62.5030 C.3    92  GLU92       0.1160
     41  CD        12.8940    5.3820  -63.0790 C.2    92  GLU92       0.3649
     42  OE1       14.1070    5.6570  -62.9410 O.co2  92  GLU92      -0.2457
     43  OE2       12.1070    6.1190  -63.7000 O.co2  92  GLU92      -0.2457
     44  N         12.1250   -0.4110  -64.6090 N.3    94  ASP94      -0.1225
     45  CA        12.4430   -0.3940  -66.0420 C.3    94  ASP94       0.1805
     46  C         13.7370    0.3430  -66.4110 C.2    94  ASP94       0.2597
     47  O         14.4290   -0.0610  -67.3360 O.2    94  ASP94      -0.2718
     48  CB        11.2550    0.0850  -66.8840 C.3    94  ASP94       0.1424
     49  CG        10.9910    1.5790  -66.7620 C.2    94  ASP94       0.3668
     50  OD1       11.5240    2.2600  -65.8480 O.co2  94  ASP94      -0.2456
     51  OD2       10.2190    2.0720  -67.6090 O.co2  94  ASP94      -0.2456
     52  N         14.0740    1.3990  -65.6700 N.am   95  LYS95      -0.1979
     53  CA        15.3010    2.1580  -65.9270 C.3    95  LYS95       0.1596
     54  C         16.4720    1.7780  -65.0080 C.2    95  LYS95       0.2287
     55  O         17.5380    2.4000  -65.0650 O.2    95  LYS95      -0.2864
     56  CB        15.0140    3.6580  -65.8420 C.3    95  LYS95       0.0298
     57  CG        14.1820    4.1850  -67.0010 C.3    95  LYS95       0.0038
     58  CD        13.4880    5.4790  -66.6100 C.3    95  LYS95       0.0206
     59  CE        12.7470    6.0970  -67.7770 C.3    95  LYS95       0.1093
     60  NZ        11.9730    5.0530  -68.4960 N.3    95  LYS95      -0.1314
     61  N         15.1920    5.9570  -57.1570 N.3    99  LEU99      -0.1231
     62  CA        14.4660    7.1910  -57.4210 C.3    99  LEU99       0.1693
     63  C         13.7770    7.7990  -56.1770 C.2    99  LEU99       0.2592
     64  O         12.9340    7.1670  -55.5560 O.2    99  LEU99      -0.2718
     65  CB        13.4500    6.9570  -58.5420 C.3    99  LEU99       0.0284
     66  CG        12.4290    8.0640  -58.7760 C.3    99  LEU99       0.0019
     67  CD1       13.1280    9.2430  -59.4280 C.3    99  LEU99       0.0001
     68  CD2       11.2690    7.5590  -59.6230 C.3    99  LEU99       0.0001
     69  N         14.2020    9.0150  -55.8280 N.am  100  HIS100     -0.1976
     70  CA        13.4990    9.9750  -54.9360 C.3   100  HIS100      0.1656
     71  C         13.7600    9.8640  -53.4510 C.2   100  HIS100      0.2291
     72  O         13.0560   10.4610  -52.6300 O.2   100  HIS100     -0.2864
     73  CB        12.0000   10.1320  -55.2860 C.3   100  HIS100      0.0771
     74  CG        11.7420   10.9850  -56.5470 C.ar  100  HIS100      0.0820
     75  ND1       12.5410   12.0570  -56.9070 N.ar  100  HIS100     -0.2267
     76  CD2       10.7240   10.9230  -57.5040 C.ar  100  HIS100      0.1154
     77  CE1       12.0620   12.6190  -58.0360 C.ar  100  HIS100      0.1986
     78  NE2       10.9560   11.9270  -58.4090 N.ar  100  HIS100     -0.2212
     79  N          9.2550   18.0070  -54.6900 N.3   176  HIS176     -0.1241
     80  CA         8.4390   17.6370  -55.8400 C.3   176  HIS176      0.1621
     81  C          7.1380   18.4260  -55.9250 C.2   176  HIS176      0.2264
     82  O          6.1050   17.9370  -56.3850 O.2   176  HIS176     -0.2867
     83  CB         8.1720   16.1400  -55.7550 C.3   176  HIS176      0.0745
     84  CG         8.0280   15.4790  -57.0840 C.ar  176  HIS176      0.0817
     85  ND1        7.1270   15.8900  -58.0030 N.ar  176  HIS176     -0.2268
     86  CD2        8.6980   14.3990  -57.6400 C.ar  176  HIS176      0.1154
     87  CE1        7.2250   15.1010  -59.0880 C.ar  176  HIS176      0.1986
     88  NE2        8.1830   14.1950  -58.8590 N.ar  176  HIS176     -0.2212
     89  N         16.9990    8.4930  -68.2570 N.3   202  LEU202     -0.1245
     90  CA        16.8380    9.8250  -67.6390 C.3   202  LEU202      0.1561
     91  C         17.9910   10.3040  -66.7500 C.2   202  LEU202      0.2260
     92  O         17.7610   10.9900  -65.7550 O.2   202  LEU202     -0.2867
     93  CB        15.5020    9.9300  -66.8950 C.3   202  LEU202      0.0270
     94  CG        14.2860    9.9490  -67.8180 C.3   202  LEU202      0.0019
     95  CD1       12.9940    9.7890  -67.0320 C.3   202  LEU202      0.0001
     96  CD2       14.2640   11.2340  -68.6270 C.3   202  LEU202      0.0001
     97  N         10.0460   16.8580  -68.8710 N.3   229  ASP229     -0.1239
     98  CA        10.6440   16.1480  -67.7670 C.3   229  ASP229      0.1674
     99  C         12.1280   16.4790  -67.7820 C.2   229  ASP229      0.2266
    100  O         12.9740   15.6010  -67.9330 O.2   229  ASP229     -0.2867
    101  CB        10.3790   14.6490  -67.8620 C.3   229  ASP229      0.1410
    102  CG        10.7980   13.8900  -66.5920 C.2   229  ASP229      0.3668
    103  OD1       11.3160   14.5110  -65.6120 O.co2 229  ASP229     -0.2456
    104  OD2       10.6180   12.6520  -66.5930 O.co2 229  ASP229     -0.2456
    105  N         14.1090   20.5900  -61.8040 N.3   268  VAL268     -0.1245
    106  CA        13.3730   19.6720  -62.6600 C.3   268  VAL268      0.1561
    107  C         11.9910   20.2730  -62.9040 C.2   268  VAL268      0.2260
    108  O         11.3090   20.7670  -61.9740 O.2   268  VAL268     -0.2867
    109  CB        13.3040   18.2350  -62.0820 C.3   268  VAL268      0.0252
    110  CG1       12.2220   17.3880  -62.7560 C.3   268  VAL268      0.0019
    111  CG2       14.6540   17.5370  -62.2200 C.3   268  VAL268      0.0019
    112  N          8.4870   19.0800  -64.5280 N.3   270  TYR270     -0.1241
    113  CA         7.7350   17.9210  -64.9490 C.3   270  TYR270      0.1605
    114  C          6.2330   18.2280  -65.0050 C.2   270  TYR270      0.2264
    115  O          5.6720   18.8030  -64.0570 O.2   270  TYR270     -0.2867
    116  CB         8.0160   16.7600  -63.9880 C.3   270  TYR270      0.0534
    117  CG         7.1890   15.5320  -64.2410 C.ar  270  TYR270     -0.0201
    118  CD1        7.5310   14.6260  -65.2550 C.ar  270  TYR270     -0.0009
    119  CD2        6.0520   15.2740  -63.4740 C.ar  270  TYR270     -0.0009
    120  CE1        6.7600   13.4980  -65.4880 C.ar  270  TYR270      0.0417
    121  CE2        5.2760   14.1480  -63.6920 C.ar  270  TYR270      0.0417
    122  CZ         5.6320   13.2610  -64.6910 C.ar  270  TYR270      0.1957
    123  OH         4.8520   12.1520  -64.8770 O.3   270  TYR270     -0.2866
    124  N          4.0180   15.6470  -66.7510 N.3   272  ALA272     -0.1245
    125  CA         3.4420   14.4100  -67.3230 C.3   272  ALA272      0.1562
    126  C          3.2780   14.5370  -68.8470 C.2   272  ALA272      0.2260
    127  O          4.1440   15.1010  -69.5080 O.2   272  ALA272     -0.2867
    128  CB         2.1150   14.0640  -66.6440 C.3   272  ALA272      0.0290
    129  N         10.5790   21.8310  -59.6800 N.3   282  GLU282     -0.1245
    130  CA        11.1790   21.1180  -58.5650 C.3   282  GLU282      0.1567
    131  C         12.5880   21.5900  -58.3190 C.2   282  GLU282      0.2260
    132  O         13.4930   21.2030  -59.0540 O.2   282  GLU282     -0.2867
    133  CB        11.2460   19.6000  -58.8420 C.3   282  GLU282      0.0388
    134  CG         9.9760   18.9160  -59.2810 C.3   282  GLU282      0.1160
    135  CD        10.2000   17.4180  -59.5080 C.2   282  GLU282      0.3649
    136  OE1       11.1320   16.8260  -58.8910 O.co2 282  GLU282     -0.2457
    137  OE2        9.4390   16.8080  -60.2880 O.co2 282  GLU282     -0.2457
    138  N         16.2780   21.5900  -56.7610 N.3   284  TYR284     -0.1241
    139  CA        17.2180   20.6110  -56.1930 C.3   284  TYR284      0.1605
    140  C         18.5500   21.2400  -55.8180 C.2   284  TYR284      0.2264
    141  O         19.0640   22.1000  -56.5400 O.2   284  TYR284     -0.2867
    142  CB        17.5820   19.5150  -57.1920 C.3   284  TYR284      0.0534
    143  CG        16.5210   18.5870  -57.7180 C.ar  284  TYR284     -0.0201
    144  CD1       15.1990   18.6100  -57.2510 C.ar  284  TYR284     -0.0009
    145  CD2       16.8700   17.6230  -58.6890 C.ar  284  TYR284     -0.0009
    146  CE1       14.2530   17.7200  -57.7640 C.ar  284  TYR284      0.0417
    147  CE2       15.9380   16.7360  -59.2040 C.ar  284  TYR284      0.0417
    148  CZ        14.6320   16.7900  -58.7470 C.ar  284  TYR284      0.1957
    149  OH        13.7300   15.9010  -59.2740 O.3   284  TYR284     -0.2866
@<TRIPOS>BOND
     1   127   126    2
     2    97    98    1
     3   126   125    1
     4    96    94    1
     5    60    59    1
     6    89    90    1
     7   100    99    2
     8   101    98    1
     9   101   102    1
    10    94    95    1
    11    94    93    1
    12    99    98    1
    13    59    58    1
    14    90    93    1
    15    90    91    1
    16    51    49   ar
    17    47    46    2
    18   125   124    1
    19   125   128    1
    20    57    58    1
    21    57    56    1
    22    48    49    1
    23    48    45    1
    24    49    50   ar
    25    91    92    2
    26   104   102   ar
    27   102   103   ar
    28    46    45    1
    29    46    52   am
    30    45    44    1
    31    53    56    1
    32    53    52    1
    33    53    54    1
    34   120   118   ar
    35   120   122   ar
    36   118   117   ar
    37    55    54    2
    38   114   113    1
    39   114   115    2
    40   113   112    1
    41   113   116    1
    42   123   122    1
    43   122   121   ar
    44   117   116    1
    45   117   119   ar
    46    34    32    1
    47    43    41   ar
    48   121   119   ar
    49    32    33    1
    50    32    31    2
    51    31    30    1
    52    30    29    1
    53    41    42   ar
    54    41    40    1
    55   107   106    1
    56   107   108    2
    57   110   109    1
    58   106   109    1
    59   106   105    1
    60    40    39    1
    61   111   109    1
    62    38    37    2
    63    29    28    1
    64    37    36    1
    65    22    21    2
    66    28    25    1
    67    39    36    1
    68    23    21   am
    69    21    20    1
    70    36    35    1
    71   137   135   ar
    72    14    13    1
    73    25    24    1
    74    25    26    1
    75    15    13    1
    76   129   130    1
    77    27    26    2
    78    68    66    1
    79    24    18   am
    80   135   134    1
    81   135   136   ar
    82    20    17    1
    83    67    66    1
    84   134   133    1
    85   149   148    1
    86   147   148   ar
    87   147   145   ar
    88    13    12    1
    89    87    88   ar
    90    87    85   ar
    91   132   131    2
    92    88    86   ar
    93   133   130    1
    94    66    65    1
    95   148   146   ar
    96   145   143   ar
    97   130   131    1
    98    65    62    1
    99    78    77   ar
   100    78    76   ar
   101    18    17    1
   102    18    19    2
   103    17    16    1
   104    12     9    1
   105    77    75   ar
   106    85    84   ar
   107   146   144   ar
   108   143   144   ar
   109   143   142    1
   110    86    84   ar
   111    76    74   ar
   112    62    61    1
   113    62    63    1
   114    11    10    2
   115   142   139    1
   116     9    10    1
   117     9     8    1
   118    84    83    1
   119    75    74   ar
   120     6     5    1
   121   138   139    1
   122    74    73    1
   123   141   140    2
   124     4     3    2
   125    82    81    2
   126   139   140    1
   127    63    69   am
   128    63    64    2
   129     8     3   am
   130    81    80    1
   131     3     2    1
   132    80    83    1
   133    80    79    1
   134    69    70    1
   135     5     2    1
   136     5     7    1
   137    73    70    1
   138     2     1    1
   139    70    71    1
   140    71    72    2
