@<TRIPOS>MOLECULE
tmp/4bzhA00.pdb
 105 100 0 0 0
SMALL
GASTEIGER

@<TRIPOS>ATOM
      1  N        -19.7800    5.6970    0.1290 N.3    75  SER75      -0.1202
      2  CA       -19.6960    4.6720    1.1730 C.3    75  SER75       0.2020
      3  C        -19.9980    3.2610    0.6250 C.2    75  SER75       0.2618
      4  O        -20.8920    3.1090   -0.1840 O.2    75  SER75      -0.2717
      5  CB       -20.6040    5.0450    2.3420 C.3    75  SER75       0.2103
      6  OG       -21.8150    5.5440    1.8410 O.3    75  SER75      -0.2182
      7  N        -19.2380    2.2450    1.0400 N.am   76  ASP76      -0.1973
      8  CA       -19.4100    0.8590    0.5470 C.3    76  ASP76       0.1709
      9  C        -19.4830    0.7770   -0.9790 C.2    76  ASP76       0.2293
     10  O        -19.9830   -0.1980   -1.5340 O.2    76  ASP76      -0.2864
     11  CB       -20.6750    0.2030    1.1340 C.3    76  ASP76       0.1436
     12  CG       -20.7970    0.3630    2.6560 C.2    76  ASP76       0.3671
     13  OD1      -19.7610    0.4210    3.3750 O.co2  76  ASP76      -0.2456
     14  OD2      -21.9580    0.4160    3.1290 O.co2  76  ASP76      -0.2456
     15  N        -21.5490    2.0710   -2.7780 N.3    78  THR78      -0.1203
     16  CA       -22.9670    1.8430   -3.1300 C.3    78  THR78       0.1994
     17  C        -23.8330    3.1020   -3.0240 C.2    78  THR78       0.2617
     18  O        -23.7950    3.8340   -2.0250 O.2    78  THR78      -0.2717
     19  CB       -23.5950    0.6900   -2.3050 C.3    78  THR78       0.1784
     20  OG1      -22.7930   -0.4860   -2.4420 O.3    78  THR78      -0.2211
     21  CG2      -24.9890    0.3360   -2.8080 C.3    78  THR78       0.0376
     22  N        -24.6080    3.3540   -4.0710 N.am   79  PHE79      -0.1975
     23  CA       -25.6020    4.4030   -4.0360 C.3    79  PHE79       0.1639
     24  C        -26.7400    3.9810   -4.9560 C.2    79  PHE79       0.2290
     25  O        -26.6060    3.0160   -5.7160 O.2    79  PHE79      -0.2864
     26  CB       -25.0060    5.7670   -4.4510 C.3    79  PHE79       0.0560
     27  CG       -24.6430    5.8520   -5.9050 C.ar   79  PHE79      -0.0200
     28  CD1      -25.5910    6.2260   -6.8590 C.ar   79  PHE79      -0.0042
     29  CD2      -23.3500    5.5310   -6.3360 C.ar   79  PHE79      -0.0042
     30  CE1      -25.2560    6.2840   -8.2050 C.ar   79  PHE79      -0.0003
     31  CE2      -23.0030    5.5910   -7.6910 C.ar   79  PHE79      -0.0003
     32  CZ       -23.9630    5.9720   -8.6260 C.ar   79  PHE79      -0.0000
     33  N        -17.8710   11.5700   10.0160 N.3   199  ASP199     -0.1239
     34  CA       -17.6950   10.4050   10.8820 C.3   199  ASP199      0.1674
     35  C        -16.2610    9.8550   10.7630 C.2   199  ASP199      0.2266
     36  O        -15.4190   10.4370   10.0790 O.2   199  ASP199     -0.2867
     37  CB       -18.7680    9.3270   10.6170 C.3   199  ASP199      0.1410
     38  CG       -18.6670    8.6800    9.2270 C.2   199  ASP199      0.3668
     39  OD1      -17.6390    8.8020    8.5320 O.co2 199  ASP199     -0.2456
     40  OD2      -19.6430    8.0120    8.8280 O.co2 199  ASP199     -0.2456
     41  N        -15.1530    7.5890    9.0630 N.3   201  ARG201     -0.1245
     42  CA       -14.8840    7.0900    7.7130 C.3   201  ARG201      0.1563
     43  C        -14.7720    8.2340    6.7020 C.2   201  ARG201      0.2260
     44  O        -14.7890    8.0110    5.4970 O.2   201  ARG201     -0.2867
     45  CB       -15.9440    6.0620    7.2740 C.3   201  ARG201      0.0307
     46  CG       -16.0970    4.8120    8.1640 C.3   201  ARG201      0.0489
     47  CD       -17.3960    4.0380    7.8810 C.3   201  ARG201      0.2205
     48  NE       -17.4680    3.5890    6.4850 N.pl3 201  ARG201     -0.0865
     49  CZ       -18.5550    3.1360    5.8560 C.cat 201  ARG201      0.5346
     50  NH1      -19.7150    3.0500    6.4830 N.pl3 201  ARG201      0.1354
     51  NH2      -18.4810    2.7620    4.5780 N.pl3 201  ARG201      0.1354
     52  N        -16.8670   10.5130    6.0380 N.3   203  LEU203     -0.1231
     53  CA       -18.1700   10.6050    5.4020 C.3   203  LEU203      0.1678
     54  C        -18.9750   11.6780    6.1200 C.2   203  LEU203      0.2434
     55  O        -18.8670   11.8190    7.3430 O.2   203  LEU203     -0.2733
     56  CB       -18.8990    9.2520    5.4970 C.3   203  LEU203      0.0284
     57  CG       -18.2740    8.0510    4.7830 C.3   203  LEU203      0.0019
     58  CD1      -18.9350    6.7660    5.2610 C.3   203  LEU203      0.0001
     59  CD2      -18.3260    8.1670    3.2590 C.3   203  LEU203      0.0001
     60  N        -19.7610   12.4580    5.3640 N.am  204  PRO204     -0.2718
     61  CA       -20.5830   13.5300    5.9330 C.3   204  PRO204      0.1535
     62  C        -21.6960   12.9360    6.7760 C.2   204  PRO204      0.2599
     63  O        -22.2700   11.9190    6.3880 O.2   204  PRO204     -0.2715
     64  CB       -21.1980   14.1930    4.6970 C.3   204  PRO204      0.0310
     65  CG       -20.3340   13.7660    3.5570 C.3   204  PRO204      0.0237
     66  CD       -19.9100   12.3750    3.9030 C.3   204  PRO204      0.0939
     67  N        -21.9890   13.5350    7.9230 N.am  205  THR205     -0.1951
     68  CA       -23.0990   13.0650    8.7370 C.3   205  THR205      0.1897
     69  C        -24.3740   13.6700    8.2070 C.2   205  THR205      0.2313
     70  O        -25.4370   13.0550    8.2680 O.2   205  THR205     -0.2863
     71  CB       -22.9510   13.4570   10.2080 C.3   205  THR205      0.1794
     72  OG1      -22.8090   14.8860   10.3230 O.3   205  THR205     -0.2208
     73  CG2      -21.7500   12.7670   10.8070 C.3   205  THR205      0.0378
     74  N        -19.6740   11.7960   -0.7170 N.3   289  ASN289     -0.1240
     75  CA       -20.8410   10.9450   -0.5590 C.3   289  ASN289      0.1653
     76  C        -22.1410   11.6320   -0.9460 C.2   289  ASN289      0.2266
     77  O        -23.2230   11.2720   -0.4510 O.2   289  ASN289     -0.2867
     78  CB       -20.9160   10.3840    0.8650 C.3   289  ASN289      0.1155
     79  CG       -21.5120    8.9790    0.9120 C.2   289  ASN289      0.2627
     80  OD1      -21.4380    8.2120   -0.0580 O.2   289  ASN289     -0.2716
     81  ND2      -22.0930    8.6360    2.0420 N.am  289  ASN289     -0.0877
     82  N        -25.3830    9.8190   -1.6490 N.3   292  ASN292     -0.1225
     83  CA       -26.0930    9.1300   -0.5750 C.3   292  ASN292      0.1785
     84  C        -26.7230   10.0050    0.4860 C.2   292  ASN292      0.2597
     85  O        -26.9750    9.5600    1.5930 O.2   292  ASN292     -0.2718
     86  CB       -25.1740    8.0820    0.0670 C.3   292  ASN292      0.1169
     87  CG       -25.0420    6.8460   -0.7840 C.2   292  ASN292      0.2627
     88  OD1      -26.0440    6.2940   -1.2240 O.2   292  ASN292     -0.2716
     89  ND2      -23.8130    6.4140   -1.0340 N.am  292  ASN292     -0.0877
     90  N        -26.9960   11.2510    0.1310 N.am  293  LEU293     -0.1966
     91  CA       -27.5210   12.2280    1.0700 C.3   293  LEU293      0.1728
     92  C        -28.9550   12.6530    0.7100 C.2   293  LEU293      0.2616
     93  O        -29.2690   12.9230   -0.4590 O.2   293  LEU293     -0.2715
     94  CB       -26.5550   13.4040    1.1410 C.3   293  LEU293      0.0311
     95  CG       -25.2670   13.1150    1.9350 C.3   293  LEU293      0.0022
     96  CD1      -24.2300   14.1930    1.6980 C.3   293  LEU293      0.0001
     97  CD2      -25.5080   12.9820    3.4370 C.3   293  LEU293      0.0001
     98  N        -29.8440   12.6570    1.6970 N.am  294  ASP294     -0.1971
     99  CA       -31.2170   13.0880    1.4470 C.3   294  ASP294      0.1709
    100  C        -31.3040   14.6030    1.7510 C.2   294  ASP294      0.2293
    101  O        -32.0400   15.0790    2.6390 O.2   294  ASP294     -0.2864
    102  CB       -32.2170   12.2190    2.2120 C.3   294  ASP294      0.1436
    103  CG       -32.2970   10.7680    1.6590 C.2   294  ASP294      0.3671
    104  OD1      -32.6820   10.5560    0.4820 O.co2 294  ASP294     -0.2456
    105  OD2      -31.9960    9.8180    2.4120 O.co2 294  ASP294     -0.2456
@<TRIPOS>BOND
     1    32    30   ar
     2    32    31   ar
     3    30    28   ar
     4    31    29   ar
     5    28    27   ar
     6    29    27   ar
     7    27    26    1
     8    25    24    2
     9    24    23    1
    10    26    23    1
    11    22    23    1
    12    22    17   am
    13    16    17    1
    14    16    15    1
    15    16    19    1
    16    17    18    2
    17    21    19    1
    18    20    19    1
    19    82    83    1
    20    10     9    2
    21    88    87    2
    22    89    87   am
    23     9     8    1
    24    76    75    1
    25    76    77    2
    26    87    86    1
    27    74    75    1
    28    83    86    1
    29    83    84    1
    30    75    78    1
    31    93    92    2
    32     4     3    2
    33    80    79    2
    34     1     2    1
    35    90    84   am
    36    90    91    1
    37   104   103   ar
    38    84    85    2
    39     8     7    1
    40     8    11    1
    41     3     7   am
    42     3     2    1
    43    92    91    1
    44    92    98   am
    45    78    79    1
    46    79    81   am
    47    91    94    1
    48    11    12    1
    49    94    95    1
    50     2     5    1
    51    99    98    1
    52    99   100    1
    53    99   102    1
    54   103   102    1
    55   103   105   ar
    56    96    95    1
    57   100   101    2
    58     6     5    1
    59    95    97    1
    60    12    14   ar
    61    12    13   ar
    62    59    57    1
    63    65    66    1
    64    65    64    1
    65    66    60    1
    66    51    49    1
    67    64    61    1
    68    57    58    1
    69    57    56    1
    70    60    61    1
    71    60    54   am
    72    53    56    1
    73    53    52    1
    74    53    54    1
    75    44    43    2
    76    49    50    1
    77    49    48    2
    78    61    62    1
    79    54    55    2
    80    63    62    2
    81    48    47    1
    82    43    42    1
    83    62    67   am
    84    45    42    1
    85    45    46    1
    86    42    41    1
    87    47    46    1
    88    67    68    1
    89    69    70    2
    90    69    68    1
    91    39    38   ar
    92    68    71    1
    93    40    38   ar
    94    38    37    1
    95    33    34    1
    96    36    35    2
    97    71    72    1
    98    71    73    1
    99    37    34    1
   100    35    34    1
