@<TRIPOS>MOLECULE
tmp/4bznA00.pdb
 169 158 0 0 0
SMALL
GASTEIGER

@<TRIPOS>ATOM
      1  N         16.7840  -38.2690    5.1640 N.3    12  LEU12      -0.1231
      2  CA        18.1880  -38.0920    5.5580 C.3    12  LEU12       0.1693
      3  C         18.4160  -36.7870    6.3050 C.2    12  LEU12       0.2592
      4  O         19.1980  -36.7370    7.2430 O.2    12  LEU12      -0.2718
      5  CB        19.1140  -38.1960    4.3420 C.3    12  LEU12       0.0284
      6  CG        19.2110  -39.5680    3.6700 C.3    12  LEU12       0.0019
      7  CD1       19.9640  -39.4540    2.3490 C.3    12  LEU12       0.0001
      8  CD2       19.8830  -40.5870    4.5740 C.3    12  LEU12       0.0001
      9  N         17.7290  -35.7280    5.9050 N.am   13  GLY13      -0.1957
     10  CA        17.8780  -34.4350    6.5690 C.3    13  GLY13       0.1869
     11  C         16.8570  -33.4710    6.0410 C.2    13  GLY13       0.2309
     12  O         16.3160  -33.6630    4.9610 O.2    13  GLY13      -0.2863
     13  N         17.2970  -25.9330    3.3680 N.3    17  PHE17      -0.1241
     14  CA        17.5470  -26.4480    2.0250 C.3    17  PHE17       0.1605
     15  C         16.3870  -27.2710    1.4700 C.2    17  PHE17       0.2264
     16  O         16.3710  -27.5910    0.2810 O.2    17  PHE17      -0.2867
     17  CB        18.8080  -27.3230    2.0220 C.3    17  PHE17       0.0534
     18  CG        18.8070  -28.4110    3.0730 C.ar   17  PHE17      -0.0203
     19  CD1       18.1990  -29.6500    2.8280 C.ar   17  PHE17      -0.0042
     20  CD2       19.4360  -28.2060    4.2960 C.ar   17  PHE17      -0.0042
     21  CE1       18.2090  -30.6520    3.7920 C.ar   17  PHE17      -0.0003
     22  CE2       19.4480  -29.2020    5.2700 C.ar   17  PHE17      -0.0003
     23  CZ        18.8410  -30.4320    5.0110 C.ar   17  PHE17      -0.0000
     24  N         15.5520  -33.9680    2.2800 N.3    20  VAL20      -0.1245
     25  CA        16.2940  -34.9200    1.4820 C.3    20  VAL20       0.1561
     26  C         16.0580  -36.3410    1.9870 C.2    20  VAL20       0.2260
     27  O         16.3030  -36.6370    3.1520 O.2    20  VAL20      -0.2867
     28  CB        17.8140  -34.5930    1.4900 C.3    20  VAL20       0.0252
     29  CG1       18.6160  -35.6630    0.7650 C.3    20  VAL20       0.0019
     30  CG2       18.0680  -33.2220    0.8610 C.3    20  VAL20       0.0019
     31  N         19.7620  -39.8210   -3.6060 N.3    33  ALA33      -0.1245
     32  CA        19.0940  -38.9600   -2.6490 C.3    33  ALA33       0.1562
     33  C         18.0090  -38.2130   -3.3880 C.2    33  ALA33       0.2260
     34  O         18.1800  -37.8400   -4.5460 O.2    33  ALA33      -0.2867
     35  CB        20.0790  -37.9870   -1.9970 C.3    33  ALA33       0.0290
     36  N         15.7690  -34.9430   -3.1880 N.3    35  LYS35      -0.1245
     37  CA        15.6650  -33.6520   -2.5460 C.3    35  LYS35       0.1561
     38  C         14.4230  -32.8950   -2.9930 C.2    35  LYS35       0.2260
     39  O         14.2220  -32.6480   -4.1950 O.2    35  LYS35      -0.2867
     40  CB        16.9290  -32.8130   -2.8020 C.3    35  LYS35       0.0271
     41  CG        16.8670  -31.4240   -2.1860 C.3    35  LYS35       0.0035
     42  CD        18.1680  -30.6700   -2.4530 C.3    35  LYS35       0.0206
     43  CE        18.1210  -29.2530   -1.9320 C.3    35  LYS35       0.1093
     44  NZ        19.4440  -28.5830   -2.1660 N.3    35  LYS35      -0.1314
     45  N         19.6610  -24.1600   -8.3570 N.3    57  GLU57      -0.1245
     46  CA        20.4350  -25.3610   -8.0890 C.3    57  GLU57       0.1567
     47  C         20.4270  -26.3200   -9.2680 C.2    57  GLU57       0.2260
     48  O         21.4290  -26.9630   -9.5450 O.2    57  GLU57      -0.2867
     49  CB        19.9850  -26.0960   -6.8070 C.3    57  GLU57       0.0388
     50  CG        20.8270  -27.3450   -6.5770 C.3    57  GLU57       0.1160
     51  CD        20.6600  -27.9790   -5.2030 C.2    57  GLU57       0.3649
     52  OE1       19.5530  -27.8710   -4.6420 O.co2  57  GLU57      -0.2457
     53  OE2       21.6450  -28.5980   -4.7150 O.co2  57  GLU57      -0.2457
     54  N         28.5670  -33.5110   -6.1940 N.3    72  ILE72      -0.1245
     55  CA        27.4230  -34.4010   -6.2400 C.3    72  ILE72       0.1561
     56  C         26.7430  -34.2790   -7.6100 C.2    72  ILE72       0.2260
     57  O         26.5560  -33.1730   -8.1270 O.2    72  ILE72      -0.2867
     58  CB        26.4460  -34.0780   -5.0960 C.3    72  ILE72       0.0252
     59  CG1       25.6800  -35.3380   -4.6980 C.3    72  ILE72       0.0019
     60  CG2       25.5800  -32.8510   -5.4290 C.3    72  ILE72       0.0019
     61  CD1       26.5740  -36.3380   -3.9840 C.3    72  ILE72       0.0001
     62  N         19.7250  -36.9830   -6.7880 N.3    88  LEU88      -0.1231
     63  CA        21.1630  -36.8640   -6.6630 C.3    88  LEU88       0.1693
     64  C         21.7680  -38.2320   -6.5050 C.2    88  LEU88       0.2592
     65  O         21.1590  -39.1120   -5.8940 O.2    88  LEU88      -0.2718
     66  CB        21.5050  -36.0080   -5.4340 C.3    88  LEU88       0.0284
     67  CG        20.7760  -34.6540   -5.3750 C.3    88  LEU88       0.0019
     68  CD1       20.9470  -33.9700   -4.0330 C.3    88  LEU88       0.0001
     69  CD2       21.2440  -33.7450   -6.5070 C.3    88  LEU88       0.0001
     70  N         22.9810  -38.4120   -7.0150 N.am   89  GLU89      -0.1966
     71  CA        23.7290  -39.6350   -6.7220 C.3    89  GLU89       0.1733
     72  C         23.9700  -39.6830   -5.2120 C.2    89  GLU89       0.2616
     73  O         24.1550  -38.6390   -4.5800 O.2    89  GLU89      -0.2715
     74  CB        25.0620  -39.6550   -7.4820 C.3    89  GLU89       0.0429
     75  CG        26.2220  -39.0750   -6.6840 C.3    89  GLU89       0.1163
     76  CD        27.5090  -38.9390   -7.4760 C.2    89  GLU89       0.3649
     77  OE1       28.1140  -39.9770   -7.8370 O.co2  89  GLU89      -0.2457
     78  OE2       27.9180  -37.7810   -7.7050 O.co2  89  GLU89      -0.2457
     79  N         23.9500  -40.8730   -4.6270 N.am   90  ARG90      -0.1964
     80  CA        24.2430  -41.0100   -3.2060 C.3    90  ARG90       0.1714
     81  C         25.3300  -42.0570   -2.9770 C.2    90  ARG90       0.2458
     82  O         25.1370  -43.2290   -3.2920 O.2    90  ARG90      -0.2730
     83  CB        22.9690  -41.3220   -2.4010 C.3    90  ARG90       0.0347
     84  CG        23.2080  -41.8650   -1.0000 C.3    90  ARG90       0.0492
     85  CD        21.9050  -42.0620   -0.2300 C.3    90  ARG90       0.2205
     86  NE        21.0420  -43.1100   -0.7940 N.pl3  90  ARG90      -0.0865
     87  CZ        21.1440  -44.4190   -0.5430 C.cat  90  ARG90       0.5346
     88  NH1       22.0930  -44.9080    0.2620 N.pl3  90  ARG90       0.1354
     89  NH2       20.2840  -45.2570   -1.1130 N.pl3  90  ARG90       0.1354
     90  N         26.4900  -41.6240   -2.4490 N.am   91  PRO91      -0.2727
     91  CA        27.5490  -42.5280   -2.0100 C.3    91  PRO91       0.1402
     92  C         27.0530  -43.3580   -0.8370 C.2    91  PRO91       0.2269
     93  O         26.2320  -42.8920   -0.0450 O.2    91  PRO91      -0.2865
     94  CB        28.6600  -41.5730   -1.5360 C.3    91  PRO91       0.0296
     95  CG        28.3590  -40.2710   -2.2020 C.3    91  PRO91       0.0237
     96  CD        26.8650  -40.2050   -2.2660 C.3    91  PRO91       0.0939
     97  N         28.0860  -43.2640    3.5530 N.3    94  VAL94      -0.1231
     98  CA        28.3870  -41.8490    3.4720 C.3    94  VAL94       0.1692
     99  C         28.2630  -41.2240    4.8550 C.2    94  VAL94       0.2592
    100  O         27.5000  -41.6960    5.7090 O.2    94  VAL94      -0.2718
    101  CB        27.4440  -41.1480    2.4770 C.3    94  VAL94       0.0266
    102  CG1       26.0430  -41.0080    3.0600 C.3    94  VAL94       0.0020
    103  CG2       27.9910  -39.7830    2.0760 C.3    94  VAL94       0.0020
    104  N         29.0290  -40.1620    5.0730 N.am   95  GLN95      -0.1966
    105  CA        28.9200  -39.3770    6.2750 C.3    95  GLN95       0.1733
    106  C         29.3230  -37.9590    5.9190 C.2    95  GLN95       0.2616
    107  O         30.3140  -37.7640    5.2110 O.2    95  GLN95      -0.2715
    108  CB        29.8510  -39.9240    7.3520 C.3    95  GLN95       0.0408
    109  CG        29.7180  -39.1710    8.6670 C.3    95  GLN95       0.0908
    110  CD        30.5700  -39.7590    9.7770 C.2    95  GLN95       0.2608
    111  OE1       31.7310  -40.1010    9.5710 O.2    95  GLN95      -0.2717
    112  NE2       29.9910  -39.8630   10.9710 N.am   95  GLN95      -0.0878
    113  N         28.5650  -36.9750    6.3880 N.am   96  ASP96      -0.1971
    114  CA        28.9620  -35.5990    6.1090 C.3    96  ASP96       0.1709
    115  C         30.1680  -35.2120    6.9590 C.2    96  ASP96       0.2293
    116  O         30.4990  -35.8650    7.9720 O.2    96  ASP96      -0.2864
    117  CB        27.7950  -34.6010    6.2100 C.3    96  ASP96       0.1436
    118  CG        27.4030  -34.2710    7.6490 C.2    96  ASP96       0.3671
    119  OD1       28.0080  -34.8000    8.5980 O.co2  96  ASP96      -0.2456
    120  OD2       26.4830  -33.4470    7.8290 O.co2  96  ASP96      -0.2456
    121  N         29.5230  -34.3950   10.7850 N.3    99  ASP99      -0.1239
    122  CA        29.3940  -35.5320   11.7100 C.3    99  ASP99       0.1674
    123  C         30.7320  -36.1990   11.9190 C.2    99  ASP99       0.2266
    124  O         31.0440  -36.6460   13.0230 O.2    99  ASP99      -0.2867
    125  CB        28.3790  -36.5610   11.1960 C.3    99  ASP99       0.1410
    126  CG        26.9590  -36.0740   11.2930 C.2    99  ASP99       0.3668
    127  OD1       26.7130  -34.9840   11.8540 O.co2  99  ASP99      -0.2456
    128  OD2       26.0700  -36.7860   10.8000 O.co2  99  ASP99      -0.2456
    129  N         28.8790  -29.1640    6.5720 N.3   139  GLU139     -0.1231
    130  CA        27.5750  -29.8310    6.3570 C.3   139  GLU139      0.1699
    131  C         27.2710  -30.0440    4.8840 C.2   139  GLU139      0.2592
    132  O         26.4030  -30.8630    4.5230 O.2   139  GLU139     -0.2718
    133  CB        26.4390  -29.0290    6.9660 C.3   139  GLU139      0.0402
    134  CG        26.4330  -29.0230    8.4860 C.3   139  GLU139      0.1161
    135  CD        25.4500  -28.0080    9.0380 C.2   139  GLU139      0.3649
    136  OE1       25.5670  -26.8090    8.7180 O.co2 139  GLU139     -0.2457
    137  OE2       24.5440  -28.4160    9.7830 O.co2 139  GLU139     -0.2457
    138  N         27.9770  -29.3080    4.0280 N.am  140  ASN140     -0.1974
    139  CA        27.8040  -29.4690    2.5880 C.3   140  ASN140      0.1688
    140  C         28.8810  -30.2880    1.9020 C.2   140  ASN140      0.2292
    141  O         29.0550  -30.2280    0.6730 O.2   140  ASN140     -0.2864
    142  CB        27.6400  -28.1080    1.9360 C.3   140  ASN140      0.1181
    143  CG        26.2850  -27.5210    2.2040 C.2   140  ASN140      0.2629
    144  OD1       25.3260  -28.2640    2.4160 O.2   140  ASN140     -0.2716
    145  ND2       26.1850  -26.1940    2.1890 N.am  140  ASN140     -0.0877
    146  N         30.1340  -34.2700    1.6550 N.3   142  LEU142     -0.1245
    147  CA        29.8980  -35.6730    1.9770 C.3   142  LEU142      0.1561
    148  C         31.1610  -36.4510    1.7900 C.2   142  LEU142      0.2260
    149  O         31.9420  -36.1890    0.8550 O.2   142  LEU142     -0.2867
    150  CB        28.7970  -36.2760    1.0870 C.3   142  LEU142      0.0270
    151  CG        27.4190  -35.6260    1.2240 C.3   142  LEU142      0.0019
    152  CD1       26.4590  -36.3880    0.3280 C.3   142  LEU142      0.0001
    153  CD2       26.9580  -35.6170    2.6810 C.3   142  LEU142      0.0001
    154  N         27.9660  -30.8300   -1.8880 N.3   153  ILE153     -0.1231
    155  CA        26.5220  -30.8690   -2.1130 C.3   153  ILE153      0.1692
    156  C         25.8740  -29.5260   -1.8620 C.2   153  ILE153      0.2592
    157  O         26.4890  -28.6150   -1.3180 O.2   153  ILE153     -0.2718
    158  CB        25.8260  -31.9000   -1.1850 C.3   153  ILE153      0.0266
    159  CG1       26.0610  -31.5230    0.2880 C.3   153  ILE153      0.0019
    160  CG2       26.3030  -33.3050   -1.5230 C.3   153  ILE153      0.0020
    161  CD1       25.1530  -32.2550    1.2820 C.3   153  ILE153      0.0001
    162  N         24.6140  -29.4370   -2.2780 N.am  154  ASP154     -0.1974
    163  CA        23.7350  -28.2970   -2.0640 C.3   154  ASP154      0.1709
    164  C         24.1520  -26.9950   -2.7580 C.2   154  ASP154      0.2293
    165  O         24.7930  -26.1190   -2.1670 O.2   154  ASP154     -0.2864
    166  CB        23.4650  -28.0480   -0.5820 C.3   154  ASP154      0.1436
    167  CG        22.1810  -27.2580   -0.3620 C.2   154  ASP154      0.3671
    168  OD1       21.6900  -26.5990   -1.3090 O.co2 154  ASP154     -0.2456
    169  OD2       21.6510  -27.3090    0.7510 O.co2 154  ASP154     -0.2456
@<TRIPOS>BOND
     1    48    47    2
     2    47    46    1
     3    45    46    1
     4    57    56    2
     5    46    49    1
     6    77    76   ar
     7    78    76   ar
     8    56    55    1
     9    74    71    1
    10    74    75    1
    11    76    75    1
    12    70    71    1
    13    70    64   am
    14    49    50    1
    15    62    63    1
    16    71    72    1
    17    63    64    1
    18    63    66    1
    19    50    51    1
    20    69    67    1
    21    64    65    2
    22    55    54    1
    23    55    58    1
    24    66    67    1
    25    60    58    1
    26    67    68    1
    27    72    79   am
    28    72    73    2
    29    51    53   ar
    30    51    52   ar
    31    58    59    1
    32    59    61    1
    33    79    80    1
    34    34    33    2
    35    39    38    2
    36    31    32    1
    37    33    32    1
    38    82    81    2
    39    80    81    1
    40    80    83    1
    41    36    37    1
    42    38    37    1
    43    81    90   am
    44    40    37    1
    45    40    41    1
    46   164   165    2
    47   164   163    1
    48    32    35    1
    49    42    41    1
    50    42    43    1
    51    90    96    1
    52    90    91    1
    53    83    84    1
    54   162   163    1
    55   162   156   am
    56    96    95    1
    57    95    94    1
    58    44    43    1
    59   155   154    1
    60   155   156    1
    61   155   158    1
    62   163   166    1
    63    91    94    1
    64    91    92    1
    65   156   157    2
    66   160   158    1
    67   168   167   ar
    68   158   159    1
    69    89    87    1
    70    84    85    1
    71    92    93    2
    72    86    87    2
    73    86    85    1
    74   166   167    1
    75    87    88    1
    76   167   169   ar
    77    16    15    2
    78   159   161    1
    79   152   151    1
    80   141   140    2
    81    29    28    1
    82   149   148    2
    83    30    28    1
    84   150   151    1
    85   150   147    1
    86   151   153    1
    87    15    14    1
    88    25    28    1
    89    25    26    1
    90    25    24    1
    91   146   147    1
    92   148   147    1
    93   140   139    1
    94   142   143    1
    95   142   139    1
    96    26    27    2
    97    17    14    1
    98    17    18    1
    99    14    13    1
   100   103   101    1
   101   145   143   am
   102   143   144    2
   103     7     6    1
   104   101   102    1
   105   101    98    1
   106   139   138    1
   107    19    18   ar
   108    19    21   ar
   109    18    20   ar
   110    98    97    1
   111    98    99    1
   112     6     5    1
   113     6     8    1
   114    21    23   ar
   115   138   131   am
   116    20    22   ar
   117     5     2    1
   118   132   131    2
   119    99   104   am
   120    99   100    2
   121   131   130    1
   122    12    11    2
   123    23    22   ar
   124   104   105    1
   125     1     2    1
   126   107   106    2
   127     2     3    1
   128     9     3   am
   129     9    10    1
   130   106   105    1
   131   106   113   am
   132    11    10    1
   133   114   117    1
   134   114   113    1
   135   114   115    1
   136   117   118    1
   137   105   108    1
   138     3     4    2
   139   130   129    1
   140   130   133    1
   141   115   116    2
   142   133   134    1
   143   108   109    1
   144   118   120   ar
   145   118   119   ar
   146   134   135    1
   147   109   110    1
   148   136   135   ar
   149   135   137   ar
   150   111   110    2
   151   110   112   am
   152   121   122    1
   153   128   126   ar
   154   125   126    1
   155   125   122    1
   156   126   127   ar
   157   122   123    1
   158   123   124    2
