@<TRIPOS>MOLECULE
tmp/4bzoA00.pdb
 169 158 0 0 0
SMALL
GASTEIGER

@<TRIPOS>ATOM
      1  N         17.1080  -38.7090    5.2910 N.3    12  LEU12      -0.1231
      2  CA        18.5040  -38.4930    5.6900 C.3    12  LEU12       0.1693
      3  C         18.6930  -37.1680    6.4210 C.2    12  LEU12       0.2592
      4  O         19.4900  -37.0880    7.3440 O.2    12  LEU12      -0.2718
      5  CB        19.4520  -38.5910    4.4840 C.3    12  LEU12       0.0284
      6  CG        19.4510  -39.9300    3.7370 C.3    12  LEU12       0.0019
      7  CD1       20.3690  -39.8640    2.5180 C.3    12  LEU12       0.0001
      8  CD2       19.8680  -41.0760    4.6500 C.3    12  LEU12       0.0001
      9  N         17.9670  -36.1300    6.0270 N.am   13  GLY13      -0.1957
     10  CA        18.1030  -34.8190    6.6790 C.3    13  GLY13       0.1869
     11  C         17.0990  -33.8330    6.1530 C.2    13  GLY13       0.2309
     12  O         16.5040  -34.0310    5.0810 O.2    13  GLY13      -0.2863
     13  N         17.5860  -26.2160    3.4460 N.3    17  PHE17      -0.1241
     14  CA        17.7910  -26.7550    2.0970 C.3    17  PHE17       0.1605
     15  C         16.6400  -27.6250    1.5400 C.2    17  PHE17       0.2264
     16  O         16.6540  -27.9670    0.3530 O.2    17  PHE17      -0.2867
     17  CB        19.0840  -27.5920    2.0840 C.3    17  PHE17       0.0534
     18  CG        19.1110  -28.6900    3.1300 C.ar   17  PHE17      -0.0203
     19  CD1       18.4870  -29.9190    2.8900 C.ar   17  PHE17      -0.0042
     20  CD2       19.7610  -28.4920    4.3540 C.ar   17  PHE17      -0.0042
     21  CE1       18.4980  -30.9200    3.8560 C.ar   17  PHE17      -0.0003
     22  CE2       19.7900  -29.4920    5.3230 C.ar   17  PHE17      -0.0003
     23  CZ        19.1510  -30.7130    5.0710 C.ar   17  PHE17      -0.0000
     24  N         15.7720  -34.4140    2.3420 N.3    20  VAL20      -0.1245
     25  CA        16.5450  -35.3550    1.5490 C.3    20  VAL20       0.1561
     26  C         16.3570  -36.7880    2.0430 C.2    20  VAL20       0.2260
     27  O         16.5820  -37.0710    3.2250 O.2    20  VAL20      -0.2867
     28  CB        18.0560  -34.9960    1.5670 C.3    20  VAL20       0.0252
     29  CG1       18.8660  -36.0650    0.8540 C.3    20  VAL20       0.0019
     30  CG2       18.2960  -33.6330    0.9160 C.3    20  VAL20       0.0019
     31  N         19.9810  -40.3070   -3.6530 N.3    33  ALA33      -0.1245
     32  CA        19.3770  -39.4390   -2.6600 C.3    33  ALA33       0.1562
     33  C         18.3220  -38.6130   -3.3660 C.2    33  ALA33       0.2260
     34  O         18.5310  -38.1590   -4.4860 O.2    33  ALA33      -0.2867
     35  CB        20.4170  -38.5400   -1.9890 C.3    33  ALA33       0.0290
     36  N         15.9980  -35.3280   -3.1380 N.3    35  LYS35      -0.1245
     37  CA        15.9000  -34.0300   -2.4810 C.3    35  LYS35       0.1561
     38  C         14.6510  -33.3110   -2.9400 C.2    35  LYS35       0.2260
     39  O         14.4230  -33.1740   -4.1540 O.2    35  LYS35      -0.2867
     40  CB        17.1370  -33.1790   -2.8050 C.3    35  LYS35       0.0271
     41  CG        17.1130  -31.7730   -2.2210 C.3    35  LYS35       0.0035
     42  CD        18.4320  -31.0450   -2.4990 C.3    35  LYS35       0.0206
     43  CE        18.3960  -29.5880   -2.0490 C.3    35  LYS35       0.1093
     44  NZ        19.7610  -28.9710   -2.0440 N.3    35  LYS35      -0.1314
     45  N         20.0170  -24.5130   -8.4120 N.3    57  GLU57      -0.1245
     46  CA        20.7690  -25.7570   -8.1730 C.3    57  GLU57       0.1567
     47  C         20.7610  -26.6900   -9.3890 C.2    57  GLU57       0.2260
     48  O         21.7630  -27.3410   -9.6670 O.2    57  GLU57      -0.2867
     49  CB        20.3020  -26.5020   -6.8830 C.3    57  GLU57       0.0388
     50  CG        21.0220  -27.8400   -6.6740 C.3    57  GLU57       0.1160
     51  CD        20.9750  -28.4090   -5.2440 C.2    57  GLU57       0.3649
     52  OE1       19.9190  -28.3010   -4.5740 O.co2  57  GLU57      -0.2457
     53  OE2       22.0090  -29.0000   -4.8050 O.co2  57  GLU57      -0.2457
     54  N         28.8890  -33.8100   -6.3480 N.3    72  ILE72      -0.1245
     55  CA        27.7790  -34.7650   -6.3710 C.3    72  ILE72       0.1561
     56  C         27.1130  -34.6840   -7.7510 C.2    72  ILE72       0.2260
     57  O         26.9800  -33.5870   -8.3180 O.2    72  ILE72      -0.2867
     58  CB        26.7670  -34.4620   -5.2400 C.3    72  ILE72       0.0252
     59  CG1       25.9980  -35.7350   -4.8380 C.3    72  ILE72       0.0019
     60  CG2       25.8980  -33.2400   -5.5870 C.3    72  ILE72       0.0019
     61  CD1       26.8480  -36.6310   -3.9460 C.3    72  ILE72       0.0001
     62  N         19.9910  -37.4230   -6.8530 N.3    88  LEU88      -0.1231
     63  CA        21.4320  -37.2840   -6.7490 C.3    88  LEU88       0.1693
     64  C         22.0460  -38.6640   -6.5760 C.2    88  LEU88       0.2592
     65  O         21.4410  -39.5140   -5.9170 O.2    88  LEU88      -0.2718
     66  CB        21.7760  -36.4110   -5.5250 C.3    88  LEU88       0.0284
     67  CG        21.0680  -35.0530   -5.4700 C.3    88  LEU88       0.0019
     68  CD1       21.2430  -34.3970   -4.1100 C.3    88  LEU88       0.0001
     69  CD2       21.5660  -34.1420   -6.5980 C.3    88  LEU88       0.0001
     70  N         23.2410  -38.8800   -7.1330 N.am   89  GLU89      -0.1966
     71  CA        24.0160  -40.1030   -6.8550 C.3    89  GLU89       0.1733
     72  C         24.3150  -40.1530   -5.3560 C.2    89  GLU89       0.2616
     73  O         24.5950  -39.1180   -4.7510 O.2    89  GLU89      -0.2715
     74  CB        25.3430  -40.1080   -7.6420 C.3    89  GLU89       0.0429
     75  CG        26.4900  -39.3860   -6.9100 C.3    89  GLU89       0.1163
     76  CD        27.7960  -39.2700   -7.6950 C.2    89  GLU89       0.3649
     77  OE1       28.3260  -40.3070   -8.1650 O.co2  89  GLU89      -0.2457
     78  OE2       28.3100  -38.1310   -7.8190 O.co2  89  GLU89      -0.2457
     79  N         24.2590  -41.3360   -4.7550 N.am   90  ARG90      -0.1964
     80  CA        24.5490  -41.4860   -3.3230 C.3    90  ARG90       0.1714
     81  C         25.7030  -42.4690   -3.0820 C.2    90  ARG90       0.2458
     82  O         25.6040  -43.6320   -3.4360 O.2    90  ARG90      -0.2730
     83  CB        23.2840  -41.9170   -2.5620 C.3    90  ARG90       0.0347
     84  CG        23.5070  -42.4130   -1.1450 C.3    90  ARG90       0.0492
     85  CD        22.1910  -42.5830   -0.3850 C.3    90  ARG90       0.2205
     86  NE        21.2980  -43.6430   -0.8950 N.pl3  90  ARG90      -0.0865
     87  CZ        21.4200  -44.9480   -0.6220 C.cat  90  ARG90       0.5346
     88  NH1       22.4220  -45.4110    0.1300 N.pl3  90  ARG90       0.1354
     89  NH2       20.5490  -45.8120   -1.1280 N.pl3  90  ARG90       0.1354
     90  N         26.8180  -41.9950   -2.4980 N.am   91  PRO91      -0.2727
     91  CA        27.8800  -42.9390   -2.1390 C.3    91  PRO91       0.1402
     92  C         27.4460  -43.7970   -0.9610 C.2    91  PRO91       0.2269
     93  O         26.6440  -43.3610   -0.1210 O.2    91  PRO91      -0.2865
     94  CB        29.0460  -42.0370   -1.7300 C.3    91  PRO91       0.0296
     95  CG        28.7070  -40.6750   -2.2620 C.3    91  PRO91       0.0237
     96  CD        27.2110  -40.5960   -2.2390 C.3    91  PRO91       0.0939
     97  N         28.6870  -43.8870    3.5290 N.3    94  VAL94      -0.1231
     98  CA        28.9760  -42.4650    3.4630 C.3    94  VAL94       0.1692
     99  C         28.7590  -41.8260    4.8450 C.2    94  VAL94       0.2592
    100  O         28.0070  -42.3500    5.6790 O.2    94  VAL94      -0.2718
    101  CB        28.1200  -41.7900    2.3590 C.3    94  VAL94       0.0266
    102  CG1       26.6710  -41.6740    2.8040 C.3    94  VAL94       0.0020
    103  CG2       28.6670  -40.4170    1.9730 C.3    94  VAL94       0.0020
    104  N         29.4700  -40.7290    5.0990 N.am   95  GLN95      -0.1966
    105  CA        29.2460  -39.8860    6.2610 C.3    95  GLN95       0.1733
    106  C         29.6390  -38.4410    5.9010 C.2    95  GLN95       0.2616
    107  O         30.6430  -38.2280    5.2160 O.2    95  GLN95      -0.2715
    108  CB        30.0810  -40.3610    7.4360 C.3    95  GLN95       0.0408
    109  CG        29.8340  -39.5410    8.6960 C.3    95  GLN95       0.0908
    110  CD        30.5240  -40.1130    9.9170 C.2    95  GLN95       0.2608
    111  OE1       31.7270  -40.4070    9.8970 O.2    95  GLN95      -0.2717
    112  NE2       29.7610  -40.2680   10.9990 N.am   95  GLN95      -0.0878
    113  N         28.8550  -37.4590    6.3460 N.am   96  ASP96      -0.1971
    114  CA        29.2450  -36.0700    6.0860 C.3    96  ASP96       0.1709
    115  C         30.4550  -35.6760    6.9650 C.2    96  ASP96       0.2293
    116  O         30.7650  -36.3390    7.9770 O.2    96  ASP96      -0.2864
    117  CB        28.0550  -35.1050    6.1690 C.3    96  ASP96       0.1436
    118  CG        27.6610  -34.7330    7.5990 C.2    96  ASP96       0.3671
    119  OD1       28.2560  -35.2380    8.5730 O.co2  96  ASP96      -0.2456
    120  OD2       26.7430  -33.8900    7.7440 O.co2  96  ASP96      -0.2456
    121  N         29.7010  -34.7280   10.7830 N.3    99  ASP99      -0.1239
    122  CA        29.5480  -35.8800   11.6900 C.3    99  ASP99       0.1674
    123  C         30.8680  -36.5750   11.9600 C.2    99  ASP99       0.2266
    124  O         31.1290  -37.0110   13.0930 O.2    99  ASP99      -0.2867
    125  CB        28.5530  -36.8890   11.1290 C.3    99  ASP99       0.1410
    126  CG        27.1220  -36.4020   11.1950 C.2    99  ASP99       0.3668
    127  OD1       26.8480  -35.3950   11.8640 O.co2  99  ASP99      -0.2456
    128  OD2       26.2480  -37.0380   10.5710 O.co2  99  ASP99      -0.2456
    129  N         29.2870  -29.4990    6.6460 N.3   139  GLU139     -0.1231
    130  CA        27.9750  -30.1050    6.3760 C.3   139  GLU139      0.1699
    131  C         27.7010  -30.3120    4.8900 C.2   139  GLU139      0.2592
    132  O         26.8210  -31.0990    4.5430 O.2   139  GLU139     -0.2718
    133  CB        26.8460  -29.2810    6.9790 C.3   139  GLU139      0.0402
    134  CG        26.7720  -29.4000    8.4940 C.3   139  GLU139      0.1161
    135  CD        25.8360  -28.3760    9.1070 C.2   139  GLU139      0.3649
    136  OE1       26.0230  -27.1670    8.8720 O.co2 139  GLU139     -0.2457
    137  OE2       24.8990  -28.7850    9.8140 O.co2 139  GLU139     -0.2457
    138  N         28.4410  -29.6190    4.0180 N.am  140  ASN140     -0.1974
    139  CA        28.2330  -29.7910    2.5770 C.3   140  ASN140      0.1688
    140  C         29.2800  -30.6470    1.8860 C.2   140  ASN140      0.2292
    141  O         29.4470  -30.5600    0.6600 O.2   140  ASN140     -0.2864
    142  CB        28.0600  -28.4310    1.8960 C.3   140  ASN140      0.1181
    143  CG        26.6850  -27.8400    2.1480 C.2   140  ASN140      0.2629
    144  OD1       25.7240  -28.5870    2.3600 O.2   140  ASN140     -0.2716
    145  ND2       26.5680  -26.5130    2.1000 N.am  140  ASN140     -0.0877
    146  N         30.6380  -34.7540    1.6860 N.3   142  LEU142     -0.1245
    147  CA        30.3950  -36.1590    2.0100 C.3   142  LEU142      0.1561
    148  C         31.6740  -36.9110    1.8160 C.2   142  LEU142      0.2260
    149  O         32.4390  -36.6220    0.8910 O.2   142  LEU142     -0.2867
    150  CB        29.3310  -36.7690    1.0890 C.3   142  LEU142      0.0270
    151  CG        27.9540  -36.1400    1.1740 C.3   142  LEU142      0.0019
    152  CD1       26.9920  -36.9400    0.2810 C.3   142  LEU142      0.0001
    153  CD2       27.5350  -36.1030    2.6490 C.3   142  LEU142      0.0001
    154  N         28.3700  -31.1280   -1.9870 N.3   153  ILE153     -0.1231
    155  CA        26.9280  -31.2380   -2.1900 C.3   153  ILE153      0.1692
    156  C         26.2810  -29.8900   -1.9420 C.2   153  ILE153      0.2592
    157  O         26.8890  -28.9830   -1.3640 O.2   153  ILE153     -0.2718
    158  CB        26.2450  -32.2880   -1.2400 C.3   153  ILE153      0.0266
    159  CG1       26.5140  -31.9550    0.2350 C.3   153  ILE153      0.0019
    160  CG2       26.7250  -33.6890   -1.5600 C.3   153  ILE153      0.0020
    161  CD1       25.6430  -32.7150    1.2350 C.3   153  ILE153      0.0001
    162  N         25.0300  -29.7900   -2.3840 N.am  154  ASP154     -0.1974
    163  CA        24.1280  -28.6680   -2.0960 C.3   154  ASP154      0.1709
    164  C         24.5330  -27.3350   -2.7550 C.2   154  ASP154      0.2293
    165  O         25.1620  -26.4580   -2.1590 O.2   154  ASP154     -0.2864
    166  CB        23.8410  -28.5120   -0.6030 C.3   154  ASP154      0.1436
    167  CG        22.5550  -27.7180   -0.3440 C.2   154  ASP154      0.3671
    168  OD1       22.0210  -27.1180   -1.3050 O.co2 154  ASP154     -0.2456
    169  OD2       22.0550  -27.6960    0.7970 O.co2 154  ASP154     -0.2456
@<TRIPOS>BOND
     1    48    47    2
     2    47    46    1
     3    45    46    1
     4    57    56    2
     5    46    49    1
     6    77    76   ar
     7    78    76   ar
     8    56    55    1
     9    76    75    1
    10    74    75    1
    11    74    71    1
    12    70    71    1
    13    70    64   am
    14    49    50    1
    15    71    72    1
    16    62    63    1
    17    63    64    1
    18    63    66    1
    19    50    51    1
    20    69    67    1
    21    64    65    2
    22    55    54    1
    23    55    58    1
    24    60    58    1
    25    66    67    1
    26    67    68    1
    27    72    79   am
    28    72    73    2
    29    51    53   ar
    30    51    52   ar
    31    58    59    1
    32    59    61    1
    33    79    80    1
    34    34    33    2
    35    39    38    2
    36    31    32    1
    37    82    81    2
    38    33    32    1
    39    80    81    1
    40    80    83    1
    41    36    37    1
    42    81    90   am
    43    38    37    1
    44    40    37    1
    45    40    41    1
    46   164   165    2
    47   164   163    1
    48    32    35    1
    49    83    84    1
    50    42    41    1
    51    42    43    1
    52    90    96    1
    53    90    91    1
    54   162   163    1
    55   162   156   am
    56    95    96    1
    57    95    94    1
    58   155   154    1
    59   155   156    1
    60   155   158    1
    61    91    94    1
    62    91    92    1
    63   163   166    1
    64    43    44    1
    65   156   157    2
    66   160   158    1
    67   168   167   ar
    68   158   159    1
    69    84    85    1
    70    89    87    1
    71    92    93    2
    72    86    87    2
    73    86    85    1
    74    87    88    1
    75   166   167    1
    76   167   169   ar
    77   159   161    1
    78   152   151    1
    79    16    15    2
    80   141   140    2
    81    29    28    1
    82   149   148    2
    83    30    28    1
    84   150   151    1
    85   150   147    1
    86   151   153    1
    87    15    14    1
    88    25    28    1
    89    25    26    1
    90    25    24    1
    91   146   147    1
    92   148   147    1
    93   140   139    1
    94   142   143    1
    95   142   139    1
    96   103   101    1
    97    26    27    2
    98    17    14    1
    99    17    18    1
   100    14    13    1
   101   145   143   am
   102   143   144    2
   103   101   102    1
   104   101    98    1
   105     7     6    1
   106   139   138    1
   107    19    18   ar
   108    19    21   ar
   109    18    20   ar
   110    98    97    1
   111    98    99    1
   112     6     5    1
   113     6     8    1
   114    21    23   ar
   115   138   131   am
   116    20    22   ar
   117     5     2    1
   118   132   131    2
   119    99   104   am
   120    99   100    2
   121   131   130    1
   122    23    22   ar
   123    12    11    2
   124   104   105    1
   125   107   106    2
   126     1     2    1
   127     2     3    1
   128   106   105    1
   129   106   113   am
   130     9     3   am
   131     9    10    1
   132   114   117    1
   133   114   113    1
   134   114   115    1
   135    11    10    1
   136   117   118    1
   137   105   108    1
   138   130   129    1
   139   130   133    1
   140     3     4    2
   141   115   116    2
   142   133   134    1
   143   108   109    1
   144   118   120   ar
   145   118   119   ar
   146   134   135    1
   147   109   110    1
   148   136   135   ar
   149   135   137   ar
   150   111   110    2
   151   110   112   am
   152   128   126   ar
   153   121   122    1
   154   125   126    1
   155   125   122    1
   156   126   127   ar
   157   122   123    1
   158   123   124    2
